data_image0
_chemical_formula_structural       Cd2H16C12I4N8
_chemical_formula_sum              "Cd2 H16 C12 I4 N8"
_cell_length_a       4.25399
_cell_length_b       9.41879
_cell_length_c       14.6462
_cell_angle_alpha    95.8118
_cell_angle_beta     90.1495
_cell_angle_gamma    102.356

_space_group_name_H-M_alt    "P 1"
_space_group_IT_number       1

loop_
  _space_group_symop_operation_xyz
  'x, y, z'

loop_
  _atom_site_type_symbol
  _atom_site_label
  _atom_site_symmetry_multiplicity
  _atom_site_fract_x
  _atom_site_fract_y
  _atom_site_fract_z
  _atom_site_occupancy
  Cd  Cd1       1.0  0.05911  0.00178  0.75064  1.0000
  Cd  Cd2       1.0  0.94090  0.99822  0.24936  1.0000
  H   H1        1.0  0.65844  0.62514  0.00166  1.0000
  H   H2        1.0  0.02038  0.36910  0.49390  1.0000
  H   H3        1.0  0.34155  0.37484  0.99833  1.0000
  H   H4        1.0  0.97964  0.63090  0.50610  1.0000
  H   H5        1.0  0.96050  0.45703  0.87778  1.0000
  H   H6        1.0  0.48828  0.53990  0.61549  1.0000
  H   H7        1.0  0.03950  0.54297  0.12221  1.0000
  H   H8        1.0  0.51171  0.46011  0.38452  1.0000
  H   H9        1.0  0.15681  0.64012  0.74283  1.0000
  H   H10       1.0  0.50767  0.36315  0.75439  1.0000
  H   H11       1.0  0.84320  0.35988  0.25717  1.0000
  H   H12       1.0  0.49231  0.63685  0.24562  1.0000
  H   H13       1.0  0.69261  0.86441  0.93223  1.0000
  H   H14       1.0  0.82269  0.13432  0.56776  1.0000
  H   H15       1.0  0.30739  0.13559  0.06777  1.0000
  H   H16       1.0  0.17731  0.86569  0.43224  1.0000
  C   C1        1.0  0.77271  0.64813  0.93715  1.0000
  C   C2        1.0  0.11312  0.34851  0.55915  1.0000
  C   C3        1.0  0.22729  0.35186  0.06284  1.0000
  C   C4        1.0  0.88689  0.65149  0.44085  1.0000
  C   C5        1.0  0.92666  0.56722  0.87416  1.0000
  C   C6        1.0  0.34678  0.43086  0.62110  1.0000
  C   C7        1.0  0.07335  0.43278  0.12583  1.0000
  C   C8        1.0  0.65322  0.56915  0.37890  1.0000
  C   C9        1.0  0.02590  0.65894  0.80481  1.0000
  C   C10       1.0  0.35733  0.34236  0.69244  1.0000
  C   C11       1.0  0.97411  0.34106  0.19518  1.0000
  C   C12       1.0  0.64265  0.65764  0.30757  1.0000
  I   I1        1.0  0.49067  0.87591  0.61976  1.0000
  I   I2        1.0  0.61229  0.12718  0.88140  1.0000
  I   I3        1.0  0.50934  0.12409  0.38024  1.0000
  I   I4        1.0  0.38771  0.87282  0.11860  1.0000
  N   N1        1.0  0.93838  0.78728  0.82426  1.0000
  N   N2        1.0  0.14427  0.21459  0.67510  1.0000
  N   N3        1.0  0.06163  0.21272  0.17574  1.0000
  N   N4        1.0  0.85572  0.78542  0.32490  1.0000
  N   N5        1.0  0.78572  0.77831  0.90463  1.0000
  N   N6        1.0  0.99959  0.22072  0.59410  1.0000
  N   N7        1.0  0.21427  0.22169  0.09537  1.0000
  N   N8        1.0  0.00040  0.77929  0.40591  1.0000
