data_image0
_chemical_formula_structural       Cu8H32C24N32
_chemical_formula_sum              "Cu8 H32 C24 N32"
_cell_length_a       8.22347
_cell_length_b       9.72624
_cell_length_c       14.5805
_cell_angle_alpha    70.5951
_cell_angle_beta     73.6098
_cell_angle_gamma    64.9781

_space_group_name_H-M_alt    "P 1"
_space_group_IT_number       1

loop_
  _space_group_symop_operation_xyz
  'x, y, z'

loop_
  _atom_site_type_symbol
  _atom_site_label
  _atom_site_symmetry_multiplicity
  _atom_site_fract_x
  _atom_site_fract_y
  _atom_site_fract_z
  _atom_site_occupancy
  Cu  Cu1       1.0  0.61442  0.56718  0.74824  1.0000
  Cu  Cu2       1.0  0.92970  0.93286  0.75175  1.0000
  Cu  Cu3       1.0  0.38558  0.43282  0.25176  1.0000
  Cu  Cu4       1.0  0.07030  0.06714  0.24825  1.0000
  Cu  Cu5       1.0  0.61238  0.82153  0.51727  1.0000
  Cu  Cu6       1.0  0.95116  0.67848  0.98287  1.0000
  Cu  Cu7       1.0  0.38762  0.17847  0.48273  1.0000
  Cu  Cu8       1.0  0.04884  0.32151  0.01713  1.0000
  H   H1        1.0  0.01315  0.51437  0.72409  1.0000
  H   H2        1.0  0.25182  0.98531  0.77595  1.0000
  H   H3        1.0  0.98685  0.48564  0.27591  1.0000
  H   H4        1.0  0.74818  0.01469  0.22405  1.0000
  H   H5        1.0  0.71706  0.34962  0.62640  1.0000
  H   H6        1.0  0.69317  0.15014  0.87366  1.0000
  H   H7        1.0  0.28294  0.65038  0.37361  1.0000
  H   H8        1.0  0.30682  0.84986  0.12634  1.0000
  H   H9        1.0  0.43422  0.28090  0.65679  1.0000
  H   H10       1.0  0.37196  0.21890  0.84315  1.0000
  H   H11       1.0  0.56579  0.71910  0.34321  1.0000
  H   H12       1.0  0.62804  0.78110  0.15685  1.0000
  H   H13       1.0  0.32258  0.48483  0.64538  1.0000
  H   H14       1.0  0.45301  0.01497  0.85454  1.0000
  H   H15       1.0  0.67743  0.51517  0.35461  1.0000
  H   H16       1.0  0.54699  0.98503  0.14546  1.0000
  H   H17       1.0  0.41513  0.40783  0.53755  1.0000
  H   H18       1.0  0.36068  0.09196  0.96238  1.0000
  H   H19       1.0  0.58487  0.59218  0.46245  1.0000
  H   H20       1.0  0.63932  0.90804  0.03762  1.0000
  H   H21       1.0  0.05722  0.23142  0.42322  1.0000
  H   H22       1.0  0.71154  0.26863  0.07674  1.0000
  H   H23       1.0  0.94278  0.76859  0.57678  1.0000
  H   H24       1.0  0.28846  0.73136  0.92326  1.0000
  H   H25       1.0  0.85205  0.21410  0.49996  1.0000
  H   H26       1.0  0.56600  0.28588  0.99994  1.0000
  H   H27       1.0  0.14795  0.78590  0.50004  1.0000
  H   H28       1.0  0.43400  0.71412  0.00006  1.0000
  H   H29       1.0  0.06650  0.07005  0.52679  1.0000
  H   H30       1.0  0.66323  0.42989  0.97310  1.0000
  H   H31       1.0  0.93350  0.92995  0.47321  1.0000
  H   H32       1.0  0.33677  0.57011  0.02690  1.0000
  C   C1        1.0  0.16784  0.37571  0.61768  1.0000
  C   C2        1.0  0.16135  0.12404  0.88232  1.0000
  C   C3        1.0  0.83216  0.62429  0.38231  1.0000
  C   C4        1.0  0.83865  0.87596  0.11768  1.0000
  C   C5        1.0  0.01016  0.44760  0.67785  1.0000
  C   C6        1.0  0.13578  0.05212  0.82218  1.0000
  C   C7        1.0  0.98984  0.55240  0.32215  1.0000
  C   C8        1.0  0.86422  0.94788  0.17782  1.0000
  C   C9        1.0  0.84646  0.35795  0.62350  1.0000
  C   C10       1.0  0.82800  0.14182  0.87655  1.0000
  C   C11       1.0  0.15354  0.64205  0.37650  1.0000
  C   C12       1.0  0.17200  0.85818  0.12345  1.0000
  C   C13       1.0  0.00145  0.28434  0.56261  1.0000
  C   C14       1.0  0.84845  0.21546  0.93740  1.0000
  C   C15       1.0  0.99855  0.71566  0.43739  1.0000
  C   C16       1.0  0.15155  0.78453  0.06260  1.0000
  C   C17       1.0  0.34391  0.38913  0.61420  1.0000
  C   C18       1.0  0.34737  0.11065  0.88575  1.0000
  C   C19       1.0  0.65609  0.61087  0.38580  1.0000
  C   C20       1.0  0.65263  0.88935  0.11425  1.0000
  C   C21       1.0  0.99289  0.19582  0.49954  1.0000
  C   C22       1.0  0.68816  0.30412  0.00039  1.0000
  C   C23       1.0  0.00711  0.80418  0.50046  1.0000
  C   C24       1.0  0.31184  0.69588  0.99962  1.0000
  N   N1        1.0  0.16445  0.29193  0.55986  1.0000
  N   N2        1.0  0.01630  0.20789  0.94012  1.0000
  N   N3        1.0  0.83556  0.70807  0.44014  1.0000
  N   N4        1.0  0.98370  0.79211  0.05988  1.0000
  N   N5        1.0  0.84831  0.43997  0.68140  1.0000
  N   N6        1.0  0.96982  0.05974  0.81866  1.0000
  N   N7        1.0  0.15170  0.56003  0.31860  1.0000
  N   N8        1.0  0.03018  0.94026  0.18134  1.0000
  N   N9        1.0  0.47291  0.71715  0.63359  1.0000
  N   N10       1.0  0.82370  0.78280  0.86649  1.0000
  N   N11       1.0  0.52709  0.28285  0.36641  1.0000
  N   N12       1.0  0.17630  0.21720  0.13352  1.0000
  N   N13       1.0  0.31012  0.76871  0.65635  1.0000
  N   N14       1.0  0.73537  0.73117  0.84369  1.0000
  N   N15       1.0  0.68988  0.23129  0.34365  1.0000
  N   N16       1.0  0.26462  0.26883  0.15631  1.0000
  N   N17       1.0  0.15098  0.81094  0.67909  1.0000
  N   N18       1.0  0.64135  0.68888  0.82092  1.0000
  N   N19       1.0  0.84902  0.18905  0.32091  1.0000
  N   N20       1.0  0.35865  0.31112  0.17908  1.0000
  N   N21       1.0  0.43909  0.46026  0.81803  1.0000
  N   N22       1.0  0.71736  0.03972  0.68195  1.0000
  N   N23       1.0  0.56091  0.53973  0.18197  1.0000
  N   N24       1.0  0.28264  0.96028  0.31805  1.0000
  N   N25       1.0  0.30158  0.47762  0.87501  1.0000
  N   N26       1.0  0.65418  0.02234  0.62501  1.0000
  N   N27       1.0  0.69842  0.52237  0.12499  1.0000
  N   N28       1.0  0.34582  0.97766  0.37499  1.0000
  N   N29       1.0  0.16435  0.48820  0.93316  1.0000
  N   N30       1.0  0.58565  0.01175  0.56689  1.0000
  N   N31       1.0  0.83565  0.51179  0.06684  1.0000
  N   N32       1.0  0.41435  0.98824  0.43311  1.0000
