data_image0
_chemical_formula_structural       NiH32C34S2N6O6
_chemical_formula_sum              "Ni1 H32 C34 S2 N6 O6"
_cell_length_a       6.96215
_cell_length_b       9.4593
_cell_length_c       12.7813
_cell_angle_alpha    73.9796
_cell_angle_beta     86.077
_cell_angle_gamma    83.4647

_space_group_name_H-M_alt    "P 1"
_space_group_IT_number       1

loop_
  _space_group_symop_operation_xyz
  'x, y, z'

loop_
  _atom_site_type_symbol
  _atom_site_label
  _atom_site_symmetry_multiplicity
  _atom_site_fract_x
  _atom_site_fract_y
  _atom_site_fract_z
  _atom_site_occupancy
  Ni  Ni1       1.0  0.50000  0.50000  1.00000  1.0000
  H   H1        1.0  0.87385  0.41606  0.93761  1.0000
  H   H2        1.0  0.12615  0.58394  0.06239  1.0000
  H   H3        1.0  0.84602  0.42038  0.06069  1.0000
  H   H4        1.0  0.15397  0.57962  0.93931  1.0000
  H   H5        1.0  0.56165  0.88113  0.05307  1.0000
  H   H6        1.0  0.43835  0.11886  0.94693  1.0000
  H   H7        1.0  0.64728  0.13726  0.05455  1.0000
  H   H8        1.0  0.35272  0.86273  0.94545  1.0000
  H   H9        1.0  0.92639  0.14688  0.16049  1.0000
  H   H10       1.0  0.07360  0.85311  0.83951  1.0000
  H   H11       1.0  0.37175  0.78491  0.27171  1.0000
  H   H12       1.0  0.62826  0.21508  0.72829  1.0000
  H   H13       1.0  0.18664  0.80163  0.37190  1.0000
  H   H14       1.0  0.81337  0.19836  0.62810  1.0000
  H   H15       1.0  0.15684  0.57548  0.54314  1.0000
  H   H16       1.0  0.84318  0.42452  0.45685  1.0000
  H   H17       1.0  0.65101  0.61065  0.31931  1.0000
  H   H18       1.0  0.34901  0.38934  0.68069  1.0000
  H   H19       1.0  0.18337  0.27238  0.06586  1.0000
  H   H20       1.0  0.81663  0.72762  0.93414  1.0000
  H   H21       1.0  0.19032  0.05777  0.26255  1.0000
  H   H22       1.0  0.80968  0.94223  0.73745  1.0000
  H   H23       1.0  0.62792  0.34159  0.24987  1.0000
  H   H24       1.0  0.37207  0.65841  0.75013  1.0000
  H   H25       1.0  0.02959  0.16431  0.44157  1.0000
  H   H26       1.0  0.97040  0.83570  0.55844  1.0000
  H   H27       1.0  0.17670  0.31232  0.40266  1.0000
  H   H28       1.0  0.82330  0.68768  0.59735  1.0000
  H   H29       1.0  0.10832  0.24036  0.54219  1.0000
  H   H30       1.0  0.89169  0.75965  0.45782  1.0000
  H   H31       1.0  0.27337  0.01525  0.65536  1.0000
  H   H32       1.0  0.72662  0.98475  0.34464  1.0000
  C   C1        1.0  0.75758  0.62471  0.13107  1.0000
  C   C2        1.0  0.24242  0.37529  0.86892  1.0000
  C   C3        1.0  0.80277  0.76891  0.14599  1.0000
  C   C4        1.0  0.19723  0.23109  0.85401  1.0000
  C   C5        1.0  0.68566  0.89606  0.09488  1.0000
  C   C6        1.0  0.31434  0.10394  0.90512  1.0000
  C   C7        1.0  0.72939  0.03501  0.09678  1.0000
  C   C8        1.0  0.27061  0.96499  0.90322  1.0000
  C   C9        1.0  0.88808  0.04033  0.15539  1.0000
  C   C10       1.0  0.11192  0.95967  0.84461  1.0000
  C   C11       1.0  0.96245  0.78645  0.20337  1.0000
  C   C12       1.0  0.03755  0.21354  0.79663  1.0000
  C   C13       1.0  0.27664  0.72293  0.33589  1.0000
  C   C14       1.0  0.72337  0.27706  0.66411  1.0000
  C   C15       1.0  0.39065  0.60758  0.42047  1.0000
  C   C16       1.0  0.60936  0.39241  0.57953  1.0000
  C   C17       1.0  0.30766  0.54388  0.52338  1.0000
  C   C18       1.0  0.69235  0.45611  0.47661  1.0000
  C   C19       1.0  0.58405  0.56162  0.39853  1.0000
  C   C20       1.0  0.41596  0.43837  0.60146  1.0000
  C   C21       1.0  0.27693  0.25604  0.13308  1.0000
  C   C22       1.0  0.72307  0.74396  0.86692  1.0000
  C   C23       1.0  0.27474  0.15131  0.23140  1.0000
  C   C24       1.0  0.72525  0.84869  0.76861  1.0000
  C   C25       1.0  0.50840  0.29567  0.22515  1.0000
  C   C26       1.0  0.49159  0.70433  0.77485  1.0000
  C   C27       1.0  0.46355  0.09116  0.39745  1.0000
  C   C28       1.0  0.53644  0.90884  0.60255  1.0000
  C   C29       1.0  0.32947  0.10222  0.48280  1.0000
  C   C30       1.0  0.67053  0.89779  0.51720  1.0000
  C   C31       1.0  0.15184  0.21061  0.46630  1.0000
  C   C32       1.0  0.84816  0.78940  0.53370  1.0000
  C   C33       1.0  0.37038  0.00833  0.58597  1.0000
  C   C34       1.0  0.62961  0.99168  0.41403  1.0000
  S   S1        1.0  0.11584  0.63267  0.27268  1.0000
  S   S2        1.0  0.88416  0.36733  0.72732  1.0000
  N   N1        1.0  0.42297  0.34456  0.12980  1.0000
  N   N2        1.0  0.57703  0.65544  0.87020  1.0000
  N   N3        1.0  0.42162  0.17743  0.28903  1.0000
  N   N4        1.0  0.57837  0.82258  0.71097  1.0000
  N   N5        1.0  0.99949  0.92055  0.20903  1.0000
  N   N6        1.0  0.00052  0.07945  0.79097  1.0000
  O   O1        1.0  0.58783  0.62155  0.10086  1.0000
  O   O2        1.0  0.41216  0.37845  0.89914  1.0000
  O   O3        1.0  0.79579  0.37859  0.00493  1.0000
  O   O4        1.0  0.20420  0.62141  0.99507  1.0000
  O   O5        1.0  0.89270  0.51839  0.14508  1.0000
  O   O6        1.0  0.10730  0.48161  0.85492  1.0000
