data_image0
_chemical_formula_structural       Cd2H40C52I4N12
_chemical_formula_sum              "Cd2 H40 C52 I4 N12"
_cell_length_a       7.08194
_cell_length_b       9.11965
_cell_length_c       22.1775
_cell_angle_alpha    94.2331
_cell_angle_beta     90
_cell_angle_gamma    112.847

_space_group_name_H-M_alt    "P 1"
_space_group_IT_number       1

loop_
  _space_group_symop_operation_xyz
  'x, y, z'

loop_
  _atom_site_type_symbol
  _atom_site_label
  _atom_site_symmetry_multiplicity
  _atom_site_fract_x
  _atom_site_fract_y
  _atom_site_fract_z
  _atom_site_occupancy
  Cd  Cd1       1.0  0.35581  0.00009  0.74989  1.0000
  Cd  Cd2       1.0  0.64420  0.99991  0.25011  1.0000
  H   H1        1.0  0.31160  0.33707  0.79861  1.0000
  H   H2        1.0  0.97404  0.66268  0.70135  1.0000
  H   H3        1.0  0.68840  0.66292  0.20139  1.0000
  H   H4        1.0  0.02596  0.33732  0.29865  1.0000
  H   H5        1.0  0.08701  0.42596  0.86282  1.0000
  H   H6        1.0  0.66092  0.57375  0.63701  1.0000
  H   H7        1.0  0.91299  0.57404  0.13718  1.0000
  H   H8        1.0  0.33909  0.42625  0.36299  1.0000
  H   H9        1.0  0.77503  0.93140  0.90588  1.0000
  H   H10       1.0  0.84327  0.06841  0.59408  1.0000
  H   H11       1.0  0.22497  0.06860  0.09412  1.0000
  H   H12       1.0  0.15673  0.93159  0.40592  1.0000
  H   H13       1.0  0.01858  0.86845  0.84153  1.0000
  H   H14       1.0  0.14964  0.13137  0.65849  1.0000
  H   H15       1.0  0.98142  0.13155  0.15848  1.0000
  H   H16       1.0  0.85037  0.86863  0.34151  1.0000
  H   H17       1.0  0.74101  0.38409  0.83138  1.0000
  H   H18       1.0  0.35755  0.61651  0.66853  1.0000
  H   H19       1.0  0.25899  0.61591  0.16861  1.0000
  H   H20       1.0  0.64245  0.38349  0.33147  1.0000
  H   H21       1.0  0.70977  0.64630  0.83889  1.0000
  H   H22       1.0  0.06414  0.35436  0.66140  1.0000
  H   H23       1.0  0.29023  0.35371  0.16111  1.0000
  H   H24       1.0  0.93586  0.64563  0.33859  1.0000
  H   H25       1.0  0.73235  0.67474  0.02607  1.0000
  H   H26       1.0  0.05669  0.32442  0.47421  1.0000
  H   H27       1.0  0.26765  0.32526  0.97393  1.0000
  H   H28       1.0  0.94331  0.67559  0.52579  1.0000
  H   H29       1.0  0.75573  0.40930  0.02720  1.0000
  H   H30       1.0  0.34554  0.58971  0.47271  1.0000
  H   H31       1.0  0.24427  0.59070  0.97280  1.0000
  H   H32       1.0  0.65446  0.41030  0.52729  1.0000
  H   H33       1.0  0.37076  0.10389  0.91574  1.0000
  H   H34       1.0  0.26703  0.89571  0.58425  1.0000
  H   H35       1.0  0.62923  0.89611  0.08426  1.0000
  H   H36       1.0  0.73297  0.10428  0.41575  1.0000
  H   H37       1.0  0.12367  0.90234  0.97814  1.0000
  H   H38       1.0  0.22147  0.09763  0.52208  1.0000
  H   H39       1.0  0.87632  0.09766  0.02186  1.0000
  H   H40       1.0  0.77853  0.90237  0.47792  1.0000
  C   C1        1.0  0.19062  0.25125  0.82346  1.0000
  C   C2        1.0  0.93895  0.74852  0.67649  1.0000
  C   C3        1.0  0.80938  0.74875  0.17654  1.0000
  C   C4        1.0  0.06106  0.25148  0.32351  1.0000
  C   C5        1.0  0.06309  0.30030  0.85956  1.0000
  C   C6        1.0  0.76258  0.69944  0.64031  1.0000
  C   C7        1.0  0.93690  0.69970  0.14044  1.0000
  C   C8        1.0  0.23743  0.30056  0.35969  1.0000
  C   C9        1.0  0.90573  0.18668  0.89066  1.0000
  C   C10       1.0  0.71897  0.81309  0.60919  1.0000
  C   C11       1.0  0.09427  0.81332  0.10934  1.0000
  C   C12       1.0  0.28103  0.18691  0.39081  1.0000
  C   C13       1.0  0.88984  0.02724  0.88337  1.0000
  C   C14       1.0  0.86227  0.97257  0.61658  1.0000
  C   C15       1.0  0.11016  0.97277  0.11663  1.0000
  C   C16       1.0  0.13773  0.02743  0.38342  1.0000
  C   C17       1.0  0.02616  0.99056  0.84698  1.0000
  C   C18       1.0  0.03517  0.00926  0.65301  1.0000
  C   C19       1.0  0.97383  0.00944  0.15303  1.0000
  C   C20       1.0  0.96484  0.99074  0.34699  1.0000
  C   C21       1.0  0.75779  0.37761  0.92918  1.0000
  C   C22       1.0  0.38015  0.62218  0.57071  1.0000
  C   C23       1.0  0.24220  0.62239  0.07082  1.0000
  C   C24       1.0  0.61985  0.37782  0.42929  1.0000
  C   C25       1.0  0.74321  0.44551  0.87568  1.0000
  C   C26       1.0  0.29803  0.55475  0.62431  1.0000
  C   C27       1.0  0.25678  0.55449  0.12432  1.0000
  C   C28       1.0  0.70197  0.44525  0.37569  1.0000
  C   C29       1.0  0.72658  0.59298  0.88005  1.0000
  C   C30       1.0  0.13391  0.40733  0.62015  1.0000
  C   C31       1.0  0.27342  0.40702  0.11995  1.0000
  C   C32       1.0  0.86610  0.59266  0.37985  1.0000
  C   C33       1.0  0.73587  0.60752  0.98354  1.0000
  C   C34       1.0  0.12785  0.39193  0.51666  1.0000
  C   C35       1.0  0.26412  0.39248  0.01646  1.0000
  C   C36       1.0  0.87215  0.60807  0.48334  1.0000
  C   C37       1.0  0.75067  0.45981  0.98450  1.0000
  C   C38       1.0  0.29039  0.53956  0.51550  1.0000
  C   C39       1.0  0.24933  0.54019  0.01550  1.0000
  C   C40       1.0  0.70962  0.46044  0.48451  1.0000
  C   C41       1.0  0.63683  0.11243  0.96528  1.0000
  C   C42       1.0  0.52443  0.88735  0.53459  1.0000
  C   C43       1.0  0.36316  0.88758  0.03472  1.0000
  C   C44       1.0  0.47558  0.11265  0.46541  1.0000
  C   C45       1.0  0.42590  0.05908  0.95324  1.0000
  C   C46       1.0  0.36695  0.94070  0.54677  1.0000
  C   C47       1.0  0.57409  0.94092  0.04676  1.0000
  C   C48       1.0  0.63305  0.05930  0.45323  1.0000
  C   C49       1.0  0.28822  0.94624  0.98783  1.0000
  C   C50       1.0  0.34207  0.05374  0.51231  1.0000
  C   C51       1.0  0.71177  0.05376  0.01217  1.0000
  C   C52       1.0  0.65793  0.94626  0.48769  1.0000
  I   I1        1.0  0.62629  0.26571  0.70157  1.0000
  I   I2        1.0  0.36181  0.73480  0.79818  1.0000
  I   I3        1.0  0.37371  0.73429  0.29843  1.0000
  I   I4        1.0  0.63820  0.26520  0.20182  1.0000
  N   N1        1.0  0.17525  0.09880  0.81692  1.0000
  N   N2        1.0  0.07598  0.90099  0.68307  1.0000
  N   N3        1.0  0.82475  0.90119  0.18308  1.0000
  N   N4        1.0  0.92402  0.09901  0.31693  1.0000
  N   N5        1.0  0.77431  0.22746  0.92814  1.0000
  N   N6        1.0  0.54698  0.77219  0.57161  1.0000
  N   N7        1.0  0.22569  0.77254  0.07186  1.0000
  N   N8        1.0  0.45302  0.22781  0.42840  1.0000
  N   N9        1.0  0.72469  0.67544  0.93271  1.0000
  N   N10       1.0  0.04914  0.32447  0.56760  1.0000
  N   N11       1.0  0.27531  0.32456  0.06729  1.0000
  N   N12       1.0  0.95086  0.67553  0.43240  1.0000
