data_image0
_chemical_formula_structural       Cd2H40C52N12Cl4
_chemical_formula_sum              "Cd2 H40 C52 N12 Cl4"
_cell_length_a       9.07726
_cell_length_b       11.4125
_cell_length_c       16.3605
_cell_angle_alpha    73.8324
_cell_angle_beta     73.8884
_cell_angle_gamma    66.5652

_space_group_name_H-M_alt    "P 1"
_space_group_IT_number       1

loop_
  _space_group_symop_operation_xyz
  'x, y, z'

loop_
  _atom_site_type_symbol
  _atom_site_label
  _atom_site_symmetry_multiplicity
  _atom_site_fract_x
  _atom_site_fract_y
  _atom_site_fract_z
  _atom_site_occupancy
  Cd  Cd1       1.0  0.00000  0.00000  0.00000  1.0000
  Cd  Cd2       1.0  0.00000  0.50000  0.50000  1.0000
  H   H1        1.0  0.71424  0.52132  0.07209  1.0000
  H   H2        1.0  0.30768  0.97893  0.42778  1.0000
  H   H3        1.0  0.28576  0.47868  0.92791  1.0000
  H   H4        1.0  0.69232  0.02107  0.57222  1.0000
  H   H5        1.0  0.59672  0.73726  0.76625  1.0000
  H   H6        1.0  0.09989  0.76263  0.73390  1.0000
  H   H7        1.0  0.40328  0.26274  0.23375  1.0000
  H   H8        1.0  0.90011  0.23736  0.26611  1.0000
  H   H9        1.0  0.98030  0.37784  0.84581  1.0000
  H   H10       1.0  0.20417  0.12186  0.65410  1.0000
  H   H11       1.0  0.01970  0.62216  0.15419  1.0000
  H   H12       1.0  0.79583  0.87814  0.34590  1.0000
  H   H13       1.0  0.47288  0.56752  0.90392  1.0000
  H   H14       1.0  0.94409  0.93230  0.59605  1.0000
  H   H15       1.0  0.52712  0.43248  0.09608  1.0000
  H   H16       1.0  0.05591  0.06771  0.40396  1.0000
  H   H17       1.0  0.19260  0.71271  0.96242  1.0000
  H   H18       1.0  0.86757  0.78711  0.53749  1.0000
  H   H19       1.0  0.80740  0.28729  0.03758  1.0000
  H   H20       1.0  0.13243  0.21289  0.46251  1.0000
  H   H21       1.0  0.07106  0.56680  0.84048  1.0000
  H   H22       1.0  0.47850  0.93269  0.65947  1.0000
  H   H23       1.0  0.92894  0.43320  0.15952  1.0000
  H   H24       1.0  0.52150  0.06731  0.34053  1.0000
  H   H25       1.0  0.67072  0.80253  0.97774  1.0000
  H   H26       1.0  0.45081  0.69731  0.52231  1.0000
  H   H27       1.0  0.32928  0.19747  0.02226  1.0000
  H   H28       1.0  0.54918  0.30269  0.47769  1.0000
  H   H29       1.0  0.38200  0.94763  0.02083  1.0000
  H   H30       1.0  0.35038  0.55213  0.47922  1.0000
  H   H31       1.0  0.61800  0.05236  0.97917  1.0000
  H   H32       1.0  0.64961  0.44787  0.52078  1.0000
  H   H33       1.0  0.05084  0.34458  0.69348  1.0000
  H   H34       1.0  0.08945  0.15521  0.80641  1.0000
  H   H35       1.0  0.94917  0.65542  0.30652  1.0000
  H   H36       1.0  0.91055  0.84479  0.19359  1.0000
  H   H37       1.0  0.67756  0.68092  0.61945  1.0000
  H   H38       1.0  0.97820  0.81900  0.88070  1.0000
  H   H39       1.0  0.32245  0.31907  0.38054  1.0000
  H   H40       1.0  0.02180  0.18100  0.11930  1.0000
  C   C1        1.0  0.59379  0.67621  0.93327  1.0000
  C   C2        1.0  0.20310  0.82368  0.56665  1.0000
  C   C3        1.0  0.40621  0.32379  0.06673  1.0000
  C   C4        1.0  0.79690  0.17632  0.43336  1.0000
  C   C5        1.0  0.87727  0.54915  0.95005  1.0000
  C   C6        1.0  0.37648  0.95069  0.54989  1.0000
  C   C7        1.0  0.12273  0.45085  0.04995  1.0000
  C   C8        1.0  0.62352  0.04931  0.45011  1.0000
  C   C9        1.0  0.83979  0.51154  0.04021  1.0000
  C   C10       1.0  0.39151  0.98862  0.45974  1.0000
  C   C11       1.0  0.16021  0.48846  0.95979  1.0000
  C   C12       1.0  0.60849  0.01138  0.54026  1.0000
  C   C13       1.0  0.69676  0.64779  0.75371  1.0000
  C   C14       1.0  0.09823  0.85207  0.74636  1.0000
  C   C15       1.0  0.30324  0.35221  0.24629  1.0000
  C   C16       1.0  0.90178  0.14793  0.25364  1.0000
  C   C17       1.0  0.91108  0.44947  0.79758  1.0000
  C   C18       1.0  0.15846  0.05023  0.70240  1.0000
  C   C19       1.0  0.08892  0.55053  0.20242  1.0000
  C   C20       1.0  0.84154  0.94977  0.29760  1.0000
  C   C21       1.0  0.78534  0.56412  0.81861  1.0000
  C   C22       1.0  0.16810  0.93565  0.68137  1.0000
  C   C23       1.0  0.21466  0.43588  0.18139  1.0000
  C   C24       1.0  0.83190  0.06435  0.31863  1.0000
  C   C25       1.0  0.45686  0.65067  0.92999  1.0000
  C   C26       1.0  0.03733  0.84921  0.56992  1.0000
  C   C27       1.0  0.54314  0.34933  0.07001  1.0000
  C   C28       1.0  0.96267  0.15080  0.43008  1.0000
  C   C29       1.0  0.30196  0.73177  0.96109  1.0000
  C   C30       1.0  0.99467  0.76808  0.53881  1.0000
  C   C31       1.0  0.69804  0.26823  0.03891  1.0000
  C   C32       1.0  0.00533  0.23192  0.46119  1.0000
  C   C33       1.0  0.03910  0.53779  0.91045  1.0000
  C   C34       1.0  0.48749  0.96184  0.58951  1.0000
  C   C35       1.0  0.96090  0.46221  0.08955  1.0000
  C   C36       1.0  0.51251  0.03816  0.41049  1.0000
  C   C37       1.0  0.56829  0.78155  0.97005  1.0000
  C   C38       1.0  0.31975  0.71829  0.52991  1.0000
  C   C39       1.0  0.43171  0.21845  0.02995  1.0000
  C   C40       1.0  0.68025  0.28171  0.47009  1.0000
  C   C41       1.0  0.40783  0.86011  0.99662  1.0000
  C   C42       1.0  0.26446  0.63971  0.50336  1.0000
  C   C43       1.0  0.59217  0.13988  0.00338  1.0000
  C   C44       1.0  0.73553  0.36030  0.49664  1.0000
  C   C45       1.0  0.94876  0.42901  0.71336  1.0000
  C   C46       1.0  0.09164  0.07075  0.78661  1.0000
  C   C47       1.0  0.05124  0.57099  0.28664  1.0000
  C   C48       1.0  0.90836  0.92925  0.21339  1.0000
  C   C49       1.0  0.74150  0.61711  0.67187  1.0000
  C   C50       1.0  0.03078  0.88275  0.82822  1.0000
  C   C51       1.0  0.25850  0.38288  0.32812  1.0000
  C   C52       1.0  0.96923  0.11725  0.17178  1.0000
  N   N1        1.0  0.27624  0.83717  0.99208  1.0000
  N   N2        1.0  0.10539  0.66269  0.50785  1.0000
  N   N3        1.0  0.72376  0.16284  0.00792  1.0000
  N   N4        1.0  0.89460  0.33732  0.49214  1.0000
  N   N5        1.0  0.75258  0.59606  0.90015  1.0000
  N   N6        1.0  0.24870  0.90379  0.59977  1.0000
  N   N7        1.0  0.24742  0.40394  0.09985  1.0000
  N   N8        1.0  0.75130  0.09621  0.40023  1.0000
  N   N9        1.0  0.86812  0.51129  0.65031  1.0000
  N   N10       1.0  0.03022  0.98853  0.84973  1.0000
  N   N11       1.0  0.13188  0.48870  0.34969  1.0000
  N   N12       1.0  0.96978  0.01147  0.15027  1.0000
  Cl  Cl1       1.0  0.12494  0.18217  0.95325  1.0000
  Cl  Cl2       1.0  0.26046  0.31776  0.54668  1.0000
  Cl  Cl3       1.0  0.87506  0.81784  0.04675  1.0000
  Cl  Cl4       1.0  0.73954  0.68224  0.45332  1.0000
