data_image0
_chemical_formula_structural       Hg2H40C52N12Cl4
_chemical_formula_sum              "Hg2 H40 C52 N12 Cl4"
_cell_length_a       6.96404
_cell_length_b       9.04939
_cell_length_c       21.274
_cell_angle_alpha    91.8066
_cell_angle_beta     90
_cell_angle_gamma    112.63

_space_group_name_H-M_alt    "P 1"
_space_group_IT_number       1

loop_
  _space_group_symop_operation_xyz
  'x, y, z'

loop_
  _atom_site_type_symbol
  _atom_site_label
  _atom_site_symmetry_multiplicity
  _atom_site_fract_x
  _atom_site_fract_y
  _atom_site_fract_z
  _atom_site_occupancy
  Hg  Hg1       1.0  0.41777  0.99997  0.74997  1.0000
  Hg  Hg2       1.0  0.58223  0.00003  0.25003  1.0000
  H   H1        1.0  0.25292  0.88519  0.58623  1.0000
  H   H2        1.0  0.36821  0.11513  0.91377  1.0000
  H   H3        1.0  0.74708  0.11481  0.41377  1.0000
  H   H4        1.0  0.63179  0.88486  0.08623  1.0000
  H   H5        1.0  0.99478  0.65125  0.70775  1.0000
  H   H6        1.0  0.34406  0.34900  0.79244  1.0000
  H   H7        1.0  0.00522  0.34874  0.29225  1.0000
  H   H8        1.0  0.65595  0.65102  0.20756  1.0000
  H   H9        1.0  0.66900  0.56417  0.64504  1.0000
  H   H10       1.0  0.10532  0.43596  0.85515  1.0000
  H   H11       1.0  0.33100  0.43583  0.35496  1.0000
  H   H12       1.0  0.89469  0.56404  0.14485  1.0000
  H   H13       1.0  0.15341  0.12640  0.66459  1.0000
  H   H14       1.0  0.02748  0.87376  0.83545  1.0000
  H   H15       1.0  0.84658  0.87359  0.33541  1.0000
  H   H16       1.0  0.97252  0.12625  0.16455  1.0000
  H   H17       1.0  0.35198  0.59209  0.47655  1.0000
  H   H18       1.0  0.76017  0.40817  0.02346  1.0000
  H   H19       1.0  0.64801  0.40791  0.52345  1.0000
  H   H20       1.0  0.23982  0.59183  0.97654  1.0000
  H   H21       1.0  0.34747  0.60675  0.68008  1.0000
  H   H22       1.0  0.74078  0.39295  0.81994  1.0000
  H   H23       1.0  0.65253  0.39325  0.31992  1.0000
  H   H24       1.0  0.25923  0.60705  0.18006  1.0000
  H   H25       1.0  0.20733  0.08967  0.51842  1.0000
  H   H26       1.0  0.11770  0.91075  0.98152  1.0000
  H   H27       1.0  0.79267  0.91033  0.48158  1.0000
  H   H28       1.0  0.88230  0.08925  0.01847  1.0000
  H   H29       1.0  0.04203  0.34609  0.67362  1.0000
  H   H30       1.0  0.69539  0.65339  0.82626  1.0000
  H   H31       1.0  0.95798  0.65391  0.32638  1.0000
  H   H32       1.0  0.30462  0.34662  0.17374  1.0000
  H   H33       1.0  0.05575  0.32699  0.47924  1.0000
  H   H34       1.0  0.72829  0.67303  0.02064  1.0000
  H   H35       1.0  0.94424  0.67301  0.52076  1.0000
  H   H36       1.0  0.27171  0.32697  0.97936  1.0000
  H   H37       1.0  0.83457  0.06647  0.60248  1.0000
  H   H38       1.0  0.76842  0.93351  0.89753  1.0000
  H   H39       1.0  0.16542  0.93352  0.39753  1.0000
  H   H40       1.0  0.23158  0.06649  0.10246  1.0000
  C   C1        1.0  0.35907  0.93483  0.54782  1.0000
  C   C2        1.0  0.42448  0.06533  0.95218  1.0000
  C   C3        1.0  0.64093  0.06517  0.45218  1.0000
  C   C4        1.0  0.57552  0.93466  0.04782  1.0000
  C   C5        1.0  0.37761  0.61806  0.57836  1.0000
  C   C6        1.0  0.75967  0.38191  0.92168  1.0000
  C   C7        1.0  0.62239  0.38193  0.42164  1.0000
  C   C8        1.0  0.24033  0.61809  0.07832  1.0000
  C   C9        1.0  0.52459  0.88591  0.53793  1.0000
  C   C10       1.0  0.63885  0.11410  0.96213  1.0000
  C   C11       1.0  0.47541  0.11409  0.46207  1.0000
  C   C12       1.0  0.36115  0.88590  0.03786  1.0000
  C   C13       1.0  0.95287  0.73882  0.68312  1.0000
  C   C14       1.0  0.21453  0.26137  0.81703  1.0000
  C   C15       1.0  0.04713  0.26118  0.31688  1.0000
  C   C16       1.0  0.78548  0.73864  0.18298  1.0000
  C   C17       1.0  0.76974  0.69079  0.64801  1.0000
  C   C18       1.0  0.07938  0.30935  0.85215  1.0000
  C   C19       1.0  0.23026  0.30921  0.35199  1.0000
  C   C20       1.0  0.92062  0.69066  0.14786  1.0000
  C   C21       1.0  0.72042  0.80744  0.61671  1.0000
  C   C22       1.0  0.91334  0.19263  0.88340  1.0000
  C   C23       1.0  0.27958  0.19256  0.38329  1.0000
  C   C24       1.0  0.08666  0.80737  0.11660  1.0000
  C   C25       1.0  0.04024  0.00324  0.65957  1.0000
  C   C26       1.0  0.03742  0.99690  0.84050  1.0000
  C   C27       1.0  0.95975  0.99675  0.34043  1.0000
  C   C28       1.0  0.96258  0.00311  0.15950  1.0000
  C   C29       1.0  0.29113  0.53912  0.52127  1.0000
  C   C30       1.0  0.75205  0.46097  0.97872  1.0000
  C   C31       1.0  0.70886  0.46088  0.47872  1.0000
  C   C32       1.0  0.24794  0.53903  0.02128  1.0000
  C   C33       1.0  0.28924  0.54729  0.63454  1.0000
  C   C34       1.0  0.74193  0.45246  0.86547  1.0000
  C   C35       1.0  0.71075  0.45271  0.36546  1.0000
  C   C36       1.0  0.25807  0.54754  0.13453  1.0000
  C   C37       1.0  0.33397  0.04913  0.51012  1.0000
  C   C38       1.0  0.28485  0.95106  0.98984  1.0000
  C   C39       1.0  0.66603  0.95087  0.48988  1.0000
  C   C40       1.0  0.71514  0.04894  0.01016  1.0000
  C   C41       1.0  0.11961  0.40144  0.63077  1.0000
  C   C42       1.0  0.71765  0.59816  0.86914  1.0000
  C   C43       1.0  0.88039  0.59856  0.36923  1.0000
  C   C44       1.0  0.28235  0.40185  0.13086  1.0000
  C   C45       1.0  0.12420  0.39204  0.52308  1.0000
  C   C46       1.0  0.73183  0.60792  0.97683  1.0000
  C   C47       1.0  0.87580  0.60796  0.47692  1.0000
  C   C48       1.0  0.26818  0.39208  0.02317  1.0000
  C   C49       1.0  0.86036  0.96831  0.62440  1.0000
  C   C50       1.0  0.89242  0.03177  0.87568  1.0000
  C   C51       1.0  0.13964  0.03169  0.37561  1.0000
  C   C52       1.0  0.10758  0.96823  0.12432  1.0000
  N   N1        1.0  0.08941  0.89184  0.68838  1.0000
  N   N2        1.0  0.19804  0.10835  0.81172  1.0000
  N   N3        1.0  0.91058  0.10816  0.31161  1.0000
  N   N4        1.0  0.80197  0.89166  0.18828  1.0000
  N   N5        1.0  0.54605  0.76878  0.57817  1.0000
  N   N6        1.0  0.77758  0.23126  0.92193  1.0000
  N   N7        1.0  0.45395  0.23121  0.42183  1.0000
  N   N8        1.0  0.22242  0.76874  0.07807  1.0000
  N   N9        1.0  0.03732  0.32270  0.57640  1.0000
  N   N10       1.0  0.71405  0.67702  0.92347  1.0000
  N   N11       1.0  0.96267  0.67730  0.42360  1.0000
  N   N12       1.0  0.28596  0.32298  0.07653  1.0000
  Cl  Cl1       1.0  0.61869  0.24797  0.70196  1.0000
  Cl  Cl2       1.0  0.37062  0.75199  0.79802  1.0000
  Cl  Cl3       1.0  0.38132  0.75203  0.29804  1.0000
  Cl  Cl4       1.0  0.62938  0.24801  0.20198  1.0000
