data_image0
_chemical_formula_structural       Cd2H40C52I4N12
_chemical_formula_sum              "Cd2 H40 C52 I4 N12"
_cell_length_a       9.33207
_cell_length_b       12.2774
_cell_length_c       12.9081
_cell_angle_alpha    108.745
_cell_angle_beta     97.8772
_cell_angle_gamma    108.07

_space_group_name_H-M_alt    "P 1"
_space_group_IT_number       1

loop_
  _space_group_symop_operation_xyz
  'x, y, z'

loop_
  _atom_site_type_symbol
  _atom_site_label
  _atom_site_symmetry_multiplicity
  _atom_site_fract_x
  _atom_site_fract_y
  _atom_site_fract_z
  _atom_site_occupancy
  Cd  Cd1       1.0  0.14384  0.76110  0.22237  1.0000
  Cd  Cd2       1.0  0.85616  0.23890  0.77763  1.0000
  H   H1        1.0  0.44345  0.83362  0.42146  1.0000
  H   H2        1.0  0.55655  0.16638  0.57854  1.0000
  H   H3        1.0  0.61588  0.73897  0.48514  1.0000
  H   H4        1.0  0.38412  0.26103  0.51486  1.0000
  H   H5        1.0  0.40779  0.42893  0.15947  1.0000
  H   H6        1.0  0.59220  0.57107  0.84053  1.0000
  H   H7        1.0  0.24445  0.53870  0.10836  1.0000
  H   H8        1.0  0.75555  0.46130  0.89164  1.0000
  H   H9        1.0  0.84115  0.73805  0.41961  1.0000
  H   H10       1.0  0.15885  0.26195  0.58039  1.0000
  H   H11       1.0  0.06930  0.83479  0.58483  1.0000
  H   H12       1.0  0.93070  0.16521  0.41517  1.0000
  H   H13       1.0  0.94629  0.52287  0.66503  1.0000
  H   H14       1.0  0.05371  0.47714  0.33497  1.0000
  H   H15       1.0  0.70810  0.41244  0.50340  1.0000
  H   H16       1.0  0.29190  0.58756  0.49660  1.0000
  H   H17       1.0  0.76232  0.37285  0.25554  1.0000
  H   H18       1.0  0.23769  0.62715  0.74446  1.0000
  H   H19       1.0  0.66504  0.14446  0.16783  1.0000
  H   H20       1.0  0.33496  0.85554  0.83217  1.0000
  H   H21       1.0  0.23526  0.12049  0.26387  1.0000
  H   H22       1.0  0.76474  0.87951  0.73613  1.0000
  H   H23       1.0  0.33271  0.35232  0.34976  1.0000
  H   H24       1.0  0.66729  0.64768  0.65024  1.0000
  H   H25       1.0  0.29964  0.06231  0.99542  1.0000
  H   H26       1.0  0.70036  0.93769  0.00458  1.0000
  H   H27       1.0  0.05516  0.94698  0.83676  1.0000
  H   H28       1.0  0.94484  0.05302  0.16324  1.0000
  H   H29       1.0  0.86596  0.74418  0.82895  1.0000
  H   H30       1.0  0.13404  0.25582  0.17105  1.0000
  H   H31       1.0  0.92615  0.67351  0.98573  1.0000
  H   H32       1.0  0.07385  0.32649  0.01427  1.0000
  H   H33       1.0  0.62942  0.04427  0.33053  1.0000
  H   H34       1.0  0.37058  0.95573  0.66947  1.0000
  H   H35       1.0  0.80424  0.92560  0.32398  1.0000
  H   H36       1.0  0.19576  0.07440  0.67602  1.0000
  H   H37       1.0  0.74186  0.73073  0.15179  1.0000
  H   H38       1.0  0.25813  0.26927  0.84821  1.0000
  H   H39       1.0  0.50545  0.66622  0.99278  1.0000
  H   H40       1.0  0.49455  0.33378  0.00722  1.0000
  C   C1        1.0  0.43924  0.74388  0.36522  1.0000
  C   C2        1.0  0.56076  0.25612  0.63478  1.0000
  C   C3        1.0  0.53634  0.69019  0.40064  1.0000
  C   C4        1.0  0.46366  0.30981  0.59936  1.0000
  C   C5        1.0  0.52644  0.57282  0.32812  1.0000
  C   C6        1.0  0.47356  0.42718  0.67188  1.0000
  C   C7        1.0  0.41911  0.51839  0.22026  1.0000
  C   C8        1.0  0.58089  0.48161  0.77974  1.0000
  C   C9        1.0  0.32733  0.57905  0.19176  1.0000
  C   C10       1.0  0.67267  0.42095  0.80824  1.0000
  C   C11       1.0  0.74987  0.56810  0.45016  1.0000
  C   C12       1.0  0.25013  0.43190  0.54984  1.0000
  C   C13       1.0  0.85669  0.68755  0.47306  1.0000
  C   C14       1.0  0.14331  0.31245  0.52694  1.0000
  C   C15       1.0  0.98629  0.74134  0.56618  1.0000
  C   C16       1.0  0.01371  0.25866  0.43382  1.0000
  C   C17       1.0  0.91854  0.56890  0.60954  1.0000
  C   C18       1.0  0.08146  0.43111  0.39046  1.0000
  C   C19       1.0  0.78477  0.50661  0.51921  1.0000
  C   C20       1.0  0.21523  0.49339  0.48079  1.0000
  C   C21       1.0  0.55304  0.37634  0.30719  1.0000
  C   C22       1.0  0.44696  0.62367  0.69281  1.0000
  C   C23       1.0  0.64685  0.31780  0.25719  1.0000
  C   C24       1.0  0.35315  0.68220  0.74281  1.0000
  C   C25       1.0  0.59176  0.18900  0.20796  1.0000
  C   C26       1.0  0.40824  0.81100  0.79204  1.0000
  C   C27       1.0  0.44288  0.11783  0.20921  1.0000
  C   C28       1.0  0.55712  0.88217  0.79078  1.0000
  C   C29       1.0  0.34892  0.17668  0.25991  1.0000
  C   C30       1.0  0.65108  0.82332  0.74009  1.0000
  C   C31       1.0  0.40390  0.30566  0.30867  1.0000
  C   C32       1.0  0.59610  0.69434  0.69133  1.0000
  C   C33       1.0  0.24063  0.92701  0.07135  1.0000
  C   C34       1.0  0.75937  0.07299  0.92865  1.0000
  C   C35       1.0  0.21270  0.97626  0.99014  1.0000
  C   C36       1.0  0.78730  0.02374  0.00986  1.0000
  C   C37       1.0  0.07668  0.91147  0.90225  1.0000
  C   C38       1.0  0.92332  0.08853  0.09775  1.0000
  C   C39       1.0  0.97183  0.79941  0.89760  1.0000
  C   C40       1.0  0.02817  0.20059  0.10240  1.0000
  C   C41       1.0  0.00499  0.75901  0.98342  1.0000
  C   C42       1.0  0.99501  0.24099  0.01658  1.0000
  C   C43       1.0  0.48227  0.91975  0.16061  1.0000
  C   C44       1.0  0.51773  0.08025  0.83939  1.0000
  C   C45       1.0  0.60838  0.96205  0.25582  1.0000
  C   C46       1.0  0.39162  0.03795  0.74418  1.0000
  C   C47       1.0  0.70460  0.89498  0.25190  1.0000
  C   C48       1.0  0.29540  0.10502  0.74810  1.0000
  C   C49       1.0  0.67097  0.78713  0.15633  1.0000
  C   C50       1.0  0.32903  0.21287  0.84367  1.0000
  C   C51       1.0  0.54017  0.75136  0.06827  1.0000
  C   C52       1.0  0.45983  0.24864  0.93173  1.0000
  I   I1        1.0  0.88112  0.54312  0.14251  1.0000
  I   I2        1.0  0.11888  0.45688  0.85749  1.0000
  I   I3        1.0  0.17939  0.96283  0.41073  1.0000
  I   I4        1.0  0.82061  0.03717  0.58927  1.0000
  N   N1        1.0  0.33450  0.68990  0.26304  1.0000
  N   N2        1.0  0.66550  0.31010  0.73696  1.0000
  N   N3        1.0  0.61219  0.50926  0.36058  1.0000
  N   N4        1.0  0.38781  0.49074  0.63942  1.0000
  N   N5        1.0  0.01824  0.68553  0.63542  1.0000
  N   N6        1.0  0.98176  0.31448  0.36458  1.0000
  N   N7        1.0  0.13537  0.82222  0.06979  1.0000
  N   N8        1.0  0.86463  0.17778  0.93021  1.0000
  N   N9        1.0  0.38269  0.98573  0.15721  1.0000
  N   N10       1.0  0.61731  0.01427  0.84279  1.0000
  N   N11       1.0  0.44873  0.81679  0.06860  1.0000
  N   N12       1.0  0.55127  0.18321  0.93140  1.0000
