data_image0
_chemical_formula_structural       Cd2H40C52Br4N12
_chemical_formula_sum              "Cd2 H40 C52 Br4 N12"
_cell_length_a       9.35307
_cell_length_b       12.1232
_cell_length_c       12.5763
_cell_angle_alpha    108.352
_cell_angle_beta     98.6209
_cell_angle_gamma    108.332

_space_group_name_H-M_alt    "P 1"
_space_group_IT_number       1

loop_
  _space_group_symop_operation_xyz
  'x, y, z'

loop_
  _atom_site_type_symbol
  _atom_site_label
  _atom_site_symmetry_multiplicity
  _atom_site_fract_x
  _atom_site_fract_y
  _atom_site_fract_z
  _atom_site_occupancy
  Cd  Cd1       1.0  0.36508  0.73322  0.77027  1.0000
  Cd  Cd2       1.0  0.63492  0.26678  0.22973  1.0000
  H   H1        1.0  0.28033  0.96304  0.88673  1.0000
  H   H2        1.0  0.71967  0.03696  0.11327  1.0000
  H   H3        1.0  0.10873  0.07119  0.84087  1.0000
  H   H4        1.0  0.89126  0.92881  0.15913  1.0000
  H   H5        1.0  0.86901  0.74745  0.51462  1.0000
  H   H6        1.0  0.13099  0.25255  0.48538  1.0000
  H   H7        1.0  0.05176  0.65614  0.57220  1.0000
  H   H8        1.0  0.94824  0.34386  0.42781  1.0000
  H   H9        1.0  0.78024  0.07640  0.49208  1.0000
  H   H10       1.0  0.21975  0.92360  0.50792  1.0000
  H   H11       1.0  0.53346  0.96289  0.33114  1.0000
  H   H12       1.0  0.46654  0.03711  0.66886  1.0000
  H   H13       1.0  0.41478  0.65419  0.42536  1.0000
  H   H14       1.0  0.58522  0.34581  0.57464  1.0000
  H   H15       1.0  0.65216  0.75373  0.58975  1.0000
  H   H16       1.0  0.34783  0.24627  0.41025  1.0000
  H   H17       1.0  0.74756  0.12224  0.76449  1.0000
  H   H18       1.0  0.25244  0.87776  0.23551  1.0000
  H   H19       1.0  0.84643  0.35503  0.84857  1.0000
  H   H20       1.0  0.15357  0.64497  0.15143  1.0000
  H   H21       1.0  0.25008  0.37603  0.71763  1.0000
  H   H22       1.0  0.74992  0.62397  0.28237  1.0000
  H   H23       1.0  0.15077  0.14048  0.63412  1.0000
  H   H24       1.0  0.84923  0.85952  0.36588  1.0000
  H   H25       1.0  0.20000  0.43793  0.01069  1.0000
  H   H26       1.0  0.80000  0.56207  0.98931  1.0000
  H   H27       1.0  0.44862  0.55302  0.17277  1.0000
  H   H28       1.0  0.55138  0.44698  0.82723  1.0000
  H   H29       1.0  0.64443  0.75400  0.17698  1.0000
  H   H30       1.0  0.35557  0.24600  0.82302  1.0000
  H   H31       1.0  0.58623  0.82277  0.01250  1.0000
  H   H32       1.0  0.41377  0.17723  0.98750  1.0000
  H   H33       1.0  0.85956  0.44859  0.66981  1.0000
  H   H34       1.0  0.14044  0.55141  0.33019  1.0000
  H   H35       1.0  0.69010  0.57252  0.67580  1.0000
  H   H36       1.0  0.30990  0.42748  0.32420  1.0000
  H   H37       1.0  0.76736  0.77696  0.84791  1.0000
  H   H38       1.0  0.23264  0.22304  0.15209  1.0000
  H   H39       1.0  0.01226  0.84512  0.00725  1.0000
  H   H40       1.0  0.98774  0.15488  0.99274  1.0000
  C   C1        1.0  0.18914  0.91988  0.80406  1.0000
  C   C2        1.0  0.81086  0.08012  0.19594  1.0000
  C   C3        1.0  0.09284  0.97955  0.77843  1.0000
  C   C4        1.0  0.90716  0.02045  0.22157  1.0000
  C   C5        1.0  0.97408  0.92087  0.67172  1.0000
  C   C6        1.0  0.02592  0.07913  0.32828  1.0000
  C   C7        1.0  0.95827  0.80039  0.59768  1.0000
  C   C8        1.0  0.04173  0.19961  0.40232  1.0000
  C   C9        1.0  0.06099  0.74830  0.62983  1.0000
  C   C10       1.0  0.93901  0.25170  0.37017  1.0000
  C   C11       1.0  0.74097  0.92246  0.55229  1.0000
  C   C12       1.0  0.25902  0.07754  0.44771  1.0000
  C   C13       1.0  0.70264  0.98215  0.47938  1.0000
  C   C14       1.0  0.29736  0.01785  0.52062  1.0000
  C   C15       1.0  0.56394  0.91810  0.38944  1.0000
  C   C16       1.0  0.43606  0.08190  0.61056  1.0000
  C   C17       1.0  0.49861  0.74744  0.44041  1.0000
  C   C18       1.0  0.50139  0.25256  0.55959  1.0000
  C   C19       1.0  0.63345  0.80290  0.53333  1.0000
  C   C20       1.0  0.36655  0.19710  0.46667  1.0000
  C   C21       1.0  0.94328  0.11811  0.69428  1.0000
  C   C22       1.0  0.05672  0.88189  0.30572  1.0000
  C   C23       1.0  0.85678  0.17793  0.75358  1.0000
  C   C24       1.0  0.14322  0.82207  0.24642  1.0000
  C   C25       1.0  0.91303  0.30869  0.80111  1.0000
  C   C26       1.0  0.08697  0.69131  0.19889  1.0000
  C   C27       1.0  0.05551  0.37970  0.78951  1.0000
  C   C28       1.0  0.94449  0.62030  0.21049  1.0000
  C   C29       1.0  0.14202  0.31949  0.72959  1.0000
  C   C30       1.0  0.85798  0.68051  0.27041  1.0000
  C   C31       1.0  0.08575  0.18871  0.68212  1.0000
  C   C32       1.0  0.91425  0.81129  0.31788  1.0000
  C   C33       1.0  0.26271  0.57220  0.92970  1.0000
  C   C34       1.0  0.73729  0.42780  0.07030  1.0000
  C   C35       1.0  0.28934  0.52343  0.01460  1.0000
  C   C36       1.0  0.71066  0.47657  0.98540  1.0000
  C   C37       1.0  0.42766  0.58804  0.10443  1.0000
  C   C38       1.0  0.57234  0.41196  0.89557  1.0000
  C   C39       1.0  0.53623  0.69921  0.10711  1.0000
  C   C40       1.0  0.46377  0.30080  0.89289  1.0000
  C   C41       1.0  0.50435  0.73871  0.01730  1.0000
  C   C42       1.0  0.49564  0.26129  0.98270  1.0000
  C   C43       1.0  0.02024  0.58123  0.83907  1.0000
  C   C44       1.0  0.97975  0.41877  0.16093  1.0000
  C   C45       1.0  0.88753  0.53551  0.74412  1.0000
  C   C46       1.0  0.11247  0.46449  0.25588  1.0000
  C   C47       1.0  0.79410  0.60521  0.74795  1.0000
  C   C48       1.0  0.20590  0.39479  0.25205  1.0000
  C   C49       1.0  0.83599  0.71841  0.84349  1.0000
  C   C50       1.0  0.16401  0.28159  0.15651  1.0000
  C   C51       1.0  0.97175  0.75635  0.93165  1.0000
  C   C52       1.0  0.02825  0.24365  0.06835  1.0000
  Br  Br1       1.0  0.32711  0.53739  0.59325  1.0000
  Br  Br2       1.0  0.67289  0.46261  0.40675  1.0000
  Br  Br3       1.0  0.61315  0.94112  0.85430  1.0000
  Br  Br4       1.0  0.38685  0.05888  0.14570  1.0000
  N   N1        1.0  0.17641  0.80631  0.73066  1.0000
  N   N2        1.0  0.82359  0.19369  0.26935  1.0000
  N   N3        1.0  0.88313  0.98325  0.64181  1.0000
  N   N4        1.0  0.11688  0.01675  0.35819  1.0000
  N   N5        1.0  0.46259  0.80154  0.36771  1.0000
  N   N6        1.0  0.53741  0.19846  0.63229  1.0000
  N   N7        1.0  0.37152  0.67571  0.92921  1.0000
  N   N8        1.0  0.62848  0.32429  0.07079  1.0000
  N   N9        1.0  0.11867  0.51394  0.84174  1.0000
  N   N10       1.0  0.88133  0.48606  0.15827  1.0000
  N   N11       1.0  0.06128  0.68896  0.93119  1.0000
  N   N12       1.0  0.93872  0.31104  0.06881  1.0000
