data_image0
_chemical_formula_structural       Hg2H40C52Br4N12
_chemical_formula_sum              "Hg2 H40 C52 Br4 N12"
_cell_length_a       7.02638
_cell_length_b       9.0981
_cell_length_c       21.5095
_cell_angle_alpha    92.2695
_cell_angle_beta     90
_cell_angle_gamma    112.715

_space_group_name_H-M_alt    "P 1"
_space_group_IT_number       1

loop_
  _space_group_symop_operation_xyz
  'x, y, z'

loop_
  _atom_site_type_symbol
  _atom_site_label
  _atom_site_symmetry_multiplicity
  _atom_site_fract_x
  _atom_site_fract_y
  _atom_site_fract_z
  _atom_site_occupancy
  Hg  Hg1       1.0  0.40266  0.99992  0.24995  1.0000
  Hg  Hg2       1.0  0.59734  0.00008  0.75004  1.0000
  H   H1        1.0  0.02135  0.87236  0.33647  1.0000
  H   H2        1.0  0.14866  0.12712  0.16360  1.0000
  H   H3        1.0  0.97865  0.12764  0.66353  1.0000
  H   H4        1.0  0.85134  0.87289  0.83640  1.0000
  H   H5        1.0  0.76700  0.93271  0.39898  1.0000
  H   H6        1.0  0.83420  0.06700  0.10103  1.0000
  H   H7        1.0  0.23301  0.06729  0.60103  1.0000
  H   H8        1.0  0.16580  0.93300  0.89897  1.0000
  H   H9        1.0  0.10166  0.43240  0.35807  1.0000
  H   H10       1.0  0.66870  0.56722  0.14191  1.0000
  H   H11       1.0  0.89834  0.56759  0.64193  1.0000
  H   H12       1.0  0.33130  0.43279  0.85809  1.0000
  H   H13       1.0  0.33590  0.34533  0.29506  1.0000
  H   H14       1.0  0.99000  0.65407  0.20490  1.0000
  H   H15       1.0  0.66410  0.65466  0.70494  1.0000
  H   H16       1.0  0.01000  0.34594  0.79510  1.0000
  H   H17       1.0  0.75679  0.40618  0.52420  1.0000
  H   H18       1.0  0.34977  0.59352  0.97571  1.0000
  H   H19       1.0  0.24322  0.59382  0.47580  1.0000
  H   H20       1.0  0.65024  0.40648  0.02429  1.0000
  H   H21       1.0  0.73009  0.67128  0.52154  1.0000
  H   H22       1.0  0.05817  0.32839  0.97845  1.0000
  H   H23       1.0  0.26990  0.32872  0.47846  1.0000
  H   H24       1.0  0.94183  0.67161  0.02155  1.0000
  H   H25       1.0  0.70526  0.65133  0.32908  1.0000
  H   H26       1.0  0.05393  0.34843  0.17089  1.0000
  H   H27       1.0  0.29473  0.34866  0.67092  1.0000
  H   H28       1.0  0.94606  0.65157  0.82911  1.0000
  H   H29       1.0  0.74456  0.39076  0.32282  1.0000
  H   H30       1.0  0.35380  0.60897  0.17709  1.0000
  H   H31       1.0  0.25544  0.60924  0.67718  1.0000
  H   H32       1.0  0.64620  0.39103  0.82291  1.0000
  H   H33       1.0  0.36905  0.11114  0.41398  1.0000
  H   H34       1.0  0.25810  0.88886  0.08604  1.0000
  H   H35       1.0  0.63096  0.88886  0.58602  1.0000
  H   H36       1.0  0.74189  0.11114  0.91395  1.0000
  H   H37       1.0  0.87908  0.09129  0.51922  1.0000
  H   H38       1.0  0.78747  0.90846  0.98061  1.0000
  H   H39       1.0  0.12093  0.90871  0.48078  1.0000
  H   H40       1.0  0.21252  0.09154  0.01939  1.0000
  C   C1        1.0  0.03175  0.99505  0.34195  1.0000
  C   C2        1.0  0.03645  0.00443  0.15805  1.0000
  C   C3        1.0  0.96825  0.00494  0.65805  1.0000
  C   C4        1.0  0.96355  0.99557  0.84195  1.0000
  C   C5        1.0  0.88943  0.03019  0.37733  1.0000
  C   C6        1.0  0.85909  0.96942  0.12263  1.0000
  C   C7        1.0  0.11057  0.96980  0.62267  1.0000
  C   C8        1.0  0.14092  0.03058  0.87737  1.0000
  C   C9        1.0  0.91038  0.19040  0.38526  1.0000
  C   C10       1.0  0.71977  0.80926  0.11466  1.0000
  C   C11       1.0  0.08962  0.80960  0.61474  1.0000
  C   C12       1.0  0.28023  0.19075  0.88534  1.0000
  C   C13       1.0  0.07519  0.30629  0.35464  1.0000
  C   C14       1.0  0.76846  0.69330  0.14532  1.0000
  C   C15       1.0  0.92480  0.69371  0.64536  1.0000
  C   C16       1.0  0.23154  0.30671  0.85468  1.0000
  C   C17       1.0  0.20792  0.25829  0.31937  1.0000
  C   C18       1.0  0.94912  0.74118  0.18061  1.0000
  C   C19       1.0  0.79208  0.74170  0.68063  1.0000
  C   C20       1.0  0.05088  0.25883  0.81939  1.0000
  C   C21       1.0  0.75966  0.37964  0.42346  1.0000
  C   C22       1.0  0.37968  0.62011  0.07645  1.0000
  C   C23       1.0  0.24033  0.62036  0.57654  1.0000
  C   C24       1.0  0.62033  0.37989  0.92355  1.0000
  C   C25       1.0  0.75134  0.45885  0.47994  1.0000
  C   C26       1.0  0.29184  0.54089  0.01999  1.0000
  C   C27       1.0  0.24867  0.54115  0.52006  1.0000
  C   C28       1.0  0.70816  0.45911  0.98001  1.0000
  C   C29       1.0  0.73414  0.60609  0.47812  1.0000
  C   C30       1.0  0.12755  0.39358  0.02185  1.0000
  C   C31       1.0  0.26586  0.39391  0.52188  1.0000
  C   C32       1.0  0.87246  0.60642  0.97815  1.0000
  C   C33       1.0  0.72429  0.59625  0.37162  1.0000
  C   C34       1.0  0.12783  0.40348  0.12833  1.0000
  C   C35       1.0  0.27571  0.40375  0.62838  1.0000
  C   C36       1.0  0.87217  0.59652  0.87167  1.0000
  C   C37       1.0  0.74521  0.45023  0.36791  1.0000
  C   C38       1.0  0.29480  0.54950  0.13201  1.0000
  C   C39       1.0  0.25479  0.54977  0.63208  1.0000
  C   C40       1.0  0.70520  0.45050  0.86799  1.0000
  C   C41       1.0  0.63769  0.11299  0.46272  1.0000
  C   C42       1.0  0.52465  0.88682  0.03722  1.0000
  C   C43       1.0  0.36231  0.88701  0.53728  1.0000
  C   C44       1.0  0.47534  0.11318  0.96278  1.0000
  C   C45       1.0  0.42509  0.06332  0.45229  1.0000
  C   C46       1.0  0.36198  0.93671  0.04773  1.0000
  C   C47       1.0  0.57491  0.93668  0.54771  1.0000
  C   C48       1.0  0.63802  0.06329  0.95227  1.0000
  C   C49       1.0  0.71327  0.04996  0.51059  1.0000
  C   C50       1.0  0.66311  0.94986  0.98930  1.0000
  C   C51       1.0  0.28673  0.95004  0.48941  1.0000
  C   C52       1.0  0.33688  0.05014  0.01070  1.0000
  Br  Br1       1.0  0.36215  0.74427  0.30203  1.0000
  Br  Br2       1.0  0.61857  0.25532  0.19789  1.0000
  Br  Br3       1.0  0.63784  0.25572  0.69796  1.0000
  Br  Br4       1.0  0.38143  0.74468  0.80211  1.0000
  N   N1        1.0  0.19010  0.10571  0.31334  1.0000
  N   N2        1.0  0.08404  0.89372  0.18664  1.0000
  N   N3        1.0  0.80989  0.89428  0.68666  1.0000
  N   N4        1.0  0.91596  0.10628  0.81336  1.0000
  N   N5        1.0  0.77598  0.22936  0.42334  1.0000
  N   N6        1.0  0.54645  0.77032  0.07655  1.0000
  N   N7        1.0  0.22401  0.77064  0.57666  1.0000
  N   N8        1.0  0.45355  0.22968  0.92345  1.0000
  N   N9        1.0  0.72020  0.67552  0.42538  1.0000
  N   N10       1.0  0.04430  0.32416  0.07461  1.0000
  N   N11       1.0  0.27980  0.32448  0.57462  1.0000
  N   N12       1.0  0.95570  0.67584  0.92539  1.0000
