data_image0
_chemical_formula_structural       Cd2H40C52N4O12
_chemical_formula_sum              "Cd2 H40 C52 N4 O12"
_cell_length_a       7.39779
_cell_length_b       9.4048
_cell_length_c       17.659
_cell_angle_alpha    99.9653
_cell_angle_beta     90
_cell_angle_gamma    113.16

_space_group_name_H-M_alt    "P 1"
_space_group_IT_number       1

loop_
  _space_group_symop_operation_xyz
  'x, y, z'

loop_
  _atom_site_type_symbol
  _atom_site_label
  _atom_site_symmetry_multiplicity
  _atom_site_fract_x
  _atom_site_fract_y
  _atom_site_fract_z
  _atom_site_occupancy
  Cd  Cd1       1.0  0.48682  0.99990  0.75008  1.0000
  Cd  Cd2       1.0  0.51318  0.00010  0.24992  1.0000
  H   H1        1.0  0.78373  0.81646  0.72836  1.0000
  H   H2        1.0  0.96753  0.18276  0.77177  1.0000
  H   H3        1.0  0.21626  0.18353  0.27164  1.0000
  H   H4        1.0  0.03246  0.81724  0.22823  1.0000
  H   H5        1.0  0.74203  0.60884  0.48794  1.0000
  H   H6        1.0  0.13295  0.39161  0.01208  1.0000
  H   H7        1.0  0.25797  0.39116  0.51206  1.0000
  H   H8        1.0  0.86705  0.60839  0.98792  1.0000
  H   H9        1.0  0.49208  0.71755  0.46414  1.0000
  H   H10       1.0  0.77434  0.28299  0.03584  1.0000
  H   H11       1.0  0.50792  0.28245  0.53586  1.0000
  H   H12       1.0  0.22567  0.71701  0.96416  1.0000
  H   H13       1.0  0.40605  0.87951  0.57677  1.0000
  H   H14       1.0  0.52649  0.12054  0.92319  1.0000
  H   H15       1.0  0.59395  0.12049  0.42323  1.0000
  H   H16       1.0  0.47351  0.87946  0.07680  1.0000
  H   H17       1.0  0.06459  0.69655  0.59294  1.0000
  H   H18       1.0  0.36835  0.30348  0.90711  1.0000
  H   H19       1.0  0.93540  0.30344  0.40706  1.0000
  H   H20       1.0  0.63165  0.69652  0.09289  1.0000
  H   H21       1.0  0.98958  0.68220  0.68789  1.0000
  H   H22       1.0  0.30764  0.31812  0.81223  1.0000
  H   H23       1.0  0.01042  0.31780  0.31211  1.0000
  H   H24       1.0  0.69236  0.68188  0.18776  1.0000
  H   H25       1.0  0.74909  0.18035  0.56049  1.0000
  H   H26       1.0  0.56877  0.81978  0.93997  1.0000
  H   H27       1.0  0.25091  0.81964  0.43952  1.0000
  H   H28       1.0  0.43122  0.18022  0.06003  1.0000
  H   H29       1.0  0.94505  0.02551  0.58336  1.0000
  H   H30       1.0  0.91954  0.97455  0.91702  1.0000
  H   H31       1.0  0.05495  0.97448  0.41664  1.0000
  H   H32       1.0  0.08045  0.02545  0.08299  1.0000
  H   H33       1.0  0.41124  0.44866  0.70163  1.0000
  H   H34       1.0  0.96235  0.55153  0.79850  1.0000
  H   H35       1.0  0.58876  0.55134  0.29836  1.0000
  H   H36       1.0  0.03765  0.44848  0.20151  1.0000
  H   H37       1.0  0.22073  0.60432  0.68009  1.0000
  H   H38       1.0  0.61616  0.39585  0.82002  1.0000
  H   H39       1.0  0.77926  0.39568  0.31991  1.0000
  H   H40       1.0  0.38384  0.60415  0.17998  1.0000
  C   C1        1.0  0.72313  0.79270  0.66892  1.0000
  C   C2        1.0  0.93067  0.20678  0.83119  1.0000
  C   C3        1.0  0.27687  0.20729  0.33108  1.0000
  C   C4        1.0  0.06932  0.79321  0.16881  1.0000
  C   C5        1.0  0.78253  0.70431  0.61014  1.0000
  C   C6        1.0  0.07834  0.29546  0.88999  1.0000
  C   C7        1.0  0.21746  0.29569  0.38986  1.0000
  C   C8        1.0  0.92165  0.70454  0.11001  1.0000
  C   C9        1.0  0.69894  0.67717  0.53527  1.0000
  C   C10       1.0  0.02161  0.32294  0.96477  1.0000
  C   C11       1.0  0.30105  0.32282  0.46473  1.0000
  C   C12       1.0  0.97840  0.67706  0.03523  1.0000
  C   C13       1.0  0.56140  0.73880  0.52171  1.0000
  C   C14       1.0  0.82239  0.26138  0.97829  1.0000
  C   C15       1.0  0.43860  0.26121  0.47829  1.0000
  C   C16       1.0  0.17762  0.73862  0.02171  1.0000
  C   C17       1.0  0.51233  0.82744  0.58331  1.0000
  C   C18       1.0  0.68487  0.17249  0.91669  1.0000
  C   C19       1.0  0.48767  0.17256  0.41669  1.0000
  C   C20       1.0  0.31513  0.82750  0.08331  1.0000
  C   C21       1.0  0.93727  0.64624  0.62665  1.0000
  C   C22       1.0  0.29118  0.35381  0.87350  1.0000
  C   C23       1.0  0.06272  0.35376  0.37335  1.0000
  C   C24       1.0  0.70882  0.64619  0.12650  1.0000
  C   C25       1.0  0.97178  0.40180  0.61799  1.0000
  C   C26       1.0  0.56979  0.59833  0.88227  1.0000
  C   C27       1.0  0.02822  0.59820  0.38201  1.0000
  C   C28       1.0  0.43021  0.40167  0.11773  1.0000
  C   C29       1.0  0.89490  0.23810  0.59095  1.0000
  C   C30       1.0  0.65671  0.76202  0.90941  1.0000
  C   C31       1.0  0.10510  0.76190  0.40905  1.0000
  C   C32       1.0  0.34329  0.23798  0.09059  1.0000
  C   C33       1.0  0.00327  0.15225  0.60424  1.0000
  C   C34       1.0  0.85092  0.84784  0.89609  1.0000
  C   C35       1.0  0.99673  0.84775  0.39576  1.0000
  C   C36       1.0  0.14908  0.15216  0.10391  1.0000
  C   C37       1.0  0.18941  0.22664  0.64530  1.0000
  C   C38       1.0  0.96262  0.77344  0.85498  1.0000
  C   C39       1.0  0.81059  0.77336  0.35470  1.0000
  C   C40       1.0  0.03738  0.22657  0.14502  1.0000
  C   C41       1.0  0.26617  0.39028  0.67048  1.0000
  C   C42       1.0  0.87564  0.60985  0.82969  1.0000
  C   C43       1.0  0.73383  0.60972  0.32951  1.0000
  C   C44       1.0  0.12436  0.39016  0.17032  1.0000
  C   C45       1.0  0.15989  0.47853  0.65719  1.0000
  C   C46       1.0  0.68111  0.52163  0.84297  1.0000
  C   C47       1.0  0.84011  0.52147  0.34281  1.0000
  C   C48       1.0  0.31890  0.47837  0.15703  1.0000
  C   C49       1.0  0.29649  0.13204  0.66640  1.0000
  C   C50       1.0  0.16434  0.86808  0.83392  1.0000
  C   C51       1.0  0.70351  0.86796  0.33360  1.0000
  C   C52       1.0  0.83566  0.13192  0.16608  1.0000
  N   N1        1.0  0.59210  0.85394  0.65574  1.0000
  N   N2        1.0  0.73834  0.14571  0.84431  1.0000
  N   N3        1.0  0.40790  0.14606  0.34426  1.0000
  N   N4        1.0  0.26166  0.85429  0.15569  1.0000
  O   O1        1.0  0.85384  0.47654  0.60403  1.0000
  O   O2        1.0  0.37716  0.52348  0.89623  1.0000
  O   O3        1.0  0.14616  0.52346  0.39597  1.0000
  O   O4        1.0  0.62284  0.47652  0.10377  1.0000
  O   O5        1.0  0.46245  0.20720  0.70726  1.0000
  O   O6        1.0  0.25528  0.79294  0.79310  1.0000
  O   O7        1.0  0.53755  0.79280  0.29274  1.0000
  O   O8        1.0  0.74473  0.20706  0.20690  1.0000
  O   O9        1.0  0.21938  0.98307  0.64745  1.0000
  O   O10       1.0  0.23603  0.01703  0.85281  1.0000
  O   O11       1.0  0.78063  0.01693  0.35255  1.0000
  O   O12       1.0  0.76397  0.98297  0.14719  1.0000
