data_image0
_chemical_formula_structural       CdH22C26N2O7
_chemical_formula_sum              "Cd1 H22 C26 N2 O7"
_cell_length_a       5.71525
_cell_length_b       8.13621
_cell_length_c       13.7855
_cell_angle_alpha    76.2824
_cell_angle_beta     79.6269
_cell_angle_gamma    72.0782

_space_group_name_H-M_alt    "P 1"
_space_group_IT_number       1

loop_
  _space_group_symop_operation_xyz
  'x, y, z'

loop_
  _atom_site_type_symbol
  _atom_site_label
  _atom_site_symmetry_multiplicity
  _atom_site_fract_x
  _atom_site_fract_y
  _atom_site_fract_z
  _atom_site_occupancy
  Cd  Cd1       1.0  0.91985  0.49585  0.49972  1.0000
  H   H1        1.0  0.45180  0.89910  0.25912  1.0000
  H   H2        1.0  0.62635  0.07983  0.75110  1.0000
  H   H3        1.0  0.64266  0.90567  0.40481  1.0000
  H   H4        1.0  0.96601  0.07541  0.61006  1.0000
  H   H5        1.0  0.43208  0.13899  0.50858  1.0000
  H   H6        1.0  0.05649  0.84645  0.50202  1.0000
  H   H7        1.0  0.84662  0.33578  0.33651  1.0000
  H   H8        1.0  0.47682  0.65238  0.66022  1.0000
  H   H9        1.0  0.05128  0.01912  0.16753  1.0000
  H   H10       1.0  0.22719  0.98027  0.82274  1.0000
  H   H11       1.0  0.83260  0.22058  0.19302  1.0000
  H   H12       1.0  0.21050  0.77702  0.79857  1.0000
  H   H13       1.0  0.44995  0.38483  0.97773  1.0000
  H   H14       1.0  0.70908  0.60895  0.04183  1.0000
  H   H15       1.0  0.42693  0.44429  0.79276  1.0000
  H   H16       1.0  0.53125  0.57170  0.22272  1.0000
  H   H17       1.0  0.80266  0.23360  0.84789  1.0000
  H   H18       1.0  0.79995  0.79597  0.13285  1.0000
  H   H19       1.0  0.82715  0.16876  0.03155  1.0000
  H   H20       1.0  0.97393  0.84696  0.95381  1.0000
  H   H21       1.0  0.43350  0.44827  0.54477  1.0000
  H   H22       1.0  0.46745  0.52115  0.42766  1.0000
  C   C1        1.0  0.35971  0.99749  0.30545  1.0000
  C   C2        1.0  0.66635  0.98406  0.70252  1.0000
  C   C3        1.0  0.46759  0.00087  0.38755  1.0000
  C   C4        1.0  0.85730  0.98170  0.62365  1.0000
  C   C5        1.0  0.34876  0.12750  0.44616  1.0000
  C   C6        1.0  0.90536  0.85722  0.56330  1.0000
  C   C7        1.0  0.02373  0.23857  0.34924  1.0000
  C   C8        1.0  0.58322  0.74688  0.65234  1.0000
  C   C9        1.0  0.13499  0.12164  0.28429  1.0000
  C   C10       1.0  0.52713  0.86341  0.71852  1.0000
  C   C11       1.0  0.02980  0.14568  0.18841  1.0000
  C   C12       1.0  0.33645  0.84926  0.80832  1.0000
  C   C13       1.0  0.14214  0.27302  0.01560  1.0000
  C   C14       1.0  0.35524  0.73388  0.98706  1.0000
  C   C15       1.0  0.31002  0.35172  0.94794  1.0000
  C   C16       1.0  0.51015  0.65218  0.06339  1.0000
  C   C17       1.0  0.29478  0.38593  0.84570  1.0000
  C   C18       1.0  0.41013  0.62905  0.16349  1.0000
  C   C19       1.0  0.11155  0.34398  0.80831  1.0000
  C   C20       1.0  0.15270  0.68114  0.18981  1.0000
  C   C21       1.0  0.94513  0.26593  0.87662  1.0000
  C   C22       1.0  0.99983  0.75732  0.11273  1.0000
  C   C23       1.0  0.95812  0.23003  0.97991  1.0000
  C   C24       1.0  0.09770  0.78590  0.01184  1.0000
  C   C25       1.0  0.09643  0.38555  0.69792  1.0000
  C   C26       1.0  0.04321  0.65091  0.29717  1.0000
  N   N1        1.0  0.12776  0.24301  0.42823  1.0000
  N   N2        1.0  0.76896  0.74335  0.57682  1.0000
  O   O1        1.0  0.17520  0.24433  0.11415  1.0000
  O   O2        1.0  0.47625  0.75371  0.89195  1.0000
  O   O3        1.0  0.23679  0.47405  0.64189  1.0000
  O   O4        1.0  0.18395  0.61935  0.36683  1.0000
  O   O5        1.0  0.93976  0.33527  0.66460  1.0000
  O   O6        1.0  0.81732  0.65236  0.31723  1.0000
  O   O7        1.0  0.55835  0.44280  0.48345  1.0000
