data_image0
_chemical_formula_structural       Cd2H44C52N4O14
_chemical_formula_sum              "Cd2 H44 C52 N4 O14"
_cell_length_a       6.76362
_cell_length_b       11.8525
_cell_length_c       15.883
_cell_angle_alpha    111.564
_cell_angle_beta     90
_cell_angle_gamma    90

_space_group_name_H-M_alt    "P 1"
_space_group_IT_number       1

loop_
  _space_group_symop_operation_xyz
  'x, y, z'

loop_
  _atom_site_type_symbol
  _atom_site_label
  _atom_site_symmetry_multiplicity
  _atom_site_fract_x
  _atom_site_fract_y
  _atom_site_fract_z
  _atom_site_occupancy
  Cd  Cd1       1.0  0.64102  0.25000  0.75000  1.0000
  Cd  Cd2       1.0  0.35898  0.75000  0.25000  1.0000
  H   H1        1.0  0.69132  0.31827  0.96701  1.0000
  H   H2        1.0  0.69132  0.18173  0.53299  1.0000
  H   H3        1.0  0.30868  0.68173  0.03299  1.0000
  H   H4        1.0  0.30868  0.81827  0.46701  1.0000
  H   H5        1.0  0.75811  0.50159  0.10819  1.0000
  H   H6        1.0  0.75811  0.99841  0.39181  1.0000
  H   H7        1.0  0.24188  0.49841  0.89181  1.0000
  H   H8        1.0  0.24189  0.00159  0.60819  1.0000
  H   H9        1.0  0.82242  0.70040  0.09292  1.0000
  H   H10       1.0  0.82242  0.79960  0.40708  1.0000
  H   H11       1.0  0.17758  0.29960  0.90708  1.0000
  H   H12       1.0  0.17758  0.20040  0.59292  1.0000
  H   H13       1.0  0.72959  0.52185  0.80489  1.0000
  H   H14       1.0  0.72959  0.97815  0.69511  1.0000
  H   H15       1.0  0.27041  0.47815  0.19511  1.0000
  H   H16       1.0  0.27041  0.02185  0.30489  1.0000
  H   H17       1.0  0.77577  0.73297  0.86342  1.0000
  H   H18       1.0  0.77577  0.76704  0.63658  1.0000
  H   H19       1.0  0.22423  0.26703  0.13658  1.0000
  H   H20       1.0  0.22423  0.23297  0.36342  1.0000
  H   H21       1.0  0.77348  0.82192  0.98265  1.0000
  H   H22       1.0  0.77348  0.67808  0.51735  1.0000
  H   H23       1.0  0.22653  0.17808  0.01735  1.0000
  H   H24       1.0  0.22653  0.32192  0.48265  1.0000
  H   H25       1.0  0.04059  0.04769  0.81339  1.0000
  H   H26       1.0  0.04060  0.45231  0.68661  1.0000
  H   H27       1.0  0.95941  0.95231  0.18661  1.0000
  H   H28       1.0  0.95941  0.54769  0.31339  1.0000
  H   H29       1.0  0.86340  0.90452  0.86290  1.0000
  H   H30       1.0  0.86340  0.59548  0.63709  1.0000
  H   H31       1.0  0.13660  0.09548  0.13709  1.0000
  H   H32       1.0  0.13660  0.40452  0.36290  1.0000
  H   H33       1.0  0.41434  0.78763  0.94165  1.0000
  H   H34       1.0  0.41434  0.71237  0.55835  1.0000
  H   H35       1.0  0.58566  0.21237  0.05835  1.0000
  H   H36       1.0  0.58566  0.28763  0.44165  1.0000
  H   H37       1.0  0.59246  0.94108  0.89568  1.0000
  H   H38       1.0  0.59246  0.55892  0.60432  1.0000
  H   H39       1.0  0.40754  0.05892  0.10432  1.0000
  H   H40       1.0  0.40754  0.44108  0.39568  1.0000
  H   H41       1.0  0.10451  0.18873  0.75520  1.0000
  H   H42       1.0  0.10451  0.31127  0.74480  1.0000
  H   H43       1.0  0.89549  0.81127  0.24480  1.0000
  H   H44       1.0  0.89549  0.68873  0.25520  1.0000
  C   C1        1.0  0.71450  0.40794  0.96447  1.0000
  C   C2        1.0  0.71450  0.09206  0.53553  1.0000
  C   C3        1.0  0.28550  0.59206  0.03553  1.0000
  C   C4        1.0  0.28550  0.90794  0.46447  1.0000
  C   C5        1.0  0.75416  0.50927  0.04197  1.0000
  C   C6        1.0  0.75416  0.99073  0.45803  1.0000
  C   C7        1.0  0.24584  0.49073  0.95803  1.0000
  C   C8        1.0  0.24584  0.00927  0.54197  1.0000
  C   C9        1.0  0.78865  0.62038  0.03326  1.0000
  C   C10       1.0  0.78865  0.87961  0.46674  1.0000
  C   C11       1.0  0.21135  0.37962  0.96674  1.0000
  C   C12       1.0  0.21135  0.12038  0.53326  1.0000
  C   C13       1.0  0.78284  0.62680  0.94704  1.0000
  C   C14       1.0  0.78284  0.87320  0.55296  1.0000
  C   C15       1.0  0.21716  0.37320  0.05296  1.0000
  C   C16       1.0  0.21716  0.12680  0.44704  1.0000
  C   C17       1.0  0.73794  0.52151  0.87353  1.0000
  C   C18       1.0  0.73794  0.97849  0.62647  1.0000
  C   C19       1.0  0.26206  0.47849  0.12647  1.0000
  C   C20       1.0  0.26206  0.02151  0.37353  1.0000
  C   C21       1.0  0.83334  0.73961  0.92997  1.0000
  C   C22       1.0  0.83334  0.76039  0.57003  1.0000
  C   C23       1.0  0.16666  0.26039  0.07003  1.0000
  C   C24       1.0  0.16666  0.23961  0.42997  1.0000
  C   C25       1.0  0.12519  0.99056  0.84052  1.0000
  C   C26       1.0  0.12519  0.50944  0.65948  1.0000
  C   C27       1.0  0.87481  0.00944  0.15948  1.0000
  C   C28       1.0  0.87481  0.49056  0.34052  1.0000
  C   C29       1.0  0.02356  0.90846  0.86861  1.0000
  C   C30       1.0  0.02356  0.59154  0.63139  1.0000
  C   C31       1.0  0.97644  0.09154  0.13139  1.0000
  C   C32       1.0  0.97644  0.40846  0.36861  1.0000
  C   C33       1.0  0.12922  0.83349  0.90338  1.0000
  C   C34       1.0  0.12922  0.66651  0.59662  1.0000
  C   C35       1.0  0.87078  0.16651  0.09662  1.0000
  C   C36       1.0  0.87078  0.33349  0.40338  1.0000
  C   C37       1.0  0.33544  0.84454  0.91243  1.0000
  C   C38       1.0  0.33544  0.65546  0.58757  1.0000
  C   C39       1.0  0.66456  0.15546  0.08757  1.0000
  C   C40       1.0  0.66456  0.34454  0.41243  1.0000
  C   C41       1.0  0.43362  0.92877  0.88623  1.0000
  C   C42       1.0  0.43362  0.57123  0.61377  1.0000
  C   C43       1.0  0.56638  0.07123  0.11376  1.0000
  C   C44       1.0  0.56638  0.42877  0.38623  1.0000
  C   C45       1.0  0.33118  0.00190  0.84849  1.0000
  C   C46       1.0  0.33118  0.49810  0.65151  1.0000
  C   C47       1.0  0.66882  0.99810  0.15150  1.0000
  C   C48       1.0  0.66882  0.50190  0.34849  1.0000
  C   C49       1.0  0.44024  0.08786  0.81653  1.0000
  C   C50       1.0  0.44024  0.41214  0.68348  1.0000
  C   C51       1.0  0.55976  0.91214  0.18347  1.0000
  C   C52       1.0  0.55976  0.58786  0.31652  1.0000
  N   N1        1.0  0.70411  0.41450  0.88185  1.0000
  N   N2        1.0  0.70411  0.08550  0.61815  1.0000
  N   N3        1.0  0.29589  0.58550  0.11815  1.0000
  N   N4        1.0  0.29589  0.91450  0.38185  1.0000
  O   O1        1.0  0.04615  0.74757  0.93038  1.0000
  O   O2        1.0  0.04615  0.75243  0.56962  1.0000
  O   O3        1.0  0.95385  0.25243  0.06962  1.0000
  O   O4        1.0  0.95385  0.24757  0.43038  1.0000
  O   O5        1.0  0.62278  0.10997  0.83632  1.0000
  O   O6        1.0  0.62278  0.39003  0.66368  1.0000
  O   O7        1.0  0.37722  0.89003  0.16368  1.0000
  O   O8        1.0  0.37722  0.60997  0.33632  1.0000
  O   O9        1.0  0.34693  0.13600  0.76793  1.0000
  O   O10       1.0  0.34693  0.36400  0.73207  1.0000
  O   O11       1.0  0.65307  0.86400  0.23207  1.0000
  O   O12       1.0  0.65307  0.63600  0.26793  1.0000
  O   O13       1.0  0.01080  0.25000  0.75000  1.0000
  O   O14       1.0  0.98920  0.75000  0.25000  1.0000
