data_image0
_chemical_formula_structural       Cu2H12C8O10
_chemical_formula_sum              "Cu2 H12 C8 O10"
_cell_length_a       6.76537
_cell_length_b       7.22438
_cell_length_c       7.90862
_cell_angle_alpha    67.8548
_cell_angle_beta     72.5944
_cell_angle_gamma    65.5178

_space_group_name_H-M_alt    "P 1"
_space_group_IT_number       1

loop_
  _space_group_symop_operation_xyz
  'x, y, z'

loop_
  _atom_site_type_symbol
  _atom_site_label
  _atom_site_symmetry_multiplicity
  _atom_site_fract_x
  _atom_site_fract_y
  _atom_site_fract_z
  _atom_site_occupancy
  Cu  Cu1       1.0  0.62126  0.81777  0.97546  1.0000
  Cu  Cu2       1.0  0.37875  0.18221  0.02454  1.0000
  H   H1        1.0  0.71247  0.44047  0.90580  1.0000
  H   H2        1.0  0.28752  0.55953  0.09421  1.0000
  H   H3        1.0  0.95286  0.42818  0.89237  1.0000
  H   H4        1.0  0.04714  0.57180  0.10764  1.0000
  H   H5        1.0  0.90821  0.41347  0.61790  1.0000
  H   H6        1.0  0.09179  0.58653  0.38210  1.0000
  H   H7        1.0  0.88124  0.29758  0.46910  1.0000
  H   H8        1.0  0.11876  0.70243  0.53090  1.0000
  H   H9        1.0  0.19688  0.96505  0.58074  1.0000
  H   H10       1.0  0.80312  0.03495  0.41925  1.0000
  H   H11       1.0  0.27280  0.19222  0.46144  1.0000
  H   H12       1.0  0.72720  0.80778  0.53856  1.0000
  C   C1        1.0  0.77910  0.16010  0.75314  1.0000
  C   C2        1.0  0.22089  0.83991  0.24686  1.0000
  C   C3        1.0  0.93411  0.26143  0.60044  1.0000
  C   C4        1.0  0.06589  0.73858  0.39956  1.0000
  C   C5        1.0  0.17535  0.12025  0.58900  1.0000
  C   C6        1.0  0.82465  0.87975  0.41100  1.0000
  C   C7        1.0  0.28468  0.08088  0.74671  1.0000
  C   C8        1.0  0.71533  0.91912  0.25328  1.0000
  O   O1        1.0  0.82393  0.96196  0.78836  1.0000
  O   O2        1.0  0.17608  0.03805  0.21163  1.0000
  O   O3        1.0  0.61165  0.28515  0.83219  1.0000
  O   O4        1.0  0.38833  0.71485  0.16780  1.0000
  O   O5        1.0  0.44006  0.90393  0.78457  1.0000
  O   O6        1.0  0.55996  0.09607  0.21542  1.0000
  O   O7        1.0  0.22167  0.22661  0.82553  1.0000
  O   O8        1.0  0.77834  0.77338  0.17448  1.0000
  O   O9        1.0  0.79761  0.50505  0.93310  1.0000
  O   O10       1.0  0.20239  0.49494  0.06691  1.0000
