data_image0
_chemical_formula_structural       Cd2H48C52N4O16
_chemical_formula_sum              "Cd2 H48 C52 N4 O16"
_cell_length_a       5.58434
_cell_length_b       13.87
_cell_length_c       15.52
_cell_angle_alpha    90
_cell_angle_beta     90
_cell_angle_gamma    96.8752

_space_group_name_H-M_alt    "P 1"
_space_group_IT_number       1

loop_
  _space_group_symop_operation_xyz
  'x, y, z'

loop_
  _atom_site_type_symbol
  _atom_site_label
  _atom_site_symmetry_multiplicity
  _atom_site_fract_x
  _atom_site_fract_y
  _atom_site_fract_z
  _atom_site_occupancy
  Cd  Cd1       1.0  0.20029  0.21028  0.64529  1.0000
  Cd  Cd2       1.0  0.79971  0.78971  0.14529  1.0000
  H   H1        1.0  0.89874  0.44648  0.67218  1.0000
  H   H2        1.0  0.10124  0.55351  0.17218  1.0000
  H   H3        1.0  0.13295  0.61112  0.66974  1.0000
  H   H4        1.0  0.86703  0.38888  0.16974  1.0000
  H   H5        1.0  0.56233  0.72436  0.81146  1.0000
  H   H6        1.0  0.43767  0.27565  0.31146  1.0000
  H   H7        1.0  0.32988  0.56079  0.80896  1.0000
  H   H8        1.0  0.67011  0.43921  0.30896  1.0000
  H   H9        1.0  0.88977  0.81936  0.85924  1.0000
  H   H10       1.0  0.11021  0.18064  0.35924  1.0000
  H   H11       1.0  0.77067  0.86169  0.76096  1.0000
  H   H12       1.0  0.22932  0.13830  0.26095  1.0000
  H   H13       1.0  0.94668  0.00934  0.70024  1.0000
  H   H14       1.0  0.05331  0.99066  0.20023  1.0000
  H   H15       1.0  0.60872  0.14829  0.78033  1.0000
  H   H16       1.0  0.39127  0.85170  0.28033  1.0000
  H   H17       1.0  0.67365  0.01088  0.87874  1.0000
  H   H18       1.0  0.32634  0.98912  0.37874  1.0000
  H   H19       1.0  0.36117  0.86610  0.88481  1.0000
  H   H20       1.0  0.63882  0.13391  0.38480  1.0000
  H   H21       1.0  0.50323  0.97890  0.61503  1.0000
  H   H22       1.0  0.49679  0.02110  0.11502  1.0000
  H   H23       1.0  0.25197  0.81809  0.61262  1.0000
  H   H24       1.0  0.74805  0.18191  0.11261  1.0000
  H   H25       1.0  0.76616  0.71024  0.43988  1.0000
  H   H26       1.0  0.23385  0.28975  0.93987  1.0000
  H   H27       1.0  0.01179  0.86971  0.44325  1.0000
  H   H28       1.0  0.98822  0.13029  0.94325  1.0000
  H   H29       1.0  0.59942  0.57098  0.52368  1.0000
  H   H30       1.0  0.40060  0.42902  0.02367  1.0000
  H   H31       1.0  0.47714  0.60036  0.42208  1.0000
  H   H32       1.0  0.52287  0.39965  0.92208  1.0000
  H   H33       1.0  0.98422  0.55405  0.41081  1.0000
  H   H34       1.0  0.01580  0.44595  0.91081  1.0000
  H   H35       1.0  0.68187  0.40702  0.43104  1.0000
  H   H36       1.0  0.31814  0.59298  0.93105  1.0000
  H   H37       1.0  0.78244  0.27239  0.52358  1.0000
  H   H38       1.0  0.21757  0.72761  0.02358  1.0000
  H   H39       1.0  0.45225  0.41945  0.58370  1.0000
  H   H40       1.0  0.54774  0.58054  0.08370  1.0000
  H   H41       1.0  0.79105  0.28576  0.72858  1.0000
  H   H42       1.0  0.20895  0.71425  0.22858  1.0000
  H   H43       1.0  0.05086  0.30620  0.77526  1.0000
  H   H44       1.0  0.94914  0.69380  0.27526  1.0000
  H   H45       1.0  0.59662  0.13374  0.55865  1.0000
  H   H46       1.0  0.40338  0.86626  0.05865  1.0000
  H   H47       1.0  0.33372  0.11493  0.51178  1.0000
  H   H48       1.0  0.66630  0.88507  0.01178  1.0000
  C   C1        1.0  0.45195  0.39536  0.75011  1.0000
  C   C2        1.0  0.54804  0.60464  0.25011  1.0000
  C   C3        1.0  0.60190  0.49193  0.74525  1.0000
  C   C4        1.0  0.39809  0.50807  0.24525  1.0000
  C   C5        1.0  0.82668  0.50707  0.70345  1.0000
  C   C6        1.0  0.17331  0.49293  0.20345  1.0000
  C   C7        1.0  0.95954  0.59837  0.70254  1.0000
  C   C8        1.0  0.04044  0.40163  0.20254  1.0000
  C   C9        1.0  0.87087  0.67650  0.74485  1.0000
  C   C10       1.0  0.12911  0.32351  0.24485  1.0000
  C   C11       1.0  0.64109  0.66390  0.78273  1.0000
  C   C12       1.0  0.35890  0.33610  0.28273  1.0000
  C   C13       1.0  0.51061  0.57209  0.78208  1.0000
  C   C14       1.0  0.48938  0.42792  0.28207  1.0000
  C   C15       1.0  0.93438  0.84166  0.79239  1.0000
  C   C16       1.0  0.06562  0.15835  0.29239  1.0000
  C   C17       1.0  0.13018  0.92537  0.79145  1.0000
  C   C18       1.0  0.86983  0.07464  0.29144  1.0000
  C   C19       1.0  0.10650  0.00593  0.74000  1.0000
  C   C20       1.0  0.89350  0.99408  0.24001  1.0000
  C   C21       1.0  0.47531  0.08433  0.78464  1.0000
  C   C22       1.0  0.52467  0.91567  0.28464  1.0000
  C   C23       1.0  0.51256  0.00720  0.83858  1.0000
  C   C24       1.0  0.48742  0.99280  0.33857  1.0000
  C   C25       1.0  0.33809  0.92669  0.84187  1.0000
  C   C26       1.0  0.66190  0.07332  0.34187  1.0000
  C   C27       1.0  0.93460  0.03017  0.53029  1.0000
  C   C28       1.0  0.06540  0.96983  0.03029  1.0000
  C   C29       1.0  0.77572  0.93563  0.52886  1.0000
  C   C30       1.0  0.22429  0.06437  0.02886  1.0000
  C   C31       1.0  0.56022  0.92003  0.57658  1.0000
  C   C32       1.0  0.43979  0.07997  0.07657  1.0000
  C   C33       1.0  0.41850  0.83063  0.57551  1.0000
  C   C34       1.0  0.58150  0.16936  0.07551  1.0000
  C   C35       1.0  0.49187  0.75405  0.52666  1.0000
  C   C36       1.0  0.50814  0.24595  0.02666  1.0000
  C   C37       1.0  0.70655  0.76810  0.47877  1.0000
  C   C38       1.0  0.29347  0.23189  0.97877  1.0000
  C   C39       1.0  0.84493  0.85844  0.48015  1.0000
  C   C40       1.0  0.15508  0.14156  0.98015  1.0000
  C   C41       1.0  0.43316  0.58523  0.49026  1.0000
  C   C42       1.0  0.56686  0.41476  0.99025  1.0000
  C   C43       1.0  0.24318  0.49954  0.49747  1.0000
  C   C44       1.0  0.75682  0.50046  0.99747  1.0000
  C   C45       1.0  0.02397  0.49506  0.45300  1.0000
  C   C46       1.0  0.97604  0.50493  0.95300  1.0000
  C   C47       1.0  0.85627  0.41310  0.46295  1.0000
  C   C48       1.0  0.14373  0.58690  0.96296  1.0000
  C   C49       1.0  0.91147  0.33706  0.51488  1.0000
  C   C50       1.0  0.08855  0.66294  0.01488  1.0000
  C   C51       1.0  0.28396  0.42009  0.54825  1.0000
  C   C52       1.0  0.71605  0.57991  0.04824  1.0000
  N   N1        1.0  0.12295  0.34035  0.55669  1.0000
  N   N2        1.0  0.87705  0.65964  0.05669  1.0000
  N   N3        1.0  0.27553  0.08353  0.73602  1.0000
  N   N4        1.0  0.72447  0.91648  0.23602  1.0000
  O   O1        1.0  0.51684  0.32452  0.70505  1.0000
  O   O2        1.0  0.48314  0.67549  0.20505  1.0000
  O   O3        1.0  0.26569  0.38860  0.79765  1.0000
  O   O4        1.0  0.73429  0.61140  0.29764  1.0000
  O   O5        1.0  0.01997  0.76197  0.74610  1.0000
  O   O6        1.0  0.98002  0.23804  0.24609  1.0000
  O   O7        1.0  0.87646  0.09865  0.58015  1.0000
  O   O8        1.0  0.12355  0.90134  0.08015  1.0000
  O   O9        1.0  0.12229  0.03849  0.48361  1.0000
  O   O10       1.0  0.87773  0.96151  0.98361  1.0000
  O   O11       1.0  0.34286  0.66814  0.52946  1.0000
  O   O12       1.0  0.65715  0.33184  0.02946  1.0000
  O   O13       1.0  0.93034  0.25363  0.74950  1.0000
  O   O14       1.0  0.06966  0.74638  0.24950  1.0000
  O   O15       1.0  0.45848  0.16678  0.53771  1.0000
  O   O16       1.0  0.54153  0.83323  0.03771  1.0000
