data_image0
_chemical_formula_structural       Zn2H16C26S2N6Cl2O6
_chemical_formula_sum              "Zn2 H16 C26 S2 N6 Cl2 O6"
_cell_length_a       7.13478
_cell_length_b       8.42391
_cell_length_c       11.8057
_cell_angle_alpha    89.9997
_cell_angle_beta     89.9994
_cell_angle_gamma    108.92

_space_group_name_H-M_alt    "P 1"
_space_group_IT_number       1

loop_
  _space_group_symop_operation_xyz
  'x, y, z'

loop_
  _atom_site_type_symbol
  _atom_site_label
  _atom_site_symmetry_multiplicity
  _atom_site_fract_x
  _atom_site_fract_y
  _atom_site_fract_z
  _atom_site_occupancy
  Zn  Zn1       1.0  0.23324  0.50118  0.36112  1.0000
  Zn  Zn2       1.0  0.73323  0.50117  0.63889  1.0000
  H   H1        1.0  0.90600  0.40785  0.23560  1.0000
  H   H2        1.0  0.40599  0.40784  0.76440  1.0000
  H   H3        1.0  0.87097  0.52276  0.33371  1.0000
  H   H4        1.0  0.37096  0.52275  0.66630  1.0000
  H   H5        1.0  0.24808  0.81305  0.50870  1.0000
  H   H6        1.0  0.74808  0.81305  0.49132  1.0000
  H   H7        1.0  0.41330  0.12838  0.49667  1.0000
  H   H8        1.0  0.91331  0.12837  0.50334  1.0000
  H   H9        1.0  0.63762  0.24514  0.33570  1.0000
  H   H10       1.0  0.13762  0.24512  0.66432  1.0000
  H   H11       1.0  0.74063  0.67969  0.93988  1.0000
  H   H12       1.0  0.24063  0.67965  0.06010  1.0000
  H   H13       1.0  0.55944  0.37111  0.98167  1.0000
  H   H14       1.0  0.05946  0.37108  0.01830  1.0000
  H   H15       1.0  0.35769  0.29854  0.15715  1.0000
  H   H16       1.0  0.85769  0.29853  0.84284  1.0000
  C   C1        1.0  0.34742  0.87211  0.43958  1.0000
  C   C2        1.0  0.84742  0.87213  0.56043  1.0000
  C   C3        1.0  0.44034  0.04515  0.43304  1.0000
  C   C4        1.0  0.94035  0.04515  0.56697  1.0000
  C   C5        1.0  0.56585  0.11021  0.34250  1.0000
  C   C6        1.0  0.06585  0.11021  0.65751  1.0000
  C   C7        1.0  0.59637  0.00165  0.26040  1.0000
  C   C8        1.0  0.09638  0.00164  0.73960  1.0000
  C   C9        1.0  0.49644  0.82871  0.27296  1.0000
  C   C10       1.0  0.99646  0.82870  0.72703  1.0000
  C   C11       1.0  0.52200  0.70800  0.19024  1.0000
  C   C12       1.0  0.02198  0.70798  0.80976  1.0000
  C   C13       1.0  0.64315  0.76142  0.09428  1.0000
  C   C14       1.0  0.14317  0.76138  0.90571  1.0000
  C   C15       1.0  0.65469  0.63926  0.01679  1.0000
  C   C16       1.0  0.15470  0.63921  0.98320  1.0000
  C   C17       1.0  0.55537  0.47088  0.03912  1.0000
  C   C18       1.0  0.05537  0.47084  0.96086  1.0000
  C   C19       1.0  0.44020  0.42883  0.13706  1.0000
  C   C20       1.0  0.94021  0.42880  0.86293  1.0000
  C   C21       1.0  0.72895  0.06783  0.16281  1.0000
  C   C22       1.0  0.22895  0.06781  0.83719  1.0000
  C   C23       1.0  0.75125  0.94264  0.07319  1.0000
  C   C24       1.0  0.25124  0.94261  0.92682  1.0000
  C   C25       1.0  0.09270  0.11110  0.30037  1.0000
  C   C26       1.0  0.59270  0.11109  0.69963  1.0000
  S   S1        1.0  0.01066  0.91973  0.25581  1.0000
  S   S2        1.0  0.51067  0.91973  0.74420  1.0000
  N   N1        1.0  0.37608  0.76671  0.36132  1.0000
  N   N2        1.0  0.87608  0.76671  0.63868  1.0000
  N   N3        1.0  0.42146  0.54495  0.20969  1.0000
  N   N4        1.0  0.92147  0.54493  0.79030  1.0000
  N   N5        1.0  0.15046  0.25119  0.33377  1.0000
  N   N6        1.0  0.65044  0.25119  0.66623  1.0000
  Cl  Cl1       1.0  0.12570  0.49981  0.55125  1.0000
  Cl  Cl2       1.0  0.62569  0.49982  0.44875  1.0000
  O   O1        1.0  0.81359  0.22000  0.14892  1.0000
  O   O2        1.0  0.31358  0.21998  0.85109  1.0000
  O   O3        1.0  0.84613  0.99281  0.98587  1.0000
  O   O4        1.0  0.34611  0.99277  0.01414  1.0000
  O   O5        1.0  0.97007  0.51387  0.27718  1.0000
  O   O6        1.0  0.47006  0.51386  0.72283  1.0000
