data_image0
_chemical_formula_structural       MnH16C26N6O2F4
_chemical_formula_sum              "Mn1 H16 C26 N6 O2 F4"
_cell_length_a       7.59307
_cell_length_b       8.73345
_cell_length_c       10.1618
_cell_angle_alpha    68.1715
_cell_angle_beta     80.4977
_cell_angle_gamma    78.9381

_space_group_name_H-M_alt    "P 1"
_space_group_IT_number       1

loop_
  _space_group_symop_operation_xyz
  'x, y, z'

loop_
  _atom_site_type_symbol
  _atom_site_label
  _atom_site_symmetry_multiplicity
  _atom_site_fract_x
  _atom_site_fract_y
  _atom_site_fract_z
  _atom_site_occupancy
  Mn  Mn1       1.0  0.00000  0.00000  1.00000  1.0000
  H   H1        1.0  0.11763  0.49415  0.28490  1.0000
  H   H2        1.0  0.88237  0.50584  0.71510  1.0000
  H   H3        1.0  0.11641  0.27749  0.52915  1.0000
  H   H4        1.0  0.88359  0.72251  0.47085  1.0000
  H   H5        1.0  0.39269  0.77163  0.85530  1.0000
  H   H6        1.0  0.60731  0.22837  0.14471  1.0000
  H   H7        1.0  0.64153  0.53143  0.90497  1.0000
  H   H8        1.0  0.35847  0.46856  0.09503  1.0000
  H   H9        1.0  0.17713  0.00392  0.72784  1.0000
  H   H10       1.0  0.82287  0.99608  0.27216  1.0000
  H   H11       1.0  0.01087  0.75182  0.80422  1.0000
  H   H12       1.0  0.98913  0.24818  0.19578  1.0000
  H   H13       1.0  0.00953  0.90643  0.62901  1.0000
  H   H14       1.0  0.99047  0.09357  0.37099  1.0000
  H   H15       1.0  0.82479  0.91528  0.76162  1.0000
  H   H16       1.0  0.17521  0.08472  0.23838  1.0000
  C   C1        1.0  0.36271  0.13070  0.47665  1.0000
  C   C2        1.0  0.63729  0.86929  0.52335  1.0000
  C   C3        1.0  0.49588  0.88351  0.63438  1.0000
  C   C4        1.0  0.50412  0.11649  0.36562  1.0000
  C   C5        1.0  0.22452  0.38802  0.31018  1.0000
  C   C6        1.0  0.77548  0.61198  0.68982  1.0000
  C   C7        1.0  0.22326  0.26958  0.44493  1.0000
  C   C8        1.0  0.77674  0.73042  0.55508  1.0000
  C   C9        1.0  0.49941  0.75859  0.77253  1.0000
  C   C10       1.0  0.50059  0.24141  0.22748  1.0000
  C   C11       1.0  0.63665  0.62667  0.79900  1.0000
  C   C12       1.0  0.36334  0.37332  0.20100  1.0000
  C   C13       1.0  0.37171  0.78318  0.13148  1.0000
  C   C14       1.0  0.62830  0.21682  0.86852  1.0000
  C   C15       1.0  0.68926  0.76857  0.13120  1.0000
  C   C16       1.0  0.31075  0.23143  0.86880  1.0000
  C   C17       1.0  0.52453  0.72424  0.20431  1.0000
  C   C18       1.0  0.47547  0.27577  0.79569  1.0000
  C   C19       1.0  0.36687  0.63215  0.45329  1.0000
  C   C20       1.0  0.63312  0.36786  0.54671  1.0000
  C   C21       1.0  0.51265  0.61263  0.35343  1.0000
  C   C22       1.0  0.48735  0.38737  0.64657  1.0000
  C   C23       1.0  0.97143  0.88438  0.74299  1.0000
  C   C24       1.0  0.02857  0.11562  0.25701  1.0000
  C   C25       1.0  0.64530  0.47603  0.40634  1.0000
  C   C26       1.0  0.35470  0.52397  0.59366  1.0000
  N   N1        1.0  0.36213  0.01374  0.60831  1.0000
  N   N2        1.0  0.63787  0.98626  0.39170  1.0000
  N   N3        1.0  0.82957  0.80626  0.07083  1.0000
  N   N4        1.0  0.17043  0.19374  0.92916  1.0000
  N   N5        1.0  0.24215  0.82622  0.06980  1.0000
  N   N6        1.0  0.75785  0.17378  0.93019  1.0000
  O   O1        1.0  0.05573  0.98900  0.78627  1.0000
  O   O2        1.0  0.94427  0.01100  0.21373  1.0000
  F   F1        1.0  0.78913  0.44407  0.31656  1.0000
  F   F2        1.0  0.21086  0.55593  0.68344  1.0000
  F   F3        1.0  0.23319  0.76310  0.41322  1.0000
  F   F4        1.0  0.76681  0.23690  0.58678  1.0000
