data_image0
_chemical_formula_structural       MnH26C40N6O2F4
_chemical_formula_sum              "Mn1 H26 C40 N6 O2 F4"
_cell_length_a       7.5908
_cell_length_b       10.6116
_cell_length_c       11.0774
_cell_angle_alpha    101.214
_cell_angle_beta     109.616
_cell_angle_gamma    90.1739

_space_group_name_H-M_alt    "P 1"
_space_group_IT_number       1

loop_
  _space_group_symop_operation_xyz
  'x, y, z'

loop_
  _atom_site_type_symbol
  _atom_site_label
  _atom_site_symmetry_multiplicity
  _atom_site_fract_x
  _atom_site_fract_y
  _atom_site_fract_z
  _atom_site_occupancy
  Mn  Mn1       1.0  1.00000  1.00000  0.00000  1.0000
  H   H1        1.0  0.23893  0.11371  0.34800  1.0000
  H   H2        1.0  0.76107  0.88629  0.65201  1.0000
  H   H3        1.0  0.28379  0.27386  0.32959  1.0000
  H   H4        1.0  0.71621  0.72614  0.67041  1.0000
  H   H5        1.0  0.35917  0.13948  0.24044  1.0000
  H   H6        1.0  0.64083  0.86052  0.75956  1.0000
  H   H7        1.0  0.98016  0.21165  0.20354  1.0000
  H   H8        1.0  0.01984  0.78834  0.79645  1.0000
  H   H9        1.0  0.99909  0.41909  0.14208  1.0000
  H   H10       1.0  0.00092  0.58091  0.85792  1.0000
  H   H11       1.0  0.66790  0.52558  0.52569  1.0000
  H   H12       1.0  0.33210  0.47442  0.47431  1.0000
  H   H13       1.0  0.60172  0.33260  0.60545  1.0000
  H   H14       1.0  0.39828  0.66740  0.39455  1.0000
  H   H15       1.0  0.88847  0.80254  0.30228  1.0000
  H   H16       1.0  0.11154  0.19746  0.69772  1.0000
  H   H17       1.0  0.01079  0.65577  0.15174  1.0000
  H   H18       1.0  0.98921  0.34423  0.84826  1.0000
  H   H19       1.0  0.74940  0.71575  0.44651  1.0000
  H   H20       1.0  0.25060  0.28425  0.55349  1.0000
  H   H21       1.0  0.85078  0.05750  0.28723  1.0000
  H   H22       1.0  0.14922  0.94250  0.71278  1.0000
  H   H23       1.0  0.61993  0.09859  0.59968  1.0000
  H   H24       1.0  0.38007  0.90142  0.40032  1.0000
  H   H25       1.0  0.74120  0.96113  0.43895  1.0000
  H   H26       1.0  0.25880  0.03887  0.56105  1.0000
  C   C1        1.0  0.49816  0.36073  0.97581  1.0000
  C   C2        1.0  0.50184  0.63927  0.02419  1.0000
  C   C3        1.0  0.57581  0.43547  0.91223  1.0000
  C   C4        1.0  0.42419  0.56454  0.08777  1.0000
  C   C5        1.0  0.42283  0.43137  0.06535  1.0000
  C   C6        1.0  0.57717  0.56863  0.93465  1.0000
  C   C7        1.0  0.33438  0.14787  0.94129  1.0000
  C   C8        1.0  0.66561  0.85212  0.05871  1.0000
  C   C9        1.0  0.63870  0.15592  0.92199  1.0000
  C   C10       1.0  0.36130  0.84407  0.07800  1.0000
  C   C11       1.0  0.49184  0.21981  0.94778  1.0000
  C   C12       1.0  0.50816  0.78020  0.05222  1.0000
  C   C13       1.0  0.24746  0.17265  0.27811  1.0000
  C   C14       1.0  0.75254  0.82735  0.72189  1.0000
  C   C15       1.0  0.79197  0.51699  0.37537  1.0000
  C   C16       1.0  0.20803  0.48301  0.62463  1.0000
  C   C17       1.0  0.79228  0.25179  0.36060  1.0000
  C   C18       1.0  0.20772  0.74821  0.63940  1.0000
  C   C19       1.0  0.86406  0.43110  0.28755  1.0000
  C   C20       1.0  0.13594  0.56890  0.71245  1.0000
  C   C21       1.0  0.71772  0.33051  0.45117  1.0000
  C   C22       1.0  0.28229  0.66949  0.54883  1.0000
  C   C23       1.0  0.94328  0.48443  0.20704  1.0000
  C   C24       1.0  0.05672  0.51557  0.79296  1.0000
  C   C25       1.0  0.71937  0.46320  0.45593  1.0000
  C   C26       1.0  0.28063  0.53680  0.54407  1.0000
  C   C27       1.0  0.65357  0.27179  0.53542  1.0000
  C   C28       1.0  0.34643  0.72821  0.46459  1.0000
  C   C29       1.0  0.87896  0.69958  0.29949  1.0000
  C   C30       1.0  0.12104  0.30042  0.70051  1.0000
  C   C31       1.0  0.94957  0.61505  0.21300  1.0000
  C   C32       1.0  0.05043  0.38496  0.78700  1.0000
  C   C33       1.0  0.80246  0.65188  0.37888  1.0000
  C   C34       1.0  0.19754  0.34812  0.62112  1.0000
  C   C35       1.0  0.79713  0.11686  0.35734  1.0000
  C   C36       1.0  0.20287  0.88314  0.64266  1.0000
  C   C37       1.0  0.66361  0.14197  0.53177  1.0000
  C   C38       1.0  0.33639  0.85803  0.46823  1.0000
  C   C39       1.0  0.73517  0.06426  0.44134  1.0000
  C   C40       1.0  0.26483  0.93574  0.55865  1.0000
  N   N1        1.0  0.19569  0.09029  0.93142  1.0000
  N   N2        1.0  0.80431  0.90971  0.06858  1.0000
  N   N3        1.0  0.76566  0.10352  0.90141  1.0000
  N   N4        1.0  0.23433  0.89648  0.09859  1.0000
  N   N5        1.0  0.86151  0.30272  0.28166  1.0000
  N   N6        1.0  0.13850  0.69728  0.71834  1.0000
  O   O1        1.0  0.07560  0.16086  0.17049  1.0000
  O   O2        1.0  0.92440  0.83914  0.82951  1.0000
  F   F1        1.0  0.64847  0.37567  0.82115  1.0000
  F   F2        1.0  0.35153  0.62433  0.17885  1.0000
  F   F3        1.0  0.34830  0.36880  0.13506  1.0000
  F   F4        1.0  0.65170  0.63120  0.86494  1.0000
