data_image0
_chemical_formula_structural       ZnH16C20N6O2F4
_chemical_formula_sum              "Zn1 H16 C20 N6 O2 F4"
_cell_length_a       7.09417
_cell_length_b       8.48796
_cell_length_c       9.51244
_cell_angle_alpha    80.7355
_cell_angle_beta     74.8516
_cell_angle_gamma    74.2687

_space_group_name_H-M_alt    "P 1"
_space_group_IT_number       1

loop_
  _space_group_symop_operation_xyz
  'x, y, z'

loop_
  _atom_site_type_symbol
  _atom_site_label
  _atom_site_symmetry_multiplicity
  _atom_site_fract_x
  _atom_site_fract_y
  _atom_site_fract_z
  _atom_site_occupancy
  Zn  Zn1       1.0  0.50000  0.50000  0.50000  1.0000
  H   H1        1.0  0.36068  0.46593  0.95425  1.0000
  H   H2        1.0  0.63931  0.53407  0.04575  1.0000
  H   H3        1.0  0.81351  0.84857  0.79566  1.0000
  H   H4        1.0  0.18648  0.15143  0.20434  1.0000
  H   H5        1.0  0.63591  0.72683  0.82314  1.0000
  H   H6        1.0  0.36408  0.27318  0.17687  1.0000
  H   H7        1.0  0.86237  0.68489  0.68620  1.0000
  H   H8        1.0  0.13762  0.31511  0.31380  1.0000
  H   H9        1.0  0.24529  0.67110  0.72537  1.0000
  H   H10       1.0  0.75471  0.32890  0.27463  1.0000
  H   H11       1.0  0.36680  0.88007  0.46119  1.0000
  H   H12       1.0  0.63320  0.11993  0.53881  1.0000
  H   H13       1.0  0.24945  0.95834  0.63408  1.0000
  H   H14       1.0  0.75055  0.04166  0.36592  1.0000
  H   H15       1.0  0.11381  0.86926  0.54626  1.0000
  H   H16       1.0  0.88619  0.13074  0.45374  1.0000
  C   C1        1.0  0.19807  0.48149  0.97601  1.0000
  C   C2        1.0  0.80193  0.51852  0.02399  1.0000
  C   C3        1.0  0.90192  0.60793  0.90430  1.0000
  C   C4        1.0  0.09807  0.39208  0.09570  1.0000
  C   C5        1.0  0.79646  0.72328  0.79717  1.0000
  C   C6        1.0  0.20353  0.27672  0.20283  1.0000
  C   C7        1.0  0.81167  0.32811  0.70387  1.0000
  C   C8        1.0  0.18834  0.67189  0.29613  1.0000
  C   C9        1.0  0.17465  0.02969  0.91016  1.0000
  C   C10       1.0  0.82536  0.97031  0.08984  1.0000
  C   C11       1.0  0.82029  0.09035  0.97234  1.0000
  C   C12       1.0  0.17972  0.90965  0.02765  1.0000
  C   C13       1.0  0.15301  0.30990  0.67289  1.0000
  C   C14       1.0  0.84699  0.69010  0.32712  1.0000
  C   C15       1.0  0.99416  0.12589  0.87593  1.0000
  C   C16       1.0  0.00586  0.87411  0.12407  1.0000
  C   C17       1.0  0.98660  0.25183  0.75272  1.0000
  C   C18       1.0  0.01341  0.74817  0.24727  1.0000
  C   C19       1.0  0.26239  0.86102  0.56644  1.0000
  C   C20       1.0  0.73761  0.13898  0.43356  1.0000
  N   N1        1.0  0.10214  0.58784  0.88272  1.0000
  N   N2        1.0  0.89785  0.41216  0.11728  1.0000
  N   N3        1.0  0.67089  0.39894  0.65721  1.0000
  N   N4        1.0  0.32912  0.60106  0.34279  1.0000
  N   N5        1.0  0.28627  0.36534  0.60225  1.0000
  N   N6        1.0  0.71375  0.63466  0.39775  1.0000
  O   O1        1.0  0.34363  0.70269  0.63418  1.0000
  O   O2        1.0  0.65637  0.29731  0.36582  1.0000
  F   F1        1.0  0.63623  0.17891  0.95262  1.0000
  F   F2        1.0  0.36377  0.82109  0.04738  1.0000
  F   F3        1.0  0.35390  0.05214  0.82499  1.0000
  F   F4        1.0  0.64611  0.94786  0.17501  1.0000
