data_image0
_chemical_formula_structural       Zn2H48C44N12O4
_chemical_formula_sum              "Zn2 H48 C44 N12 O4"
_cell_length_a       8.1019
_cell_length_b       10.5912
_cell_length_c       12.2466
_cell_angle_alpha    90
_cell_angle_beta     90
_cell_angle_gamma    97.8918

_space_group_name_H-M_alt    "P 1"
_space_group_IT_number       1

loop_
  _space_group_symop_operation_xyz
  'x, y, z'

loop_
  _atom_site_type_symbol
  _atom_site_label
  _atom_site_symmetry_multiplicity
  _atom_site_fract_x
  _atom_site_fract_y
  _atom_site_fract_z
  _atom_site_occupancy
  Zn  Zn1       1.0  0.00000  1.00000  0.50000  1.0000
  Zn  Zn2       1.0  0.50000  0.50000  1.00000  1.0000
  H   H1        1.0  0.87438  0.22526  0.46648  1.0000
  H   H2        1.0  0.62562  0.27474  0.96648  1.0000
  H   H3        1.0  0.12562  0.77474  0.53352  1.0000
  H   H4        1.0  0.37438  0.72526  0.03352  1.0000
  H   H5        1.0  0.01950  0.07159  0.80685  1.0000
  H   H6        1.0  0.48050  0.42841  0.30685  1.0000
  H   H7        1.0  0.98050  0.92841  0.19315  1.0000
  H   H8        1.0  0.51950  0.57159  0.69315  1.0000
  H   H9        1.0  0.82091  0.79987  0.05220  1.0000
  H   H10       1.0  0.67909  0.70013  0.55220  1.0000
  H   H11       1.0  0.17909  0.20013  0.94780  1.0000
  H   H12       1.0  0.32091  0.29987  0.44780  1.0000
  H   H13       1.0  0.61448  0.01625  0.42795  1.0000
  H   H14       1.0  0.88552  0.48375  0.92795  1.0000
  H   H15       1.0  0.38552  0.98375  0.57205  1.0000
  H   H16       1.0  0.11447  0.51624  0.07205  1.0000
  H   H17       1.0  0.59943  0.18280  0.44341  1.0000
  H   H18       1.0  0.90057  0.31720  0.94341  1.0000
  H   H19       1.0  0.40057  0.81719  0.55659  1.0000
  H   H20       1.0  0.09943  0.68280  0.05659  1.0000
  H   H21       1.0  0.63891  0.08846  0.55945  1.0000
  H   H22       1.0  0.86109  0.41154  0.05945  1.0000
  H   H23       1.0  0.36110  0.91154  0.44055  1.0000
  H   H24       1.0  0.13890  0.58846  0.94055  1.0000
  H   H25       1.0  0.92834  0.28675  0.29259  1.0000
  H   H26       1.0  0.57166  0.21325  0.79259  1.0000
  H   H27       1.0  0.07166  0.71325  0.70742  1.0000
  H   H28       1.0  0.42834  0.78675  0.20741  1.0000
  H   H29       1.0  0.09459  0.40174  0.24510  1.0000
  H   H30       1.0  0.40541  0.09826  0.74510  1.0000
  H   H31       1.0  0.90541  0.59826  0.75490  1.0000
  H   H32       1.0  0.59459  0.90174  0.25490  1.0000
  H   H33       1.0  0.88739  0.43550  0.23809  1.0000
  H   H34       1.0  0.61261  0.06450  0.73809  1.0000
  H   H35       1.0  0.11261  0.56450  0.76191  1.0000
  H   H36       1.0  0.38739  0.93550  0.26191  1.0000
  H   H37       1.0  0.81595  0.25025  0.65144  1.0000
  H   H38       1.0  0.68405  0.24974  0.15144  1.0000
  H   H39       1.0  0.18405  0.74975  0.34856  1.0000
  H   H40       1.0  0.31595  0.75026  0.84856  1.0000
  H   H41       1.0  0.74900  0.38894  0.71015  1.0000
  H   H42       1.0  0.75100  0.11106  0.21015  1.0000
  H   H43       1.0  0.25100  0.61106  0.28985  1.0000
  H   H44       1.0  0.24899  0.88894  0.78985  1.0000
  H   H45       1.0  0.94532  0.34653  0.74538  1.0000
  H   H46       1.0  0.55468  0.15347  0.24538  1.0000
  H   H47       1.0  0.05468  0.65347  0.25462  1.0000
  H   H48       1.0  0.44532  0.84653  0.75462  1.0000
  C   C1        1.0  0.82421  0.88706  0.72511  1.0000
  C   C2        1.0  0.67579  0.61294  0.22511  1.0000
  C   C3        1.0  0.17579  0.11294  0.27489  1.0000
  C   C4        1.0  0.32421  0.38706  0.77489  1.0000
  C   C5        1.0  0.71468  0.73500  0.86311  1.0000
  C   C6        1.0  0.78532  0.76500  0.36311  1.0000
  C   C7        1.0  0.28532  0.26500  0.13689  1.0000
  C   C8        1.0  0.21468  0.23500  0.63689  1.0000
  C   C9        1.0  0.90716  0.92562  0.91825  1.0000
  C   C10       1.0  0.59284  0.57438  0.41825  1.0000
  C   C11       1.0  0.09284  0.07438  0.08175  1.0000
  C   C12       1.0  0.40716  0.42562  0.58175  1.0000
  C   C13       1.0  0.00957  0.03975  0.89164  1.0000
  C   C14       1.0  0.49043  0.46025  0.39164  1.0000
  C   C15       1.0  0.99043  0.96025  0.10835  1.0000
  C   C16       1.0  0.50957  0.53975  0.60835  1.0000
  C   C17       1.0  0.81205  0.84795  0.83338  1.0000
  C   C18       1.0  0.68795  0.65205  0.33338  1.0000
  C   C19       1.0  0.18795  0.15205  0.16662  1.0000
  C   C20       1.0  0.31206  0.34795  0.66662  1.0000
  C   C21       1.0  0.89960  0.88760  0.02850  1.0000
  C   C22       1.0  0.60040  0.61240  0.52850  1.0000
  C   C23       1.0  0.10040  0.11240  0.97150  1.0000
  C   C24       1.0  0.39960  0.38760  0.47150  1.0000
  C   C25       1.0  0.66320  0.10360  0.47170  1.0000
  C   C26       1.0  0.83680  0.39640  0.97170  1.0000
  C   C27       1.0  0.33680  0.89640  0.52830  1.0000
  C   C28       1.0  0.16320  0.60360  0.02830  1.0000
  C   C29       1.0  0.97445  0.38860  0.28792  1.0000
  C   C30       1.0  0.52555  0.11140  0.78792  1.0000
  C   C31       1.0  0.02555  0.61140  0.71208  1.0000
  C   C32       1.0  0.47445  0.88860  0.21208  1.0000
  C   C33       1.0  0.98979  0.44678  0.39900  1.0000
  C   C34       1.0  0.51022  0.05322  0.89900  1.0000
  C   C35       1.0  0.01022  0.55322  0.60100  1.0000
  C   C36       1.0  0.48978  0.94678  0.10100  1.0000
  C   C37       1.0  0.93328  0.42735  0.58494  1.0000
  C   C38       1.0  0.56672  0.07265  0.08495  1.0000
  C   C39       1.0  0.06672  0.57265  0.41506  1.0000
  C   C40       1.0  0.43328  0.92735  0.91506  1.0000
  C   C41       1.0  0.85684  0.34826  0.67762  1.0000
  C   C42       1.0  0.64316  0.15174  0.17762  1.0000
  C   C43       1.0  0.14316  0.65174  0.32238  1.0000
  C   C44       1.0  0.35684  0.84826  0.82238  1.0000
  N   N1        1.0  0.63595  0.64127  0.89659  1.0000
  N   N2        1.0  0.86405  0.85873  0.39659  1.0000
  N   N3        1.0  0.36405  0.35873  0.10341  1.0000
  N   N4        1.0  0.13595  0.14127  0.60341  1.0000
  N   N5        1.0  0.84111  0.92963  0.63616  1.0000
  N   N6        1.0  0.65889  0.57037  0.13616  1.0000
  N   N7        1.0  0.15889  0.07037  0.36384  1.0000
  N   N8        1.0  0.34111  0.42962  0.86384  1.0000
  N   N9        1.0  0.92580  0.37692  0.48429  1.0000
  N   N10       1.0  0.57419  0.12308  0.98430  1.0000
  N   N11       1.0  0.07419  0.62308  0.51571  1.0000
  N   N12       1.0  0.42580  0.87692  0.01571  1.0000
  O   O1        1.0  0.83772  0.13023  0.45002  1.0000
  O   O2        1.0  0.66228  0.36977  0.95001  1.0000
  O   O3        1.0  0.16228  0.86977  0.54998  1.0000
  O   O4        1.0  0.33772  0.63023  0.04998  1.0000
