data_image0
_chemical_formula_structural       ZnH24C22N6O2
_chemical_formula_sum              "Zn1 H24 C22 N6 O2"
_cell_length_a       7.49865
_cell_length_b       7.73809
_cell_length_c       9.98246
_cell_angle_alpha    74.3335
_cell_angle_beta     79.2175
_cell_angle_gamma    75.6937

_space_group_name_H-M_alt    "P 1"
_space_group_IT_number       1

loop_
  _space_group_symop_operation_xyz
  'x, y, z'

loop_
  _atom_site_type_symbol
  _atom_site_label
  _atom_site_symmetry_multiplicity
  _atom_site_fract_x
  _atom_site_fract_y
  _atom_site_fract_z
  _atom_site_occupancy
  Zn  Zn1       1.0  0.50000  0.50000  0.00000  1.0000
  H   H1        1.0  0.31342  0.57313  0.25360  1.0000
  H   H2        1.0  0.68658  0.42687  0.74640  1.0000
  H   H3        1.0  0.50699  0.86473  0.13350  1.0000
  H   H4        1.0  0.49301  0.13527  0.86650  1.0000
  H   H5        1.0  0.29443  0.85957  0.24987  1.0000
  H   H6        1.0  0.70558  0.14042  0.75013  1.0000
  H   H7        1.0  0.29853  0.87826  0.06627  1.0000
  H   H8        1.0  0.70147  0.12174  0.93373  1.0000
  H   H9        1.0  0.29990  0.07751  0.37784  1.0000
  H   H10       1.0  0.70011  0.92249  0.62216  1.0000
  H   H11       1.0  0.71586  0.11741  0.38219  1.0000
  H   H12       1.0  0.28413  0.88259  0.61781  1.0000
  H   H13       1.0  0.46634  0.35555  0.43223  1.0000
  H   H14       1.0  0.53367  0.64445  0.56777  1.0000
  H   H15       1.0  0.39032  0.18104  0.57337  1.0000
  H   H16       1.0  0.60968  0.81896  0.42663  1.0000
  H   H17       1.0  0.42842  0.37864  0.60931  1.0000
  H   H18       1.0  0.57157  0.62137  0.39069  1.0000
  H   H19       1.0  0.87091  0.85543  0.22546  1.0000
  H   H20       1.0  0.12909  0.14457  0.77454  1.0000
  H   H21       1.0  0.80660  0.66487  0.19574  1.0000
  H   H22       1.0  0.19340  0.33513  0.80426  1.0000
  H   H23       1.0  0.04107  0.69164  0.14904  1.0000
  H   H24       1.0  0.95893  0.30836  0.85096  1.0000
  C   C1        1.0  0.86341  0.27989  0.14704  1.0000
  C   C2        1.0  0.13659  0.72012  0.85295  1.0000
  C   C3        1.0  0.00914  0.11237  0.36104  1.0000
  C   C4        1.0  0.99086  0.88762  0.63897  1.0000
  C   C5        1.0  0.18279  0.27419  0.14577  1.0000
  C   C6        1.0  0.81722  0.72581  0.85423  1.0000
  C   C7        1.0  0.37626  0.81667  0.15674  1.0000
  C   C8        1.0  0.62374  0.18334  0.84326  1.0000
  C   C9        1.0  0.16757  0.04393  0.43110  1.0000
  C   C10       1.0  0.83241  0.95606  0.56890  1.0000
  C   C11       1.0  0.01883  0.22454  0.21684  1.0000
  C   C12       1.0  0.98116  0.77547  0.78316  1.0000
  C   C13       1.0  0.84129  0.06605  0.43351  1.0000
  C   C14       1.0  0.15872  0.93395  0.56649  1.0000
  C   C15       1.0  0.96152  0.59965  0.37001  1.0000
  C   C16       1.0  0.03848  0.40035  0.62999  1.0000
  C   C17       1.0  0.37747  0.33000  0.53273  1.0000
  C   C18       1.0  0.62254  0.67000  0.46727  1.0000
  C   C19       1.0  0.17992  0.42102  0.51561  1.0000
  C   C20       1.0  0.82008  0.57899  0.48439  1.0000
  C   C21       1.0  0.91840  0.70837  0.22707  1.0000
  C   C22       1.0  0.08159  0.29163  0.77292  1.0000
  N   N1        1.0  0.32558  0.31069  0.08852  1.0000
  N   N2        1.0  0.67441  0.68931  0.91149  1.0000
  N   N3        1.0  0.72812  0.31948  0.09233  1.0000
  N   N4        1.0  0.27190  0.68052  0.90767  1.0000
  N   N5        1.0  0.13900  0.52094  0.38817  1.0000
  N   N6        1.0  0.86100  0.47906  0.61183  1.0000
  O   O1        1.0  0.41790  0.61953  0.18336  1.0000
  O   O2        1.0  0.58211  0.38047  0.81664  1.0000
