data_image0
_chemical_formula_structural       H16Pb2C24O8
_chemical_formula_sum              "H16 Pb2 C24 O8"
_cell_length_a       5.28498
_cell_length_b       7.93589
_cell_length_c       12.8724
_cell_angle_alpha    94.2704
_cell_angle_beta     101.753
_cell_angle_gamma    90.1156

_space_group_name_H-M_alt    "P 1"
_space_group_IT_number       1

loop_
  _space_group_symop_operation_xyz
  'x, y, z'

loop_
  _atom_site_type_symbol
  _atom_site_label
  _atom_site_symmetry_multiplicity
  _atom_site_fract_x
  _atom_site_fract_y
  _atom_site_fract_z
  _atom_site_occupancy
  H   H1        1.0  0.32980  0.98032  0.80714  1.0000
  H   H2        1.0  0.52311  0.51925  0.19273  1.0000
  H   H3        1.0  0.67020  0.01971  0.19286  1.0000
  H   H4        1.0  0.47698  0.48083  0.80729  1.0000
  H   H5        1.0  0.55877  0.18330  0.65273  1.0000
  H   H6        1.0  0.90534  0.31648  0.34674  1.0000
  H   H7        1.0  0.44125  0.81667  0.34725  1.0000
  H   H8        1.0  0.09459  0.68346  0.65326  1.0000
  H   H9        1.0  0.95141  0.94157  0.68281  1.0000
  H   H10       1.0  0.26915  0.55775  0.31731  1.0000
  H   H11       1.0  0.04861  0.05840  0.31718  1.0000
  H   H12       1.0  0.73081  0.44223  0.68269  1.0000
  H   H13       1.0  0.38544  0.15497  0.47250  1.0000
  H   H14       1.0  0.91208  0.34526  0.52709  1.0000
  H   H15       1.0  0.61459  0.84499  0.52749  1.0000
  H   H16       1.0  0.08787  0.65472  0.47291  1.0000
  Pb  Pb1       1.0  0.17247  0.24972  0.99942  1.0000
  Pb  Pb2       1.0  0.82752  0.75031  0.00058  1.0000
  C   C1        1.0  0.69670  0.12518  0.85073  1.0000
  C   C2        1.0  0.84570  0.37445  0.14862  1.0000
  C   C3        1.0  0.30329  0.87485  0.14927  1.0000
  C   C4        1.0  0.15431  0.62558  0.85139  1.0000
  C   C5        1.0  0.45760  0.06355  0.77668  1.0000
  C   C6        1.0  0.68122  0.43628  0.22303  1.0000
  C   C7        1.0  0.54240  0.93646  0.22332  1.0000
  C   C8        1.0  0.31880  0.56374  0.77698  1.0000
  C   C9        1.0  0.41079  0.10527  0.67467  1.0000
  C   C10       1.0  0.73589  0.39450  0.32500  1.0000
  C   C11       1.0  0.58923  0.89471  0.32531  1.0000
  C   C12       1.0  0.26408  0.60549  0.67501  1.0000
  C   C13       1.0  0.19624  0.05352  0.58865  1.0000
  C   C14       1.0  0.60739  0.44626  0.41119  1.0000
  C   C15       1.0  0.80379  0.94645  0.41134  1.0000
  C   C16       1.0  0.39258  0.55373  0.58881  1.0000
  C   C17       1.0  0.97443  0.96716  0.60318  1.0000
  C   C18       1.0  0.37149  0.53237  0.39690  1.0000
  C   C19       1.0  0.02559  0.03281  0.39681  1.0000
  C   C20       1.0  0.62847  0.46762  0.60311  1.0000
  C   C21       1.0  0.21559  0.08662  0.48414  1.0000
  C   C22       1.0  0.73098  0.41354  0.51567  1.0000
  C   C23       1.0  0.78444  0.91335  0.51585  1.0000
  C   C24       1.0  0.26898  0.58645  0.48433  1.0000
  O   O1        1.0  0.84614  0.23207  0.82295  1.0000
  O   O2        1.0  0.02317  0.26827  0.17643  1.0000
  O   O3        1.0  0.15386  0.76795  0.17704  1.0000
  O   O4        1.0  0.97681  0.73172  0.82356  1.0000
  O   O5        1.0  0.74877  0.06995  0.94478  1.0000
  O   O6        1.0  0.80278  0.42858  0.05427  1.0000
  O   O7        1.0  0.25121  0.93009  0.05522  1.0000
  O   O8        1.0  0.19729  0.57149  0.94575  1.0000
