data_image0
_chemical_formula_structural       Cd2H16C48N12F8
_chemical_formula_sum              "Cd2 H16 C48 N12 F8"
_cell_length_a       7.48133
_cell_length_b       10.6485
_cell_length_c       14.4441
_cell_angle_alpha    110.212
_cell_angle_beta     102.916
_cell_angle_gamma    95.3396

_space_group_name_H-M_alt    "P 1"
_space_group_IT_number       1

loop_
  _space_group_symop_operation_xyz
  'x, y, z'

loop_
  _atom_site_type_symbol
  _atom_site_label
  _atom_site_symmetry_multiplicity
  _atom_site_fract_x
  _atom_site_fract_y
  _atom_site_fract_z
  _atom_site_occupancy
  Cd  Cd1       1.0  0.35894  0.10948  0.21847  1.0000
  Cd  Cd2       1.0  0.64105  0.89052  0.78153  1.0000
  H   H1        1.0  0.11769  0.89867  0.28741  1.0000
  H   H2        1.0  0.66921  0.38917  0.28741  1.0000
  H   H3        1.0  0.88231  0.10133  0.71259  1.0000
  H   H4        1.0  0.33078  0.61083  0.71260  1.0000
  H   H5        1.0  0.08816  0.86587  0.44765  1.0000
  H   H6        1.0  0.85967  0.58193  0.44764  1.0000
  H   H7        1.0  0.91183  0.13413  0.55235  1.0000
  H   H8        1.0  0.14032  0.41808  0.55236  1.0000
  H   H9        1.0  0.27679  0.04060  0.61894  1.0000
  H   H10       1.0  0.84260  0.57844  0.61898  1.0000
  H   H11       1.0  0.72320  0.95940  0.38106  1.0000
  H   H12       1.0  0.15740  0.42156  0.38103  1.0000
  H   H13       1.0  0.50515  0.26090  0.71680  1.0000
  H   H14       1.0  0.71152  0.45625  0.71680  1.0000
  H   H15       1.0  0.49485  0.73909  0.28320  1.0000
  H   H16       1.0  0.28848  0.54374  0.28319  1.0000
  C   C1        1.0  0.02507  0.26570  0.14581  1.0000
  C   C2        1.0  0.62050  0.88045  0.14621  1.0000
  C   C3        1.0  0.97494  0.73430  0.85419  1.0000
  C   C4        1.0  0.37950  0.11955  0.85379  1.0000
  C   C5        1.0  0.91919  0.28206  0.05945  1.0000
  C   C6        1.0  0.64028  0.77768  0.05974  1.0000
  C   C7        1.0  0.08082  0.71795  0.94055  1.0000
  C   C8        1.0  0.35973  0.22232  0.94026  1.0000
  C   C9        1.0  0.85068  0.40631  0.06102  1.0000
  C   C10       1.0  0.71006  0.65486  0.06112  1.0000
  C   C11       1.0  0.14933  0.59369  0.93898  1.0000
  C   C12       1.0  0.28994  0.34515  0.93888  1.0000
  C   C13       1.0  0.76960  0.42730  0.97109  1.0000
  C   C14       1.0  0.70080  0.54354  0.97115  1.0000
  C   C15       1.0  0.23040  0.57270  0.02891  1.0000
  C   C16       1.0  0.29921  0.45646  0.02885  1.0000
  C   C17       1.0  0.85709  0.51644  0.15092  1.0000
  C   C18       1.0  0.79375  0.63498  0.15099  1.0000
  C   C19       1.0  0.14292  0.48356  0.84908  1.0000
  C   C20       1.0  0.20625  0.36502  0.84901  1.0000
  C   C21       1.0  0.88513  0.16808  0.96930  1.0000
  C   C22       1.0  0.58450  0.80146  0.96969  1.0000
  C   C23       1.0  0.11488  0.83193  0.03070  1.0000
  C   C24       1.0  0.41551  0.19854  0.03031  1.0000
  C   C25       1.0  0.19786  0.97155  0.36305  1.0000
  C   C26       1.0  0.66469  0.39192  0.36305  1.0000
  C   C27       1.0  0.80214  0.02845  0.63694  1.0000
  C   C28       1.0  0.33531  0.60808  0.63695  1.0000
  C   C29       1.0  0.18157  0.95448  0.45322  1.0000
  C   C30       1.0  0.77160  0.49900  0.45324  1.0000
  C   C31       1.0  0.81842  0.04552  0.54677  1.0000
  C   C32       1.0  0.22840  0.50100  0.54677  1.0000
  C   C33       1.0  0.28458  0.05091  0.54724  1.0000
  C   C34       1.0  0.76282  0.49653  0.54726  1.0000
  C   C35       1.0  0.71541  0.94909  0.45276  1.0000
  C   C36       1.0  0.23718  0.50347  0.45274  1.0000
  C   C37       1.0  0.41489  0.17195  0.45574  1.0000
  C   C38       1.0  0.54016  0.28429  0.45572  1.0000
  C   C39       1.0  0.58511  0.82805  0.54426  1.0000
  C   C40       1.0  0.45984  0.71570  0.54428  1.0000
  C   C41       1.0  0.40431  0.16445  0.55080  1.0000
  C   C42       1.0  0.64624  0.38671  0.55079  1.0000
  C   C43       1.0  0.59568  0.83554  0.44920  1.0000
  C   C44       1.0  0.35376  0.61328  0.44921  1.0000
  C   C45       1.0  0.51482  0.26892  0.64493  1.0000
  C   C46       1.0  0.62993  0.37635  0.64492  1.0000
  C   C47       1.0  0.48518  0.73107  0.35507  1.0000
  C   C48       1.0  0.37006  0.62364  0.35508  1.0000
  N   N1        1.0  0.11700  0.24492  0.21471  1.0000
  N   N2        1.0  0.59730  0.97031  0.21515  1.0000
  N   N3        1.0  0.88301  0.75509  0.78529  1.0000
  N   N4        1.0  0.40270  0.02970  0.78485  1.0000
  N   N5        1.0  0.31161  0.07647  0.36478  1.0000
  N   N6        1.0  0.55238  0.28885  0.36475  1.0000
  N   N7        1.0  0.68839  0.92353  0.63522  1.0000
  N   N8        1.0  0.44762  0.71115  0.63525  1.0000
  N   N9        1.0  0.86363  0.07202  0.89356  1.0000
  N   N10       1.0  0.53068  0.82174  0.89399  1.0000
  N   N11       1.0  0.13637  0.92799  0.10644  1.0000
  N   N12       1.0  0.46933  0.17826  0.10600  1.0000
  F   F1        1.0  0.92933  0.50906  0.24422  1.0000
  F   F2        1.0  0.81505  0.73592  0.24435  1.0000
  F   F3        1.0  0.07068  0.49094  0.75578  1.0000
  F   F4        1.0  0.18495  0.26408  0.75565  1.0000
  F   F5        1.0  0.75584  0.32988  0.87778  1.0000
  F   F6        1.0  0.62089  0.54733  0.87790  1.0000
  F   F7        1.0  0.24415  0.67012  0.12222  1.0000
  F   F8        1.0  0.37910  0.45268  0.12210  1.0000
