data_image0
_chemical_formula_structural       Ag4H48C64N8O8
_chemical_formula_sum              "Ag4 H48 C64 N8 O8"
_cell_length_a       7.0122
_cell_length_b       9.87435
_cell_length_c       19.0455
_cell_angle_alpha    90
_cell_angle_beta     90
_cell_angle_gamma    106.23

_space_group_name_H-M_alt    "P 1"
_space_group_IT_number       1

loop_
  _space_group_symop_operation_xyz
  'x, y, z'

loop_
  _atom_site_type_symbol
  _atom_site_label
  _atom_site_symmetry_multiplicity
  _atom_site_fract_x
  _atom_site_fract_y
  _atom_site_fract_z
  _atom_site_occupancy
  Ag  Ag1       1.0  0.51724  0.66775  0.27912  1.0000
  Ag  Ag2       1.0  0.48276  0.83225  0.77912  1.0000
  Ag  Ag3       1.0  0.48276  0.33225  0.72088  1.0000
  Ag  Ag4       1.0  0.51724  0.16775  0.22088  1.0000
  H   H1        1.0  0.31339  0.42504  0.19241  1.0000
  H   H2        1.0  0.68660  0.07494  0.69241  1.0000
  H   H3        1.0  0.68661  0.57496  0.80759  1.0000
  H   H4        1.0  0.31339  0.92505  0.30759  1.0000
  H   H5        1.0  0.10176  0.17831  0.19782  1.0000
  H   H6        1.0  0.89823  0.32167  0.69781  1.0000
  H   H7        1.0  0.89825  0.82169  0.80218  1.0000
  H   H8        1.0  0.10174  0.67832  0.30218  1.0000
  H   H9        1.0  0.97487  0.07471  0.31618  1.0000
  H   H10       1.0  0.02512  0.42527  0.81618  1.0000
  H   H11       1.0  0.02514  0.92528  0.68381  1.0000
  H   H12       1.0  0.97486  0.57472  0.18381  1.0000
  H   H13       1.0  0.05286  0.22821  0.42097  1.0000
  H   H14       1.0  0.94713  0.27179  0.92097  1.0000
  H   H15       1.0  0.94713  0.77179  0.57903  1.0000
  H   H16       1.0  0.05287  0.72821  0.07903  1.0000
  H   H17       1.0  0.35972  0.61541  0.40943  1.0000
  H   H18       1.0  0.64027  0.88459  0.90943  1.0000
  H   H19       1.0  0.64028  0.38458  0.59057  1.0000
  H   H20       1.0  0.35972  0.11542  0.09057  1.0000
  H   H21       1.0  0.14711  0.36107  0.50244  1.0000
  H   H22       1.0  0.85289  0.13893  0.00244  1.0000
  H   H23       1.0  0.85288  0.63893  0.49756  1.0000
  H   H24       1.0  0.14712  0.86108  0.99756  1.0000
  H   H25       1.0  0.42583  0.76011  0.49935  1.0000
  H   H26       1.0  0.57417  0.73989  0.99935  1.0000
  H   H27       1.0  0.57416  0.23989  0.50065  1.0000
  H   H28       1.0  0.42584  0.26011  0.00065  1.0000
  H   H29       1.0  0.49888  0.89395  0.61035  1.0000
  H   H30       1.0  0.50113  0.60605  0.11035  1.0000
  H   H31       1.0  0.50112  0.10604  0.38965  1.0000
  H   H32       1.0  0.49887  0.39396  0.88965  1.0000
  H   H33       1.0  0.22667  0.54401  0.73027  1.0000
  H   H34       1.0  0.77332  0.95600  0.23027  1.0000
  H   H35       1.0  0.77333  0.45599  0.26973  1.0000
  H   H36       1.0  0.22667  0.04401  0.76973  1.0000
  H   H37       1.0  0.14557  0.39032  0.62363  1.0000
  H   H38       1.0  0.85442  0.10968  0.12363  1.0000
  H   H39       1.0  0.85442  0.60968  0.37637  1.0000
  H   H40       1.0  0.14557  0.89032  0.87637  1.0000
  H   H41       1.0  0.09134  0.86399  0.40228  1.0000
  H   H42       1.0  0.90866  0.63600  0.90228  1.0000
  H   H43       1.0  0.90866  0.13600  0.59772  1.0000
  H   H44       1.0  0.09135  0.36400  0.09772  1.0000
  H   H45       1.0  0.34239  0.97517  0.49210  1.0000
  H   H46       1.0  0.65762  0.52482  0.99210  1.0000
  H   H47       1.0  0.65762  0.02482  0.50790  1.0000
  H   H48       1.0  0.34239  0.47518  0.00790  1.0000
  C   C1        1.0  0.25135  0.37955  0.24238  1.0000
  C   C2        1.0  0.74864  0.12044  0.74238  1.0000
  C   C3        1.0  0.74865  0.62045  0.75762  1.0000
  C   C4        1.0  0.25135  0.87956  0.25762  1.0000
  C   C5        1.0  0.13583  0.23996  0.24575  1.0000
  C   C6        1.0  0.86418  0.26002  0.74575  1.0000
  C   C7        1.0  0.86417  0.76004  0.75424  1.0000
  C   C8        1.0  0.13583  0.73997  0.25424  1.0000
  C   C9        1.0  0.06432  0.18402  0.31104  1.0000
  C   C10       1.0  0.93568  0.31597  0.81104  1.0000
  C   C11       1.0  0.93569  0.81598  0.68896  1.0000
  C   C12       1.0  0.06431  0.68403  0.18896  1.0000
  C   C13       1.0  0.10978  0.26989  0.36985  1.0000
  C   C14       1.0  0.89022  0.23010  0.86985  1.0000
  C   C15       1.0  0.89022  0.73011  0.63015  1.0000
  C   C16       1.0  0.10978  0.76990  0.13015  1.0000
  C   C17       1.0  0.22611  0.41068  0.36338  1.0000
  C   C18       1.0  0.77388  0.08931  0.86339  1.0000
  C   C19       1.0  0.77388  0.58932  0.63661  1.0000
  C   C20       1.0  0.22612  0.91069  0.13661  1.0000
  C   C21       1.0  0.27646  0.50699  0.42276  1.0000
  C   C22       1.0  0.72354  0.99300  0.92277  1.0000
  C   C23       1.0  0.72353  0.49301  0.57724  1.0000
  C   C24       1.0  0.27646  0.00700  0.07724  1.0000
  C   C25       1.0  0.22817  0.47018  0.49028  1.0000
  C   C26       1.0  0.77183  0.02982  0.99029  1.0000
  C   C27       1.0  0.77182  0.52982  0.50972  1.0000
  C   C28       1.0  0.22817  0.97018  0.00971  1.0000
  C   C29       1.0  0.27643  0.56143  0.55150  1.0000
  C   C30       1.0  0.72357  0.93857  0.05150  1.0000
  C   C31       1.0  0.72356  0.43857  0.44850  1.0000
  C   C32       1.0  0.27643  0.06144  0.94850  1.0000
  C   C33       1.0  0.37807  0.70603  0.54904  1.0000
  C   C34       1.0  0.62194  0.79398  0.04905  1.0000
  C   C35       1.0  0.62194  0.29397  0.45096  1.0000
  C   C36       1.0  0.37806  0.20603  0.95096  1.0000
  C   C37       1.0  0.42124  0.78167  0.61128  1.0000
  C   C38       1.0  0.57877  0.71834  0.11128  1.0000
  C   C39       1.0  0.57876  0.21833  0.38872  1.0000
  C   C40       1.0  0.42123  0.28167  0.88872  1.0000
  C   C41       1.0  0.26848  0.58630  0.67780  1.0000
  C   C42       1.0  0.73151  0.91370  0.17780  1.0000
  C   C43       1.0  0.73152  0.41370  0.32220  1.0000
  C   C44       1.0  0.26848  0.08630  0.82220  1.0000
  C   C45       1.0  0.22082  0.50251  0.61826  1.0000
  C   C46       1.0  0.77917  0.99750  0.11827  1.0000
  C   C47       1.0  0.77917  0.49749  0.38174  1.0000
  C   C48       1.0  0.22082  0.00251  0.88173  1.0000
  C   C49       1.0  0.70642  0.86914  0.39343  1.0000
  C   C50       1.0  0.29359  0.63085  0.89343  1.0000
  C   C51       1.0  0.29359  0.13085  0.60657  1.0000
  C   C52       1.0  0.70643  0.36915  0.10657  1.0000
  C   C53       1.0  0.85761  0.93663  0.44877  1.0000
  C   C54       1.0  0.14239  0.56335  0.94877  1.0000
  C   C55       1.0  0.14240  0.06335  0.55123  1.0000
  C   C56       1.0  0.85761  0.43665  0.05123  1.0000
  C   C57       1.0  0.05172  0.92353  0.44536  1.0000
  C   C58       1.0  0.94829  0.57646  0.94536  1.0000
  C   C59       1.0  0.94828  0.07646  0.55464  1.0000
  C   C60       1.0  0.05173  0.42354  0.05464  1.0000
  C   C61       1.0  0.19256  0.98630  0.49582  1.0000
  C   C62       1.0  0.80743  0.51370  0.99582  1.0000
  C   C63       1.0  0.80744  0.01370  0.50418  1.0000
  C   C64       1.0  0.19256  0.48630  0.00418  1.0000
  N   N1        1.0  0.29686  0.46322  0.29923  1.0000
  N   N2        1.0  0.70314  0.03678  0.79924  1.0000
  N   N3        1.0  0.70314  0.53678  0.70076  1.0000
  N   N4        1.0  0.29686  0.96322  0.20076  1.0000
  N   N5        1.0  0.36898  0.72392  0.67517  1.0000
  N   N6        1.0  0.63101  0.77608  0.17517  1.0000
  N   N7        1.0  0.63102  0.27608  0.32483  1.0000
  N   N8        1.0  0.36897  0.22392  0.82483  1.0000
  O   O1        1.0  0.77479  0.81816  0.34013  1.0000
  O   O2        1.0  0.22521  0.68184  0.84012  1.0000
  O   O3        1.0  0.22522  0.18184  0.65988  1.0000
  O   O4        1.0  0.77479  0.31816  0.15988  1.0000
  O   O5        1.0  0.52637  0.86551  0.40249  1.0000
  O   O6        1.0  0.47364  0.63449  0.90249  1.0000
  O   O7        1.0  0.47364  0.13448  0.59751  1.0000
  O   O8        1.0  0.52637  0.36551  0.09751  1.0000
