data_image0
_chemical_formula_structural       CuH10C14N12O4
_chemical_formula_sum              "Cu1 H10 C14 N12 O4"
_cell_length_a       6.60911
_cell_length_b       8.5202
_cell_length_c       8.94026
_cell_angle_alpha    88.9757
_cell_angle_beta     76.704
_cell_angle_gamma    73.0034

_space_group_name_H-M_alt    "P 1"
_space_group_IT_number       1

loop_
  _space_group_symop_operation_xyz
  'x, y, z'

loop_
  _atom_site_type_symbol
  _atom_site_label
  _atom_site_symmetry_multiplicity
  _atom_site_fract_x
  _atom_site_fract_y
  _atom_site_fract_z
  _atom_site_occupancy
  Cu  Cu1       1.0  1.00000  0.00000  0.50000  1.0000
  H   H1        1.0  0.34125  0.35539  0.85748  1.0000
  H   H2        1.0  0.65875  0.64461  0.14252  1.0000
  H   H3        1.0  0.41618  0.50432  0.72820  1.0000
  H   H4        1.0  0.58382  0.49567  0.27180  1.0000
  H   H5        1.0  0.03027  0.75680  0.74104  1.0000
  H   H6        1.0  0.96973  0.24321  0.25896  1.0000
  H   H7        1.0  0.21057  0.70733  0.97205  1.0000
  H   H8        1.0  0.78942  0.29267  0.02795  1.0000
  H   H9        1.0  0.38901  0.91284  0.02740  1.0000
  H   H10       1.0  0.61098  0.08716  0.97260  1.0000
  C   C1        1.0  0.42159  0.37530  0.74022  1.0000
  C   C2        1.0  0.57841  0.62470  0.25979  1.0000
  C   C3        1.0  0.24041  0.20186  0.61865  1.0000
  C   C4        1.0  0.75960  0.79814  0.38135  1.0000
  C   C5        1.0  0.22903  0.06936  0.72375  1.0000
  C   C6        1.0  0.77098  0.93064  0.27626  1.0000
  C   C7        1.0  0.11622  0.83730  0.77420  1.0000
  C   C8        1.0  0.88378  0.16271  0.22580  1.0000
  C   C9        1.0  0.21413  0.80998  0.89822  1.0000
  C   C10       1.0  0.78586  0.19002  0.10178  1.0000
  C   C11       1.0  0.31413  0.92473  0.92926  1.0000
  C   C12       1.0  0.68587  0.07527  0.07075  1.0000
  C   C13       1.0  0.66381  0.27047  0.70731  1.0000
  C   C14       1.0  0.33622  0.72953  0.29269  1.0000
  N   N1        1.0  0.12181  0.96738  0.68865  1.0000
  N   N2        1.0  0.87819  0.03262  0.31134  1.0000
  N   N3        1.0  0.30855  0.33475  0.63243  1.0000
  N   N4        1.0  0.69146  0.66525  0.36756  1.0000
  N   N5        1.0  0.18037  0.20799  0.48546  1.0000
  N   N6        1.0  0.81963  0.79201  0.51454  1.0000
  N   N7        1.0  0.29099  0.42218  0.50572  1.0000
  N   N8        1.0  0.70901  0.57782  0.49428  1.0000
  N   N9        1.0  0.32396  0.05380  0.84234  1.0000
  N   N10       1.0  0.67604  0.94620  0.15766  1.0000
  N   N11       1.0  0.21313  0.34450  0.41891  1.0000
  N   N12       1.0  0.78687  0.65550  0.58109  1.0000
  O   O1        1.0  0.71505  0.15776  0.60040  1.0000
  O   O2        1.0  0.28494  0.84223  0.39959  1.0000
  O   O3        1.0  0.77706  0.30535  0.78720  1.0000
  O   O4        1.0  0.22295  0.69464  0.21279  1.0000
