data_image0
_chemical_formula_structural       Cd6H36C48N24O24
_chemical_formula_sum              "Cd6 H36 C48 N24 O24"
_cell_length_a       12.802
_cell_length_b       12.7978
_cell_length_c       12.7336
_cell_angle_alpha    108.305
_cell_angle_beta     108.299
_cell_angle_gamma    108.501

_space_group_name_H-M_alt    "P 1"
_space_group_IT_number       1

loop_
  _space_group_symop_operation_xyz
  'x, y, z'

loop_
  _atom_site_type_symbol
  _atom_site_label
  _atom_site_symmetry_multiplicity
  _atom_site_fract_x
  _atom_site_fract_y
  _atom_site_fract_z
  _atom_site_occupancy
  Cd  Cd1       1.0  0.54322  0.81053  0.31635  1.0000
  Cd  Cd2       1.0  0.31784  0.54367  0.81117  1.0000
  Cd  Cd3       1.0  0.81192  0.31811  0.54432  1.0000
  Cd  Cd4       1.0  0.81828  0.31192  0.04432  1.0000
  Cd  Cd5       1.0  0.31063  0.04339  0.81642  1.0000
  Cd  Cd6       1.0  0.04350  0.81759  0.31107  1.0000
  H   H1        1.0  0.57139  0.40865  0.11802  1.0000
  H   H2        1.0  0.11763  0.57107  0.40805  1.0000
  H   H3        1.0  0.40869  0.11798  0.57139  1.0000
  H   H4        1.0  0.61789  0.90855  0.07129  1.0000
  H   H5        1.0  0.90880  0.07142  0.61810  1.0000
  H   H6        1.0  0.07113  0.61763  0.90804  1.0000
  H   H7        1.0  0.67069  0.97396  0.80704  1.0000
  H   H8        1.0  0.80629  0.67053  0.97397  1.0000
  H   H9        1.0  0.97384  0.80643  0.67048  1.0000
  H   H10       1.0  0.30635  0.47386  0.17048  1.0000
  H   H11       1.0  0.47393  0.17067  0.30704  1.0000
  H   H12       1.0  0.17056  0.30637  0.47398  1.0000
  H   H13       1.0  0.85351  0.91615  0.37071  1.0000
  H   H14       1.0  0.37126  0.85391  0.91722  1.0000
  H   H15       1.0  0.91600  0.37064  0.85349  1.0000
  H   H16       1.0  0.87071  0.41615  0.35358  1.0000
  H   H17       1.0  0.41599  0.35350  0.87063  1.0000
  H   H18       1.0  0.35384  0.87127  0.41723  1.0000
  H   H19       1.0  0.44875  0.64688  0.46091  1.0000
  H   H20       1.0  0.46120  0.44849  0.64644  1.0000
  H   H21       1.0  0.64698  0.46120  0.44880  1.0000
  H   H22       1.0  0.96127  0.14692  0.94877  1.0000
  H   H23       1.0  0.14695  0.94879  0.96094  1.0000
  H   H24       1.0  0.94849  0.96111  0.14644  1.0000
  H   H25       1.0  0.52518  0.74563  0.71734  1.0000
  H   H26       1.0  0.71647  0.52487  0.74518  1.0000
  H   H27       1.0  0.74575  0.71663  0.52523  1.0000
  H   H28       1.0  0.21651  0.24563  0.02515  1.0000
  H   H29       1.0  0.24566  0.02520  0.21737  1.0000
  H   H30       1.0  0.02492  0.21655  0.24526  1.0000
  H   H31       1.0  0.69399  0.02947  0.63370  1.0000
  H   H32       1.0  0.63430  0.69453  0.03025  1.0000
  H   H33       1.0  0.02956  0.63415  0.69405  1.0000
  H   H34       1.0  0.13422  0.52967  0.19412  1.0000
  H   H35       1.0  0.52943  0.19396  0.13369  1.0000
  H   H36       1.0  0.19449  0.13425  0.53019  1.0000
  C   C1        1.0  0.80179  0.81564  0.32203  1.0000
  C   C2        1.0  0.32251  0.80209  0.81634  1.0000
  C   C3        1.0  0.81552  0.32206  0.80184  1.0000
  C   C4        1.0  0.82212  0.31563  0.30190  1.0000
  C   C5        1.0  0.31552  0.30179  0.82197  1.0000
  C   C6        1.0  0.30204  0.82251  0.31635  1.0000
  C   C7        1.0  0.75527  0.62207  0.22130  1.0000
  C   C8        1.0  0.22129  0.75518  0.62202  1.0000
  C   C9        1.0  0.62205  0.22118  0.75552  1.0000
  C   C10       1.0  0.72120  0.12207  0.25551  1.0000
  C   C11       1.0  0.12206  0.25530  0.72127  1.0000
  C   C12       1.0  0.25515  0.72129  0.12200  1.0000
  C   C13       1.0  0.76715  0.51241  0.15537  1.0000
  C   C14       1.0  0.15514  0.76699  0.51206  1.0000
  C   C15       1.0  0.51257  0.15532  0.76785  1.0000
  C   C16       1.0  0.65531  0.01254  0.26781  1.0000
  C   C17       1.0  0.01249  0.26724  0.65539  1.0000
  C   C18       1.0  0.26693  0.65512  0.01200  1.0000
  C   C19       1.0  0.65331  0.62902  0.23665  1.0000
  C   C20       1.0  0.23684  0.65339  0.62913  1.0000
  C   C21       1.0  0.62892  0.23664  0.65309  1.0000
  C   C22       1.0  0.73667  0.12896  0.15309  1.0000
  C   C23       1.0  0.12894  0.15327  0.73660  1.0000
  C   C24       1.0  0.15341  0.73684  0.12917  1.0000
  C   C25       1.0  0.53001  0.53535  0.20252  1.0000
  C   C26       1.0  0.20252  0.53008  0.53524  1.0000
  C   C27       1.0  0.53533  0.20267  0.52953  1.0000
  C   C28       1.0  0.70266  0.03529  0.02952  1.0000
  C   C29       1.0  0.03534  0.02994  0.70253  1.0000
  C   C30       1.0  0.03016  0.70252  0.03529  1.0000
  C   C31       1.0  0.51003  0.74104  0.53466  1.0000
  C   C32       1.0  0.53480  0.50995  0.74087  1.0000
  C   C33       1.0  0.74115  0.53482  0.51008  1.0000
  C   C34       1.0  0.03482  0.24113  0.01007  1.0000
  C   C35       1.0  0.24108  0.01006  0.03469  1.0000
  C   C36       1.0  0.00993  0.03477  0.24085  1.0000
  C   C37       1.0  0.54697  0.78804  0.66049  1.0000
  C   C38       1.0  0.66003  0.54679  0.78779  1.0000
  C   C39       1.0  0.78809  0.66013  0.54700  1.0000
  C   C40       1.0  0.16009  0.28806  0.04698  1.0000
  C   C41       1.0  0.28805  0.04699  0.16052  1.0000
  C   C42       1.0  0.04679  0.16005  0.28781  1.0000
  C   C43       1.0  0.63622  0.93841  0.61966  1.0000
  C   C44       1.0  0.61999  0.63657  0.93884  1.0000
  C   C45       1.0  0.93852  0.61998  0.63631  1.0000
  C   C46       1.0  0.11998  0.43857  0.13634  1.0000
  C   C47       1.0  0.43839  0.13622  0.11967  1.0000
  C   C48       1.0  0.13655  0.11998  0.43881  1.0000
  N   N1        1.0  0.68529  0.75198  0.29990  1.0000
  N   N2        1.0  0.30051  0.68567  0.75260  1.0000
  N   N3        1.0  0.75182  0.30004  0.68502  1.0000
  N   N4        1.0  0.80010  0.25190  0.18506  1.0000
  N   N5        1.0  0.25185  0.18525  0.79984  1.0000
  N   N6        1.0  0.18566  0.80050  0.25263  1.0000
  N   N7        1.0  0.84800  0.74124  0.27682  1.0000
  N   N8        1.0  0.27694  0.84801  0.74150  1.0000
  N   N9        1.0  0.74117  0.27670  0.84835  1.0000
  N   N10       1.0  0.77674  0.24123  0.34837  1.0000
  N   N11       1.0  0.24119  0.34803  0.77677  1.0000
  N   N12       1.0  0.34795  0.77695  0.24148  1.0000
  N   N13       1.0  0.56642  0.83608  0.51024  1.0000
  N   N14       1.0  0.51083  0.56664  0.83631  1.0000
  N   N15       1.0  0.83624  0.51080  0.56652  1.0000
  N   N16       1.0  0.01083  0.33627  0.06653  1.0000
  N   N17       1.0  0.33609  0.06644  0.01026  1.0000
  N   N18       1.0  0.06662  0.01079  0.33627  1.0000
  N   N19       1.0  0.62623  0.91237  0.71204  1.0000
  N   N20       1.0  0.71175  0.62635  0.91254  1.0000
  N   N21       1.0  0.91244  0.71182  0.62630  1.0000
  N   N22       1.0  0.21178  0.41246  0.12631  1.0000
  N   N23       1.0  0.41236  0.12622  0.21205  1.0000
  N   N24       1.0  0.12635  0.21178  0.41254  1.0000
  O   O1        1.0  0.46025  0.56976  0.23813  1.0000
  O   O2        1.0  0.23825  0.46042  0.56974  1.0000
  O   O3        1.0  0.56995  0.23866  0.45968  1.0000
  O   O4        1.0  0.73864  0.06988  0.95966  1.0000
  O   O5        1.0  0.06977  0.96021  0.73818  1.0000
  O   O6        1.0  0.96050  0.73821  0.06981  1.0000
  O   O7        1.0  0.49593  0.41795  0.13620  1.0000
  O   O8        1.0  0.13582  0.49580  0.41740  1.0000
  O   O9        1.0  0.41799  0.13625  0.49548  1.0000
  O   O10       1.0  0.63620  0.91791  0.99544  1.0000
  O   O11       1.0  0.91798  0.99587  0.63623  1.0000
  O   O12       1.0  0.99590  0.63584  0.91744  1.0000
  O   O13       1.0  0.67163  0.40524  0.10218  1.0000
  O   O14       1.0  0.10163  0.67146  0.40455  1.0000
  O   O15       1.0  0.40536  0.10212  0.67198  1.0000
  O   O16       1.0  0.60206  0.90527  0.17194  1.0000
  O   O17       1.0  0.90538  0.17167  0.60226  1.0000
  O   O18       1.0  0.17145  0.60161  0.90447  1.0000
  O   O19       1.0  0.86790  0.52500  0.15161  1.0000
  O   O20       1.0  0.15153  0.86782  0.52484  1.0000
  O   O21       1.0  0.52500  0.15148  0.86894  1.0000
  O   O22       1.0  0.65147  0.02499  0.36891  1.0000
  O   O23       1.0  0.02504  0.36800  0.65160  1.0000
  O   O24       1.0  0.36773  0.65151  0.02479  1.0000
