data_image0
_chemical_formula_structural       U4H32C56S8O24
_chemical_formula_sum              "U4 H32 C56 S8 O24"
_cell_length_a       10.346
_cell_length_b       10.8336
_cell_length_c       14.0982
_cell_angle_alpha    88.584
_cell_angle_beta     84.4257
_cell_angle_gamma    76.9968

_space_group_name_H-M_alt    "P 1"
_space_group_IT_number       1

loop_
  _space_group_symop_operation_xyz
  'x, y, z'

loop_
  _atom_site_type_symbol
  _atom_site_label
  _atom_site_symmetry_multiplicity
  _atom_site_fract_x
  _atom_site_fract_y
  _atom_site_fract_z
  _atom_site_occupancy
  U   U1        1.0  0.69881  0.55230  0.14208  1.0000
  U   U2        1.0  0.30119  0.44770  0.85792  1.0000
  U   U3        1.0  0.18182  0.63077  0.19735  1.0000
  U   U4        1.0  0.81818  0.36924  0.80265  1.0000
  H   H1        1.0  0.28427  0.97680  0.04506  1.0000
  H   H2        1.0  0.71573  0.02320  0.95494  1.0000
  H   H3        1.0  0.31212  0.13101  0.91384  1.0000
  H   H4        1.0  0.68788  0.86899  0.08616  1.0000
  H   H5        1.0  0.46992  0.06300  0.77193  1.0000
  H   H6        1.0  0.53008  0.93701  0.22807  1.0000
  H   H7        1.0  0.57928  0.68711  0.89189  1.0000
  H   H8        1.0  0.42071  0.31289  0.10811  1.0000
  H   H9        1.0  0.26410  0.55180  0.46381  1.0000
  H   H10       1.0  0.73590  0.44820  0.53619  1.0000
  H   H11       1.0  0.24471  0.41546  0.60827  1.0000
  H   H12       1.0  0.75529  0.58454  0.39173  1.0000
  H   H13       1.0  0.40696  0.21473  0.62611  1.0000
  H   H14       1.0  0.59303  0.78527  0.37389  1.0000
  H   H15       1.0  0.61307  0.27800  0.35392  1.0000
  H   H16       1.0  0.38693  0.72200  0.64608  1.0000
  H   H17       1.0  0.78887  0.74937  0.88030  1.0000
  H   H18       1.0  0.21113  0.25063  0.11970  1.0000
  H   H19       1.0  0.99050  0.03045  0.75367  1.0000
  H   H20       1.0  0.00950  0.96955  0.24633  1.0000
  H   H21       1.0  0.15324  0.98228  0.87378  1.0000
  H   H22       1.0  0.84675  0.01773  0.12622  1.0000
  H   H23       1.0  0.12961  0.82504  0.00236  1.0000
  H   H24       1.0  0.87039  0.17496  0.99764  1.0000
  H   H25       1.0  0.82360  0.26875  0.28357  1.0000
  H   H26       1.0  0.17640  0.73126  0.71643  1.0000
  H   H27       1.0  0.92656  0.09809  0.55376  1.0000
  H   H28       1.0  0.07344  0.90191  0.44624  1.0000
  H   H29       1.0  0.07060  0.24893  0.57134  1.0000
  H   H30       1.0  0.92940  0.75108  0.42866  1.0000
  H   H31       1.0  0.09286  0.40991  0.44369  1.0000
  H   H32       1.0  0.90713  0.59010  0.55631  1.0000
  C   C1        1.0  0.41634  0.73349  0.05483  1.0000
  C   C2        1.0  0.58366  0.26651  0.94516  1.0000
  C   C3        1.0  0.42852  0.82308  0.97529  1.0000
  C   C4        1.0  0.57148  0.17693  0.02470  1.0000
  C   C5        1.0  0.35292  0.94766  0.98194  1.0000
  C   C6        1.0  0.64708  0.05234  0.01806  1.0000
  C   C7        1.0  0.36907  0.03347  0.90886  1.0000
  C   C8        1.0  0.63093  0.96653  0.09114  1.0000
  C   C9        1.0  0.45790  0.99526  0.82866  1.0000
  C   C10       1.0  0.54210  0.00474  0.17134  1.0000
  C   C11       1.0  0.53343  0.87031  0.82235  1.0000
  C   C12       1.0  0.46657  0.12969  0.17765  1.0000
  C   C13       1.0  0.51967  0.78401  0.89572  1.0000
  C   C14       1.0  0.48033  0.21600  0.10428  1.0000
  C   C15       1.0  0.45184  0.50006  0.31339  1.0000
  C   C16       1.0  0.54817  0.49993  0.68661  1.0000
  C   C17       1.0  0.44042  0.42252  0.40075  1.0000
  C   C18       1.0  0.55958  0.57747  0.59925  1.0000
  C   C19       1.0  0.33511  0.46199  0.47162  1.0000
  C   C20       1.0  0.66489  0.53801  0.52838  1.0000
  C   C21       1.0  0.32472  0.38592  0.55191  1.0000
  C   C22       1.0  0.67528  0.61408  0.44809  1.0000
  C   C23       1.0  0.41675  0.27176  0.56212  1.0000
  C   C24       1.0  0.58325  0.72824  0.43788  1.0000
  C   C25       1.0  0.52153  0.23214  0.49070  1.0000
  C   C26       1.0  0.47847  0.76785  0.50930  1.0000
  C   C27       1.0  0.53371  0.30820  0.41052  1.0000
  C   C28       1.0  0.46629  0.69180  0.58948  1.0000
  C   C29       1.0  0.93960  0.69062  0.02979  1.0000
  C   C30       1.0  0.06040  0.30938  0.97021  1.0000
  C   C31       1.0  0.95661  0.77951  0.94994  1.0000
  C   C32       1.0  0.04339  0.22049  0.05006  1.0000
  C   C33       1.0  0.86667  0.80249  0.87929  1.0000
  C   C34       1.0  0.13333  0.19751  0.12071  1.0000
  C   C35       1.0  0.87922  0.89320  0.80895  1.0000
  C   C36       1.0  0.12078  0.10680  0.19105  1.0000
  C   C37       1.0  0.98249  0.95827  0.80779  1.0000
  C   C38       1.0  0.01751  0.04174  0.19221  1.0000
  C   C39       1.0  0.07268  0.93246  0.87637  1.0000
  C   C40       1.0  0.92732  0.06754  0.12363  1.0000
  C   C41       1.0  0.06007  0.84399  0.94798  1.0000
  C   C42       1.0  0.93993  0.15601  0.05202  1.0000
  C   C43       1.0  0.96496  0.44743  0.28272  1.0000
  C   C44       1.0  0.03504  0.55257  0.71727  1.0000
  C   C45       1.0  0.95778  0.34983  0.35717  1.0000
  C   C46       1.0  0.04222  0.65017  0.64283  1.0000
  C   C47       1.0  0.87728  0.26397  0.34675  1.0000
  C   C48       1.0  0.12271  0.73604  0.65325  1.0000
  C   C49       1.0  0.86868  0.17188  0.41645  1.0000
  C   C50       1.0  0.13131  0.82812  0.58355  1.0000
  C   C51       1.0  0.93698  0.16766  0.49808  1.0000
  C   C52       1.0  0.06302  0.83235  0.50192  1.0000
  C   C53       1.0  0.01716  0.25349  0.50806  1.0000
  C   C54       1.0  0.98284  0.74651  0.49194  1.0000
  C   C55       1.0  0.02918  0.34360  0.43742  1.0000
  C   C56       1.0  0.97082  0.65640  0.56258  1.0000
  S   S1        1.0  0.65091  0.81679  0.72241  1.0000
  S   S2        1.0  0.34909  0.18321  0.27759  1.0000
  S   S3        1.0  0.63271  0.08536  0.51090  1.0000
  S   S4        1.0  0.36729  0.91464  0.48910  1.0000
  S   S5        1.0  0.77087  0.94215  0.71836  1.0000
  S   S6        1.0  0.22913  0.05785  0.28165  1.0000
  S   S7        1.0  0.77048  0.06110  0.39566  1.0000
  S   S8        1.0  0.22952  0.93890  0.60434  1.0000
  O   O1        1.0  0.67604  0.69558  0.21111  1.0000
  O   O2        1.0  0.32396  0.30442  0.78889  1.0000
  O   O3        1.0  0.84260  0.63483  0.03386  1.0000
  O   O4        1.0  0.15740  0.36517  0.96614  1.0000
  O   O5        1.0  0.56005  0.47687  0.25853  1.0000
  O   O6        1.0  0.43996  0.52313  0.74147  1.0000
  O   O7        1.0  0.51474  0.64108  0.06681  1.0000
  O   O8        1.0  0.48526  0.35892  0.93319  1.0000
  O   O9        1.0  0.72049  0.40798  0.07543  1.0000
  O   O10       1.0  0.27951  0.59202  0.92457  1.0000
  O   O11       1.0  0.88265  0.46256  0.21910  1.0000
  O   O12       1.0  0.11734  0.53744  0.78090  1.0000
  O   O13       1.0  0.26486  0.48999  0.13127  1.0000
  O   O14       1.0  0.73514  0.51001  0.86873  1.0000
  O   O15       1.0  0.30800  0.75300  0.10968  1.0000
  O   O16       1.0  0.69201  0.24700  0.89031  1.0000
  O   O17       1.0  0.05222  0.51325  0.28520  1.0000
  O   O18       1.0  0.94779  0.48675  0.71480  1.0000
  O   O19       1.0  0.35067  0.58734  0.29598  1.0000
  O   O20       1.0  0.64933  0.41265  0.70402  1.0000
  O   O21       1.0  0.02109  0.67450  0.09400  1.0000
  O   O22       1.0  0.97891  0.32550  0.90600  1.0000
  O   O23       1.0  0.09997  0.76736  0.26906  1.0000
  O   O24       1.0  0.90003  0.23263  0.73094  1.0000
