data_image0
_chemical_formula_structural       Co6H18C36O18
_chemical_formula_sum              "Co6 H18 C36 O18"
_cell_length_a       6.87633
_cell_length_b       15.1726
_cell_length_c       15.1821
_cell_angle_alpha    117.774
_cell_angle_beta     98.7005
_cell_angle_gamma    98.6707

_space_group_name_H-M_alt    "P 1"
_space_group_IT_number       1

loop_
  _space_group_symop_operation_xyz
  'x, y, z'

loop_
  _atom_site_type_symbol
  _atom_site_label
  _atom_site_symmetry_multiplicity
  _atom_site_fract_x
  _atom_site_fract_y
  _atom_site_fract_z
  _atom_site_occupancy
  Co  Co1       1.0  0.12060  0.59060  0.32024  1.0000
  Co  Co2       1.0  0.53001  0.72950  0.40912  1.0000
  Co  Co3       1.0  0.80040  0.67946  0.27054  1.0000
  Co  Co4       1.0  0.87940  0.40940  0.67975  1.0000
  Co  Co5       1.0  0.46999  0.27050  0.59088  1.0000
  Co  Co6       1.0  0.19961  0.32054  0.72946  1.0000
  H   H1        1.0  0.37084  0.02294  0.55220  1.0000
  H   H2        1.0  0.34786  0.52943  0.97713  1.0000
  H   H3        1.0  0.81851  0.44768  0.47076  1.0000
  H   H4        1.0  0.62916  0.97706  0.44780  1.0000
  H   H5        1.0  0.65213  0.47056  0.02287  1.0000
  H   H6        1.0  0.18150  0.55232  0.52923  1.0000
  H   H7        1.0  0.92666  0.37173  0.23197  1.0000
  H   H8        1.0  0.55539  0.86063  0.62798  1.0000
  H   H9        1.0  0.69545  0.76737  0.13959  1.0000
  H   H10       1.0  0.07334  0.62827  0.76804  1.0000
  H   H11       1.0  0.44460  0.13936  0.37203  1.0000
  H   H12       1.0  0.30454  0.23263  0.86041  1.0000
  H   H13       1.0  0.38953  0.46139  0.21641  1.0000
  H   H14       1.0  0.92800  0.75478  0.53826  1.0000
  H   H15       1.0  0.17400  0.78357  0.24537  1.0000
  H   H16       1.0  0.61046  0.53861  0.78358  1.0000
  H   H17       1.0  0.07199  0.24522  0.46174  1.0000
  H   H18       1.0  0.82598  0.21643  0.75463  1.0000
  C   C1        1.0  0.17803  0.82551  0.43857  1.0000
  C   C2        1.0  0.35235  0.61309  0.17444  1.0000
  C   C3        1.0  0.73906  0.56110  0.38676  1.0000
  C   C4        1.0  0.82197  0.17449  0.56143  1.0000
  C   C5        1.0  0.64764  0.38691  0.82555  1.0000
  C   C6        1.0  0.26095  0.43891  0.61324  1.0000
  C   C7        1.0  0.08166  0.91291  0.46663  1.0000
  C   C8        1.0  0.16868  0.55379  0.08706  1.0000
  C   C9        1.0  0.61473  0.53310  0.44608  1.0000
  C   C10       1.0  0.91836  0.08709  0.53337  1.0000
  C   C11       1.0  0.83132  0.44621  0.91294  1.0000
  C   C12       1.0  0.38527  0.46690  0.55392  1.0000
  C   C13       1.0  0.86763  0.89951  0.43573  1.0000
  C   C14       1.0  0.96801  0.53617  0.10039  1.0000
  C   C15       1.0  0.43174  0.56413  0.46366  1.0000
  C   C16       1.0  0.13238  0.10049  0.56427  1.0000
  C   C17       1.0  0.03199  0.46383  0.89961  1.0000
  C   C18       1.0  0.56825  0.43587  0.53634  1.0000
  C   C19       1.0  0.20752  0.01255  0.52921  1.0000
  C   C20       1.0  0.19495  0.51677  0.98750  1.0000
  C   C21       1.0  0.67820  0.47071  0.48333  1.0000
  C   C22       1.0  0.79249  0.98745  0.47079  1.0000
  C   C23       1.0  0.80504  0.48322  0.01250  1.0000
  C   C24       1.0  0.32180  0.52929  0.51666  1.0000
  C   C25       1.0  0.07215  0.40446  0.22817  1.0000
  C   C26       1.0  0.66791  0.82392  0.59516  1.0000
  C   C27       1.0  0.84485  0.77139  0.17625  1.0000
  C   C28       1.0  0.92785  0.59555  0.77183  1.0000
  C   C29       1.0  0.33209  0.17608  0.40485  1.0000
  C   C30       1.0  0.15514  0.22860  0.82375  1.0000
  C   C31       1.0  0.23919  0.43665  0.22164  1.0000
  C   C32       1.0  0.80247  0.78488  0.56293  1.0000
  C   C33       1.0  0.01847  0.77823  0.21523  1.0000
  C   C34       1.0  0.76080  0.56335  0.77836  1.0000
  C   C35       1.0  0.19753  0.21512  0.43707  1.0000
  C   C36       1.0  0.98152  0.22177  0.78477  1.0000
  O   O1        1.0  0.05965  0.73351  0.39493  1.0000
  O   O2        1.0  0.32586  0.66110  0.26641  1.0000
  O   O3        1.0  0.66447  0.60499  0.33864  1.0000
  O   O4        1.0  0.94036  0.26649  0.60507  1.0000
  O   O5        1.0  0.67414  0.33890  0.73358  1.0000
  O   O6        1.0  0.33553  0.39501  0.66135  1.0000
  O   O7        1.0  0.37021  0.84290  0.45995  1.0000
  O   O8        1.0  0.52720  0.61737  0.15713  1.0000
  O   O9        1.0  0.90971  0.53955  0.38256  1.0000
  O   O10       1.0  0.62979  0.15710  0.54006  1.0000
  O   O11       1.0  0.47280  0.38263  0.84287  1.0000
  O   O12       1.0  0.09031  0.46045  0.61744  1.0000
  O   O13       1.0  0.73427  0.80759  0.37352  1.0000
  O   O14       1.0  0.92659  0.56595  0.19227  1.0000
  O   O15       1.0  0.36044  0.62626  0.43386  1.0000
  O   O16       1.0  0.26574  0.19241  0.62648  1.0000
  O   O17       1.0  0.07340  0.43405  0.80773  1.0000
  O   O18       1.0  0.63957  0.37374  0.56614  1.0000
