data_image0
_chemical_formula_structural       Zn4H44C44N12O20
_chemical_formula_sum              "Zn4 H44 C44 N12 O20"
_cell_length_a       7.37265
_cell_length_b       10.7934
_cell_length_c       16.0897
_cell_angle_alpha    89.998
_cell_angle_beta     98.9669
_cell_angle_gamma    90.0022

_space_group_name_H-M_alt    "P 1"
_space_group_IT_number       1

loop_
  _space_group_symop_operation_xyz
  'x, y, z'

loop_
  _atom_site_type_symbol
  _atom_site_label
  _atom_site_symmetry_multiplicity
  _atom_site_fract_x
  _atom_site_fract_y
  _atom_site_fract_z
  _atom_site_occupancy
  Zn  Zn1       1.0  0.08990  0.19829  0.10183  1.0000
  Zn  Zn2       1.0  0.91005  0.69828  0.39816  1.0000
  Zn  Zn3       1.0  0.91009  0.80171  0.89817  1.0000
  Zn  Zn4       1.0  0.08995  0.30171  0.60183  1.0000
  H   H1        1.0  0.63729  0.25294  0.98197  1.0000
  H   H2        1.0  0.36265  0.75291  0.51802  1.0000
  H   H3        1.0  0.36271  0.74710  0.01803  1.0000
  H   H4        1.0  0.63735  0.24707  0.48197  1.0000
  H   H5        1.0  0.58690  0.40856  0.94982  1.0000
  H   H6        1.0  0.41306  0.90853  0.55017  1.0000
  H   H7        1.0  0.41312  0.59148  0.05019  1.0000
  H   H8        1.0  0.58695  0.09145  0.44982  1.0000
  H   H9        1.0  0.69014  0.37604  0.05507  1.0000
  H   H10       1.0  0.30981  0.87600  0.44493  1.0000
  H   H11       1.0  0.30989  0.62399  0.94494  1.0000
  H   H12       1.0  0.69019  0.12399  0.55507  1.0000
  H   H13       1.0  0.36612  0.05534  0.07446  1.0000
  H   H14       1.0  0.63384  0.55534  0.42554  1.0000
  H   H15       1.0  0.63386  0.94465  0.92553  1.0000
  H   H16       1.0  0.36616  0.44465  0.57446  1.0000
  H   H17       1.0  0.19861  0.01402  0.00122  1.0000
  H   H18       1.0  0.80137  0.51401  0.49877  1.0000
  H   H19       1.0  0.80137  0.98598  0.99877  1.0000
  H   H20       1.0  0.19863  0.48597  0.50122  1.0000
  H   H21       1.0  0.13804  0.35219  0.26633  1.0000
  H   H22       1.0  0.86190  0.85220  0.23367  1.0000
  H   H23       1.0  0.86196  0.64778  0.73366  1.0000
  H   H24       1.0  0.13809  0.14780  0.76633  1.0000
  H   H25       1.0  0.92024  0.43797  0.35892  1.0000
  H   H26       1.0  0.07970  0.93799  0.14109  1.0000
  H   H27       1.0  0.07977  0.56201  0.64108  1.0000
  H   H28       1.0  0.92029  0.06203  0.85892  1.0000
  H   H29       1.0  0.59131  0.37620  0.32980  1.0000
  H   H30       1.0  0.40863  0.87623  0.17019  1.0000
  H   H31       1.0  0.40869  0.62378  0.67020  1.0000
  H   H32       1.0  0.59137  0.12381  0.82981  1.0000
  H   H33       1.0  0.80400  0.47361  0.85582  1.0000
  H   H34       1.0  0.19598  0.97354  0.64419  1.0000
  H   H35       1.0  0.19604  0.52644  0.14419  1.0000
  H   H36       1.0  0.80404  0.02643  0.35581  1.0000
  H   H37       1.0  0.29905  0.30388  0.96535  1.0000
  H   H38       1.0  0.70090  0.80385  0.53466  1.0000
  H   H39       1.0  0.70096  0.69614  0.03466  1.0000
  H   H40       1.0  0.29911  0.19613  0.46534  1.0000
  H   H41       1.0  0.14075  0.44719  0.83085  1.0000
  H   H42       1.0  0.85923  0.94713  0.66916  1.0000
  H   H43       1.0  0.85928  0.55285  0.16916  1.0000
  H   H44       1.0  0.14079  0.05284  0.33084  1.0000
  C   C1        1.0  0.68621  0.34918  0.98905  1.0000
  C   C2        1.0  0.31374  0.84914  0.51095  1.0000
  C   C3        1.0  0.31381  0.65086  0.01096  1.0000
  C   C4        1.0  0.68627  0.15084  0.48905  1.0000
  C   C5        1.0  0.43330  0.20880  0.21677  1.0000
  C   C6        1.0  0.56664  0.70881  0.28322  1.0000
  C   C7        1.0  0.56669  0.79119  0.78323  1.0000
  C   C8        1.0  0.43335  0.29120  0.71678  1.0000
  C   C9        1.0  0.76476  0.19987  0.18599  1.0000
  C   C10       1.0  0.23519  0.69988  0.31401  1.0000
  C   C11       1.0  0.23524  0.80011  0.81400  1.0000
  C   C12       1.0  0.76480  0.30012  0.68599  1.0000
  C   C13       1.0  0.63309  0.24651  0.23196  1.0000
  C   C14       1.0  0.36686  0.74652  0.26804  1.0000
  C   C15       1.0  0.36691  0.75348  0.76804  1.0000
  C   C16       1.0  0.63313  0.25350  0.73197  1.0000
  C   C17       1.0  0.72742  0.09699  0.12198  1.0000
  C   C18       1.0  0.27255  0.59699  0.37802  1.0000
  C   C19       1.0  0.27257  0.90300  0.87801  1.0000
  C   C20       1.0  0.72745  0.40301  0.62198  1.0000
  C   C21       1.0  0.99394  0.32506  0.25857  1.0000
  C   C22       1.0  0.00600  0.82507  0.24144  1.0000
  C   C23       1.0  0.00606  0.67492  0.74143  1.0000
  C   C24       1.0  0.99399  0.17494  0.75857  1.0000
  C   C25       1.0  0.87319  0.37210  0.30919  1.0000
  C   C26       1.0  0.12675  0.87212  0.19082  1.0000
  C   C27       1.0  0.12682  0.62788  0.69081  1.0000
  C   C28       1.0  0.87324  0.12790  0.80919  1.0000
  C   C29       1.0  0.86962  0.36036  0.96267  1.0000
  C   C30       1.0  0.13033  0.86033  0.53733  1.0000
  C   C31       1.0  0.13039  0.63967  0.03734  1.0000
  C   C32       1.0  0.86968  0.13965  0.46267  1.0000
  C   C33       1.0  0.15989  0.33799  0.94983  1.0000
  C   C34       1.0  0.84007  0.83795  0.55018  1.0000
  C   C35       1.0  0.84013  0.66203  0.05018  1.0000
  C   C36       1.0  0.15994  0.16203  0.44982  1.0000
  C   C37       1.0  0.69036  0.33546  0.29400  1.0000
  C   C38       1.0  0.30959  0.83548  0.20600  1.0000
  C   C39       1.0  0.30965  0.66452  0.70600  1.0000
  C   C40       1.0  0.69041  0.16454  0.79401  1.0000
  C   C41       1.0  0.08295  0.41029  0.88363  1.0000
  C   C42       1.0  0.91702  0.91024  0.61638  1.0000
  C   C43       1.0  0.91708  0.58974  0.11638  1.0000
  C   C44       1.0  0.08299  0.08974  0.38362  1.0000
  N   N1        1.0  0.93900  0.24306  0.19739  1.0000
  N   N2        1.0  0.06095  0.74306  0.30261  1.0000
  N   N3        1.0  0.06100  0.75693  0.80261  1.0000
  N   N4        1.0  0.93904  0.25694  0.69738  1.0000
  N   N5        1.0  0.02720  0.30809  0.99865  1.0000
  N   N6        1.0  0.97274  0.80807  0.50135  1.0000
  N   N7        1.0  0.97281  0.69192  0.00135  1.0000
  N   N8        1.0  0.02726  0.19191  0.49865  1.0000
  N   N9        1.0  0.90113  0.42360  0.89330  1.0000
  N   N10       1.0  0.09885  0.92355  0.60670  1.0000
  N   N11       1.0  0.09890  0.57643  0.10671  1.0000
  N   N12       1.0  0.90117  0.07642  0.39330  1.0000
  O   O1        1.0  0.33619  0.27097  0.15675  1.0000
  O   O2        1.0  0.66376  0.77096  0.34324  1.0000
  O   O3        1.0  0.66381  0.72902  0.84324  1.0000
  O   O4        1.0  0.33624  0.22903  0.65676  1.0000
  O   O5        1.0  0.23137  0.05976  0.05589  1.0000
  O   O6        1.0  0.76859  0.55975  0.44410  1.0000
  O   O7        1.0  0.76861  0.94023  0.94410  1.0000
  O   O8        1.0  0.23141  0.44024  0.55590  1.0000
  O   O9        1.0  0.37825  0.13004  0.26354  1.0000
  O   O10       1.0  0.62168  0.63005  0.23644  1.0000
  O   O11       1.0  0.62174  0.86996  0.73645  1.0000
  O   O12       1.0  0.37829  0.36996  0.76355  1.0000
  O   O13       1.0  0.85672  0.07597  0.07845  1.0000
  O   O14       1.0  0.14325  0.57595  0.42154  1.0000
  O   O15       1.0  0.14326  0.92404  0.92153  1.0000
  O   O16       1.0  0.85674  0.42404  0.57845  1.0000
  O   O17       1.0  0.58143  0.03633  0.11612  1.0000
  O   O18       1.0  0.41853  0.53634  0.38386  1.0000
  O   O19       1.0  0.41855  0.96366  0.88387  1.0000
  O   O20       1.0  0.58147  0.46366  0.61613  1.0000
