data_image0
_chemical_formula_structural       Ag4H36C56N12O8F12
_chemical_formula_sum              "Ag4 H36 C56 N12 O8 F12"
_cell_length_a       10.7495
_cell_length_b       11.4184
_cell_length_c       14.171
_cell_angle_alpha    90.2751
_cell_angle_beta     112.248
_cell_angle_gamma    118.09

_space_group_name_H-M_alt    "P 1"
_space_group_IT_number       1

loop_
  _space_group_symop_operation_xyz
  'x, y, z'

loop_
  _atom_site_type_symbol
  _atom_site_label
  _atom_site_symmetry_multiplicity
  _atom_site_fract_x
  _atom_site_fract_y
  _atom_site_fract_z
  _atom_site_occupancy
  Ag  Ag1       1.0  0.25957  0.36375  0.94449  1.0000
  Ag  Ag2       1.0  0.45152  0.13642  0.55555  1.0000
  Ag  Ag3       1.0  0.74043  0.63625  0.05551  1.0000
  Ag  Ag4       1.0  0.54848  0.86358  0.44445  1.0000
  H   H1        1.0  0.93056  0.15187  0.38947  1.0000
  H   H2        1.0  0.88902  0.34808  0.11066  1.0000
  H   H3        1.0  0.06944  0.84813  0.61053  1.0000
  H   H4        1.0  0.11098  0.65192  0.88934  1.0000
  H   H5        1.0  0.12956  0.41874  0.72310  1.0000
  H   H6        1.0  0.48789  0.08143  0.77699  1.0000
  H   H7        1.0  0.87044  0.58126  0.27690  1.0000
  H   H8        1.0  0.51211  0.91857  0.22301  1.0000
  H   H9        1.0  0.07385  0.34041  0.54036  1.0000
  H   H10       1.0  0.69310  0.15931  0.95963  1.0000
  H   H11       1.0  0.92615  0.65958  0.45964  1.0000
  H   H12       1.0  0.30691  0.84069  0.04037  1.0000
  H   H13       1.0  0.29767  0.10699  0.65710  1.0000
  H   H14       1.0  0.03374  0.39312  0.84289  1.0000
  H   H15       1.0  0.70233  0.89301  0.34291  1.0000
  H   H16       1.0  0.96626  0.60689  0.15711  1.0000
  H   H17       1.0  0.35087  0.20106  0.83673  1.0000
  H   H18       1.0  0.81341  0.29923  0.66328  1.0000
  H   H19       1.0  0.64913  0.79894  0.16327  1.0000
  H   H20       1.0  0.18659  0.70077  0.33672  1.0000
  H   H21       1.0  0.82924  0.07050  0.16859  1.0000
  H   H22       1.0  0.09002  0.42959  0.33160  1.0000
  H   H23       1.0  0.17076  0.92950  0.83141  1.0000
  H   H24       1.0  0.90998  0.57041  0.66840  1.0000
  H   H25       1.0  0.90400  0.98719  0.04730  1.0000
  H   H26       1.0  0.36924  0.51285  0.45267  1.0000
  H   H27       1.0  0.09600  0.01281  0.95271  1.0000
  H   H28       1.0  0.63076  0.48715  0.54733  1.0000
  H   H29       1.0  0.14790  0.98012  0.11427  1.0000
  H   H30       1.0  0.55304  0.51969  0.38544  1.0000
  H   H31       1.0  0.85210  0.01988  0.88573  1.0000
  H   H32       1.0  0.44696  0.48031  0.61456  1.0000
  H   H33       1.0  0.32597  0.05171  0.30542  1.0000
  H   H34       1.0  0.46825  0.44804  0.19421  1.0000
  H   H35       1.0  0.67403  0.94829  0.69458  1.0000
  H   H36       1.0  0.53175  0.55196  0.80579  1.0000
  C   C1        1.0  0.16319  0.34806  0.70519  1.0000
  C   C2        1.0  0.61010  0.15202  0.79485  1.0000
  C   C3        1.0  0.83681  0.65194  0.29481  1.0000
  C   C4        1.0  0.38990  0.84798  0.20515  1.0000
  C   C5        1.0  0.13215  0.30375  0.60305  1.0000
  C   C6        1.0  0.72542  0.19609  0.89694  1.0000
  C   C7        1.0  0.86784  0.69625  0.39695  1.0000
  C   C8        1.0  0.27457  0.80391  0.10306  1.0000
  C   C9        1.0  0.18174  0.21623  0.58319  1.0000
  C   C10       1.0  0.88232  0.28369  0.91678  1.0000
  C   C11       1.0  0.81826  0.78377  0.41681  1.0000
  C   C12       1.0  0.11768  0.71632  0.08322  1.0000
  C   C13       1.0  0.26175  0.17850  0.66894  1.0000
  C   C14       1.0  0.91447  0.32161  0.83105  1.0000
  C   C15       1.0  0.73825  0.82151  0.33106  1.0000
  C   C16       1.0  0.08553  0.67839  0.16894  1.0000
  C   C17       1.0  0.28845  0.22801  0.76853  1.0000
  C   C18       1.0  0.79215  0.27220  0.73148  1.0000
  C   C19       1.0  0.71155  0.77199  0.23147  1.0000
  C   C20       1.0  0.20785  0.72781  0.26853  1.0000
  C   C21       1.0  0.15363  0.16832  0.47750  1.0000
  C   C22       1.0  0.00757  0.33156  0.02250  1.0000
  C   C23       1.0  0.84637  0.83168  0.52251  1.0000
  C   C24       1.0  0.99243  0.66844  0.97750  1.0000
  C   C25       1.0  0.03518  0.10373  0.30430  1.0000
  C   C26       1.0  0.12683  0.39623  0.19570  1.0000
  C   C27       1.0  0.96482  0.89626  0.69570  1.0000
  C   C28       1.0  0.87317  0.60377  0.80430  1.0000
  C   C29       1.0  0.93533  0.06519  0.19762  1.0000
  C   C30       1.0  0.17226  0.43481  0.30240  1.0000
  C   C31       1.0  0.06467  0.93481  0.80238  1.0000
  C   C32       1.0  0.82774  0.56519  0.69760  1.0000
  C   C33       1.0  0.97909  0.02017  0.13105  1.0000
  C   C34       1.0  0.32760  0.47990  0.36888  1.0000
  C   C35       1.0  0.02091  0.97983  0.86895  1.0000
  C   C36       1.0  0.67240  0.52010  0.63112  1.0000
  C   C37       1.0  0.11821  0.01554  0.16942  1.0000
  C   C38       1.0  0.43286  0.48441  0.33038  1.0000
  C   C39       1.0  0.88180  0.98446  0.83058  1.0000
  C   C40       1.0  0.56714  0.51559  0.66962  1.0000
  C   C41       1.0  0.21813  0.05453  0.27552  1.0000
  C   C42       1.0  0.38764  0.44535  0.22426  1.0000
  C   C43       1.0  0.78187  0.94546  0.72448  1.0000
  C   C44       1.0  0.61236  0.55465  0.77574  1.0000
  C   C45       1.0  0.17420  0.09773  0.34372  1.0000
  C   C46       1.0  0.23241  0.40222  0.15621  1.0000
  C   C47       1.0  0.82580  0.90227  0.65628  1.0000
  C   C48       1.0  0.76759  0.59778  0.84379  1.0000
  C   C49       1.0  0.61558  0.33360  0.08082  1.0000
  C   C50       1.0  0.70148  0.16644  0.41949  1.0000
  C   C51       1.0  0.38442  0.66640  0.91918  1.0000
  C   C52       1.0  0.29852  0.83356  0.58051  1.0000
  C   C53       1.0  0.52149  0.18191  0.08618  1.0000
  C   C54       1.0  0.75348  0.31802  0.41387  1.0000
  C   C55       1.0  0.47851  0.81809  0.91382  1.0000
  C   C56       1.0  0.24652  0.68198  0.58613  1.0000
  N   N1        1.0  0.23910  0.31044  0.78733  1.0000
  N   N2        1.0  0.64158  0.18980  0.71271  1.0000
  N   N3        1.0  0.76090  0.68956  0.21267  1.0000
  N   N4        1.0  0.35842  0.81020  0.28729  1.0000
  N   N5        1.0  0.24540  0.13859  0.45191  1.0000
  N   N6        1.0  0.15463  0.36139  0.04803  1.0000
  N   N7        1.0  0.75460  0.86141  0.54809  1.0000
  N   N8        1.0  0.84537  0.63861  0.95197  1.0000
  N   N9        1.0  0.02733  0.15017  0.39057  1.0000
  N   N10       1.0  0.98633  0.34981  0.10945  1.0000
  N   N11       1.0  0.97267  0.84983  0.60942  1.0000
  N   N12       1.0  0.01367  0.65019  0.89055  1.0000
  O   O1        1.0  0.53264  0.38343  0.03610  1.0000
  O   O2        1.0  0.61353  0.11668  0.46434  1.0000
  O   O3        1.0  0.46736  0.61657  0.96390  1.0000
  O   O4        1.0  0.38647  0.88332  0.53567  1.0000
  O   O5        1.0  0.76232  0.38932  0.12180  1.0000
  O   O6        1.0  0.75151  0.11069  0.37847  1.0000
  O   O7        1.0  0.23768  0.61068  0.87820  1.0000
  O   O8        1.0  0.24849  0.88931  0.62153  1.0000
  F   F1        1.0  0.42181  0.09985  0.98726  1.0000
  F   F2        1.0  0.83451  0.40034  0.51266  1.0000
  F   F3        1.0  0.57819  0.90015  0.01274  1.0000
  F   F4        1.0  0.16549  0.59966  0.48734  1.0000
  F   F5        1.0  0.43182  0.16592  0.13735  1.0000
  F   F6        1.0  0.62852  0.33370  0.36258  1.0000
  F   F7        1.0  0.56818  0.83408  0.86265  1.0000
  F   F8        1.0  0.37148  0.66629  0.63742  1.0000
  F   F9        1.0  0.61403  0.12997  0.13500  1.0000
  F   F10       1.0  0.84914  0.36993  0.36500  1.0000
  F   F11       1.0  0.38597  0.87003  0.86500  1.0000
  F   F12       1.0  0.15086  0.63007  0.63501  1.0000
