data_image0
_chemical_formula_structural       Nb2Ag2H16C20N4O2F8
_chemical_formula_sum              "Nb2 Ag2 H16 C20 N4 O2 F8"
_cell_length_a       3.95229
_cell_length_b       13.7487
_cell_length_c       13.7575
_cell_angle_alpha    69.0677
_cell_angle_beta     81.1106
_cell_angle_gamma    81.1199

_space_group_name_H-M_alt    "P 1"
_space_group_IT_number       1

loop_
  _space_group_symop_operation_xyz
  'x, y, z'

loop_
  _atom_site_type_symbol
  _atom_site_label
  _atom_site_symmetry_multiplicity
  _atom_site_fract_x
  _atom_site_fract_y
  _atom_site_fract_z
  _atom_site_occupancy
  Nb  Nb1       1.0  0.92496  0.26241  0.26206  1.0000
  Nb  Nb2       1.0  0.07477  0.73792  0.73752  1.0000
  Ag  Ag1       1.0  0.50006  0.50049  0.99952  1.0000
  Ag  Ag2       1.0  0.49973  0.00059  0.49944  1.0000
  H   H1        1.0  0.71488  0.51925  0.76935  1.0000
  H   H2        1.0  0.28547  0.23102  0.48073  1.0000
  H   H3        1.0  0.28465  0.48077  0.23007  1.0000
  H   H4        1.0  0.71407  0.76977  0.51933  1.0000
  H   H5        1.0  0.69140  0.41767  0.65380  1.0000
  H   H6        1.0  0.30920  0.34646  0.58243  1.0000
  H   H7        1.0  0.30726  0.58185  0.34624  1.0000
  H   H8        1.0  0.69090  0.65357  0.41831  1.0000
  H   H9        1.0  0.32550  0.16831  0.92887  1.0000
  H   H10       1.0  0.67386  0.07094  0.83152  1.0000
  H   H11       1.0  0.67760  0.83130  0.07206  1.0000
  H   H12       1.0  0.32465  0.92818  0.16862  1.0000
  H   H13       1.0  0.35818  0.27967  0.03319  1.0000
  H   H14       1.0  0.64086  0.96676  0.72006  1.0000
  H   H15       1.0  0.64551  0.72044  0.96711  1.0000
  H   H16       1.0  0.35689  0.03312  0.27945  1.0000
  C   C1        1.0  0.62824  0.44138  0.80162  1.0000
  C   C2        1.0  0.37183  0.19863  0.55857  1.0000
  C   C3        1.0  0.37188  0.55855  0.19815  1.0000
  C   C4        1.0  0.62754  0.80174  0.44152  1.0000
  C   C5        1.0  0.61448  0.38389  0.73752  1.0000
  C   C6        1.0  0.38579  0.26266  0.61612  1.0000
  C   C7        1.0  0.38533  0.61574  0.26260  1.0000
  C   C8        1.0  0.61379  0.73731  0.38436  1.0000
  C   C9        1.0  0.41815  0.24499  0.89003  1.0000
  C   C10       1.0  0.58141  0.10993  0.75488  1.0000
  C   C11       1.0  0.58411  0.75470  0.11055  1.0000
  C   C12       1.0  0.41726  0.88959  0.24527  1.0000
  C   C13       1.0  0.50820  0.28303  0.78143  1.0000
  C   C14       1.0  0.49180  0.21860  0.71693  1.0000
  C   C15       1.0  0.49234  0.71648  0.21905  1.0000
  C   C16       1.0  0.50782  0.78097  0.28355  1.0000
  C   C17       1.0  0.43419  0.30725  0.94912  1.0000
  C   C18       1.0  0.56518  0.05091  0.69257  1.0000
  C   C19       1.0  0.56829  0.69275  0.05112  1.0000
  C   C20       1.0  0.43320  0.94902  0.30720  1.0000
  N   N1        1.0  0.53798  0.40404  0.90585  1.0000
  N   N2        1.0  0.46163  0.09431  0.59584  1.0000
  N   N3        1.0  0.46326  0.59612  0.09399  1.0000
  N   N4        1.0  0.53727  0.90603  0.40388  1.0000
  O   O1        1.0  0.47134  0.26249  0.26231  1.0000
  O   O2        1.0  0.52835  0.73771  0.73741  1.0000
  F   F1        1.0  0.89021  0.34858  0.34945  1.0000
  F   F2        1.0  0.10947  0.65026  0.65161  1.0000
  F   F3        1.0  0.07100  0.17562  0.17452  1.0000
  F   F4        1.0  0.92873  0.82559  0.82417  1.0000
  F   F5        1.0  0.98724  0.38620  0.13830  1.0000
  F   F6        1.0  0.01261  0.86161  0.61368  1.0000
  F   F7        1.0  0.01225  0.61502  0.86219  1.0000
  F   F8        1.0  0.98742  0.13779  0.38499  1.0000
