data_image0
_chemical_formula_structural       Nb4Ag4H16C16N8O4F16
_chemical_formula_sum              "Nb4 Ag4 H16 C16 N8 O4 F16"
_cell_length_a       7.83565
_cell_length_b       8.08675
_cell_length_c       15.1768
_cell_angle_alpha    89.9997
_cell_angle_beta     90.0008
_cell_angle_gamma    118.992

_space_group_name_H-M_alt    "P 1"
_space_group_IT_number       1

loop_
  _space_group_symop_operation_xyz
  'x, y, z'

loop_
  _atom_site_type_symbol
  _atom_site_label
  _atom_site_symmetry_multiplicity
  _atom_site_fract_x
  _atom_site_fract_y
  _atom_site_fract_z
  _atom_site_occupancy
  Nb  Nb1       1.0  0.96620  0.00000  0.24775  1.0000
  Nb  Nb2       1.0  0.53381  0.00001  0.74774  1.0000
  Nb  Nb3       1.0  0.46620  1.00000  0.25225  1.0000
  Nb  Nb4       1.0  0.03381  0.00000  0.75225  1.0000
  Ag  Ag1       1.0  0.25322  0.00000  0.97862  1.0000
  Ag  Ag2       1.0  0.24678  1.00000  0.47862  1.0000
  Ag  Ag3       1.0  0.75322  1.00000  0.52138  1.0000
  Ag  Ag4       1.0  0.74678  1.00000  0.02138  1.0000
  H   H1        1.0  0.03743  0.70979  0.12200  1.0000
  H   H2        1.0  0.46256  0.29021  0.62198  1.0000
  H   H3        1.0  0.82766  0.29016  0.37800  1.0000
  H   H4        1.0  0.67234  0.70984  0.87802  1.0000
  H   H5        1.0  0.96257  0.29021  0.87801  1.0000
  H   H6        1.0  0.53743  0.70979  0.37801  1.0000
  H   H7        1.0  0.17234  0.70985  0.62199  1.0000
  H   H8        1.0  0.32764  0.29015  0.12199  1.0000
  H   H9        1.0  0.13673  0.64180  0.85749  1.0000
  H   H10       1.0  0.36327  0.35820  0.35748  1.0000
  H   H11       1.0  0.99511  0.35825  0.64249  1.0000
  H   H12       1.0  0.50486  0.64175  0.14251  1.0000
  H   H13       1.0  0.86327  0.35819  0.14252  1.0000
  H   H14       1.0  0.63674  0.64180  0.64252  1.0000
  H   H15       1.0  0.00486  0.64175  0.35750  1.0000
  H   H16       1.0  0.49513  0.35826  0.85751  1.0000
  C   C1        1.0  0.02152  0.61619  0.06746  1.0000
  C   C2        1.0  0.47847  0.38380  0.56746  1.0000
  C   C3        1.0  0.90531  0.38376  0.43253  1.0000
  C   C4        1.0  0.59470  0.61625  0.93254  1.0000
  C   C5        1.0  0.97848  0.38380  0.93255  1.0000
  C   C6        1.0  0.52153  0.61620  0.43254  1.0000
  C   C7        1.0  0.09466  0.61622  0.56744  1.0000
  C   C8        1.0  0.40533  0.38378  0.06746  1.0000
  C   C9        1.0  0.07529  0.57909  0.92121  1.0000
  C   C10       1.0  0.42471  0.42090  0.42120  1.0000
  C   C11       1.0  0.99626  0.42093  0.57879  1.0000
  C   C12       1.0  0.50373  0.57907  0.07878  1.0000
  C   C13       1.0  0.92472  0.42091  0.07880  1.0000
  C   C14       1.0  0.57528  0.57910  0.57879  1.0000
  C   C15       1.0  0.00372  0.57907  0.42122  1.0000
  C   C16       1.0  0.49627  0.42092  0.92123  1.0000
  N   N1        1.0  0.09682  0.69546  0.98885  1.0000
  N   N2        1.0  0.40318  0.30454  0.48883  1.0000
  N   N3        1.0  0.90145  0.30453  0.51114  1.0000
  N   N4        1.0  0.59853  0.69546  0.01117  1.0000
  N   N5        1.0  0.90319  0.30454  0.01116  1.0000
  N   N6        1.0  0.59682  0.69546  0.51117  1.0000
  N   N7        1.0  0.09853  0.69546  0.48885  1.0000
  N   N8        1.0  0.40146  0.30454  0.98885  1.0000
  O   O1        1.0  0.74144  0.99999  0.22489  1.0000
  O   O2        1.0  0.75856  0.00000  0.72489  1.0000
  O   O3        1.0  0.24144  0.99999  0.27511  1.0000
  O   O4        1.0  0.25857  0.00002  0.77511  1.0000
  F   F1        1.0  0.04323  0.99988  0.12532  1.0000
  F   F2        1.0  0.45677  0.00010  0.62531  1.0000
  F   F3        1.0  0.54323  0.99989  0.37468  1.0000
  F   F4        1.0  0.95677  0.00011  0.87468  1.0000
  F   F5        1.0  0.13394  0.27133  0.24890  1.0000
  F   F6        1.0  0.36606  0.72868  0.74891  1.0000
  F   F7        1.0  0.36249  0.72867  0.25097  1.0000
  F   F8        1.0  0.13752  0.27133  0.75097  1.0000
  F   F9        1.0  0.86607  0.72868  0.75109  1.0000
  F   F10       1.0  0.63394  0.27132  0.25109  1.0000
  F   F11       1.0  0.63753  0.27133  0.74902  1.0000
  F   F12       1.0  0.86248  0.72867  0.24903  1.0000
  F   F13       1.0  0.54999  0.99986  0.87548  1.0000
  F   F14       1.0  0.95003  0.00018  0.37548  1.0000
  F   F15       1.0  0.04999  0.99985  0.62452  1.0000
  F   F16       1.0  0.45001  0.00015  0.12452  1.0000
