data_image0
_chemical_formula_structural       Nb2Cu2H16C20N4O2F8
_chemical_formula_sum              "Nb2 Cu2 H16 C20 N4 O2 F8"
_cell_length_a       3.94671
_cell_length_b       13.2968
_cell_length_c       13.2967
_cell_angle_alpha    109.348
_cell_angle_beta     89.9997
_cell_angle_gamma    90.0003

_space_group_name_H-M_alt    "P 1"
_space_group_IT_number       1

loop_
  _space_group_symop_operation_xyz
  'x, y, z'

loop_
  _atom_site_type_symbol
  _atom_site_label
  _atom_site_symmetry_multiplicity
  _atom_site_fract_x
  _atom_site_fract_y
  _atom_site_fract_z
  _atom_site_occupancy
  Nb  Nb1       1.0  0.10799  0.75001  0.24998  1.0000
  Nb  Nb2       1.0  0.89200  0.25002  0.74998  1.0000
  Cu  Cu1       1.0  0.50000  0.00000  0.50000  1.0000
  Cu  Cu2       1.0  0.50001  0.50001  0.00000  1.0000
  H   H1        1.0  0.31246  0.03472  0.71836  1.0000
  H   H2        1.0  0.31262  0.46527  0.78164  1.0000
  H   H3        1.0  0.68755  0.78163  0.46527  1.0000
  H   H4        1.0  0.68747  0.71836  0.03474  1.0000
  H   H5        1.0  0.68743  0.96527  0.28164  1.0000
  H   H6        1.0  0.68751  0.53473  0.21836  1.0000
  H   H7        1.0  0.31250  0.21836  0.53473  1.0000
  H   H8        1.0  0.31247  0.28163  0.96526  1.0000
  H   H9        1.0  0.30645  0.92621  0.83741  1.0000
  H   H10       1.0  0.30655  0.57379  0.66261  1.0000
  H   H11       1.0  0.69353  0.66261  0.57381  1.0000
  H   H12       1.0  0.69347  0.83740  0.92622  1.0000
  H   H13       1.0  0.69350  0.07378  0.16259  1.0000
  H   H14       1.0  0.69353  0.42620  0.33740  1.0000
  H   H15       1.0  0.30650  0.33738  0.42620  1.0000
  H   H16       1.0  0.30648  0.16261  0.07380  1.0000
  C   C1        1.0  0.39767  0.95232  0.68956  1.0000
  C   C2        1.0  0.39775  0.54768  0.81045  1.0000
  C   C3        1.0  0.60234  0.81046  0.54768  1.0000
  C   C4        1.0  0.60230  0.68955  0.95233  1.0000
  C   C5        1.0  0.60227  0.04766  0.31043  1.0000
  C   C6        1.0  0.60232  0.45231  0.18955  1.0000
  C   C7        1.0  0.39770  0.18954  0.45230  1.0000
  C   C8        1.0  0.39765  0.31045  0.04766  1.0000
  C   C9        1.0  0.39628  0.89075  0.75573  1.0000
  C   C10       1.0  0.39636  0.60926  0.74427  1.0000
  C   C11       1.0  0.60371  0.74425  0.60926  1.0000
  C   C12       1.0  0.60368  0.75576  0.89075  1.0000
  C   C13       1.0  0.60364  0.10925  0.24426  1.0000
  C   C14       1.0  0.60371  0.39075  0.25573  1.0000
  C   C15       1.0  0.39630  0.25576  0.39074  1.0000
  C   C16       1.0  0.39630  0.24425  0.10925  1.0000
  C   C17       1.0  0.50000  0.78391  0.71610  1.0000
  C   C18       1.0  0.50000  0.71609  0.78393  1.0000
  C   C19       1.0  0.50000  0.21609  0.28391  1.0000
  C   C20       1.0  0.50001  0.28390  0.21609  1.0000
  N   N1        1.0  0.50001  0.91332  0.58668  1.0000
  N   N2        1.0  0.50003  0.58666  0.91334  1.0000
  N   N3        1.0  0.49999  0.08665  0.41332  1.0000
  N   N4        1.0  0.49998  0.41332  0.08667  1.0000
  O   O1        1.0  0.56271  0.75003  0.25000  1.0000
  O   O2        1.0  0.43729  0.25002  0.75000  1.0000
  F   F1        1.0  0.04432  0.87556  0.37559  1.0000
  F   F2        1.0  0.04431  0.62438  0.12442  1.0000
  F   F3        1.0  0.95571  0.12439  0.62441  1.0000
  F   F4        1.0  0.95568  0.37557  0.87560  1.0000
  F   F5        1.0  0.05345  0.66087  0.33915  1.0000
  F   F6        1.0  0.05333  0.83917  0.16084  1.0000
  F   F7        1.0  0.94656  0.16087  0.83914  1.0000
  F   F8        1.0  0.94667  0.33917  0.66083  1.0000
