data_image0
_chemical_formula_structural       Zn4H52C58Br2N6O16
_chemical_formula_sum              "Zn4 H52 C58 Br2 N6 O16"
_cell_length_a       7.96207
_cell_length_b       15.0153
_cell_length_c       15.0436
_cell_angle_alpha    60.0865
_cell_angle_beta     75.0576
_cell_angle_gamma    75.118

_space_group_name_H-M_alt    "P 1"
_space_group_IT_number       1

loop_
  _space_group_symop_operation_xyz
  'x, y, z'

loop_
  _atom_site_type_symbol
  _atom_site_label
  _atom_site_symmetry_multiplicity
  _atom_site_fract_x
  _atom_site_fract_y
  _atom_site_fract_z
  _atom_site_occupancy
  Zn  Zn1       1.0  0.11203  0.40431  0.01956  1.0000
  Zn  Zn2       1.0  0.38766  0.98045  0.59569  1.0000
  Zn  Zn3       1.0  0.88797  0.59569  0.98044  1.0000
  Zn  Zn4       1.0  0.61234  0.01955  0.40431  1.0000
  H   H1        1.0  0.64892  0.61835  0.55497  1.0000
  H   H2        1.0  0.85111  0.44437  0.38209  1.0000
  H   H3        1.0  0.35109  0.38163  0.44504  1.0000
  H   H4        1.0  0.14890  0.55563  0.61789  1.0000
  H   H5        1.0  0.64896  0.78235  0.39157  1.0000
  H   H6        1.0  0.85145  0.60774  0.21802  1.0000
  H   H7        1.0  0.35104  0.21764  0.60844  1.0000
  H   H8        1.0  0.14855  0.39227  0.78197  1.0000
  H   H9        1.0  0.53535  0.89352  0.25354  1.0000
  H   H10       1.0  0.96515  0.74624  0.10646  1.0000
  H   H11       1.0  0.46465  0.10649  0.74647  1.0000
  H   H12       1.0  0.03484  0.25376  0.89354  1.0000
  H   H13       1.0  0.37695  0.02865  0.23742  1.0000
  H   H14       1.0  0.12365  0.76235  0.97140  1.0000
  H   H15       1.0  0.62305  0.97136  0.76258  1.0000
  H   H16       1.0  0.87635  0.23765  0.02860  1.0000
  H   H17       1.0  0.17245  0.19446  0.20030  1.0000
  H   H18       1.0  0.32762  0.79957  0.80556  1.0000
  H   H19       1.0  0.82756  0.80554  0.79970  1.0000
  H   H20       1.0  0.67238  0.20043  0.19444  1.0000
  H   H21       1.0  0.39967  0.33194  0.89182  1.0000
  H   H22       1.0  0.09949  0.10823  0.66820  1.0000
  H   H23       1.0  0.60033  0.66806  0.10817  1.0000
  H   H24       1.0  0.90051  0.89176  0.33181  1.0000
  H   H25       1.0  0.61259  0.16845  0.91469  1.0000
  H   H26       1.0  0.88716  0.08521  0.83177  1.0000
  H   H27       1.0  0.38741  0.83155  0.08531  1.0000
  H   H28       1.0  0.11284  0.91478  0.16823  1.0000
  H   H29       1.0  0.62437  0.39993  0.31515  1.0000
  H   H30       1.0  0.87609  0.68446  0.60036  1.0000
  H   H31       1.0  0.37564  0.60007  0.68485  1.0000
  H   H32       1.0  0.12390  0.31555  0.39964  1.0000
  H   H33       1.0  0.56108  0.33923  0.25622  1.0000
  H   H34       1.0  0.93905  0.74407  0.66047  1.0000
  H   H35       1.0  0.43892  0.66077  0.74378  1.0000
  H   H36       1.0  0.06095  0.25593  0.33953  1.0000
  H   H37       1.0  0.73775  0.27386  0.32817  1.0000
  H   H38       1.0  0.76253  0.67170  0.72614  1.0000
  H   H39       1.0  0.26225  0.72614  0.67183  1.0000
  H   H40       1.0  0.23746  0.32830  0.27386  1.0000
  H   H41       1.0  0.56539  0.46459  0.86657  1.0000
  H   H42       1.0  0.93464  0.13350  0.53529  1.0000
  H   H43       1.0  0.43461  0.53541  0.13343  1.0000
  H   H44       1.0  0.06536  0.86650  0.46471  1.0000
  H   H45       1.0  0.74186  0.49273  0.76142  1.0000
  H   H46       1.0  0.75858  0.23888  0.50724  1.0000
  H   H47       1.0  0.25814  0.50727  0.23858  1.0000
  H   H48       1.0  0.24142  0.76112  0.49276  1.0000
  H   H49       1.0  0.73673  0.36232  0.85989  1.0000
  H   H50       1.0  0.76329  0.14026  0.63743  1.0000
  H   H51       1.0  0.26327  0.63768  0.14011  1.0000
  H   H52       1.0  0.23671  0.85975  0.36257  1.0000
  C   C1        1.0  0.75003  0.52195  0.47793  1.0000
  C   C2        1.0  0.24998  0.47804  0.52206  1.0000
  C   C3        1.0  0.69275  0.61651  0.48098  1.0000
  C   C4        1.0  0.80738  0.51859  0.38366  1.0000
  C   C5        1.0  0.30726  0.38348  0.51902  1.0000
  C   C6        1.0  0.19264  0.48141  0.61633  1.0000
  C   C7        1.0  0.69268  0.70888  0.38811  1.0000
  C   C8        1.0  0.80766  0.61143  0.29125  1.0000
  C   C9        1.0  0.30732  0.29111  0.61189  1.0000
  C   C10       1.0  0.19235  0.38857  0.70874  1.0000
  C   C11       1.0  0.75022  0.70793  0.29191  1.0000
  C   C12       1.0  0.24978  0.29207  0.70810  1.0000
  C   C13       1.0  0.75021  0.80619  0.19369  1.0000
  C   C14       1.0  0.24978  0.19381  0.80631  1.0000
  C   C15       1.0  0.62981  0.89541  0.18600  1.0000
  C   C16       1.0  0.87061  0.81383  0.10457  1.0000
  C   C17       1.0  0.37019  0.10460  0.81400  1.0000
  C   C18       1.0  0.12938  0.18617  0.89543  1.0000
  C   C19       1.0  0.63389  0.98699  0.09136  1.0000
  C   C20       1.0  0.86644  0.90853  0.01303  1.0000
  C   C21       1.0  0.36611  0.01301  0.90864  1.0000
  C   C22       1.0  0.13355  0.09147  0.98697  1.0000
  C   C23       1.0  0.51019  0.08385  0.07729  1.0000
  C   C24       1.0  0.99003  0.92256  0.91622  1.0000
  C   C25       1.0  0.48982  0.91615  0.92271  1.0000
  C   C26       1.0  0.00997  0.07744  0.08378  1.0000
  C   C27       1.0  0.38509  0.09217  0.15854  1.0000
  C   C28       1.0  0.11525  0.84130  0.90787  1.0000
  C   C29       1.0  0.61492  0.90783  0.84146  1.0000
  C   C30       1.0  0.88475  0.15870  0.09213  1.0000
  C   C31       1.0  0.27233  0.18518  0.13932  1.0000
  C   C32       1.0  0.22768  0.86056  0.81484  1.0000
  C   C33       1.0  0.72768  0.81482  0.86068  1.0000
  C   C34       1.0  0.77233  0.13943  0.18516  1.0000
  C   C35       1.0  0.39965  0.26189  0.96635  1.0000
  C   C36       1.0  0.09988  0.03361  0.73819  1.0000
  C   C37       1.0  0.60035  0.73812  0.03365  1.0000
  C   C38       1.0  0.90013  0.96639  0.26181  1.0000
  C   C39       1.0  0.51675  0.17192  0.97951  1.0000
  C   C40       1.0  0.98311  0.02041  0.82818  1.0000
  C   C41       1.0  0.48325  0.82808  0.02049  1.0000
  C   C42       1.0  0.01689  0.97959  0.17182  1.0000
  C   C43       1.0  0.79719  0.40461  0.17723  1.0000
  C   C44       1.0  0.70289  0.82260  0.59534  1.0000
  C   C45       1.0  0.20281  0.59539  0.82278  1.0000
  C   C46       1.0  0.29710  0.17741  0.40466  1.0000
  C   C47       1.0  0.67452  0.35069  0.27640  1.0000
  C   C48       1.0  0.82572  0.72351  0.64931  1.0000
  C   C49       1.0  0.32548  0.64931  0.72360  1.0000
  C   C50       1.0  0.17428  0.27650  0.35070  1.0000
  C   C51       1.0  0.81221  0.46285  0.90273  1.0000
  C   C52       1.0  0.68755  0.09736  0.53721  1.0000
  C   C53       1.0  0.18779  0.53716  0.09727  1.0000
  C   C54       1.0  0.31243  0.90264  0.46280  1.0000
  C   C55       1.0  0.70684  0.44348  0.84525  1.0000
  C   C56       1.0  0.79324  0.15491  0.55641  1.0000
  C   C57       1.0  0.29316  0.55652  0.15475  1.0000
  C   C58       1.0  0.20675  0.84509  0.44359  1.0000
  Br  Br1       1.0  0.75003  0.39532  0.60457  1.0000
  Br  Br2       1.0  0.24997  0.60465  0.39540  1.0000
  N   N1        1.0  0.27834  0.26865  0.04485  1.0000
  N   N2        1.0  0.22126  0.95509  0.73135  1.0000
  N   N3        1.0  0.72166  0.73135  0.95515  1.0000
  N   N4        1.0  0.77874  0.04491  0.26865  1.0000
  N   N5        1.0  0.75015  0.99295  0.00702  1.0000
  N   N6        1.0  0.24985  0.00705  0.99298  1.0000
  O   O1        1.0  0.93008  0.34846  0.15238  1.0000
  O   O2        1.0  0.56988  0.84749  0.65137  1.0000
  O   O3        1.0  0.06993  0.65154  0.84762  1.0000
  O   O4        1.0  0.43011  0.15252  0.34862  1.0000
  O   O5        1.0  0.75691  0.50271  0.12417  1.0000
  O   O6        1.0  0.74314  0.87552  0.49733  1.0000
  O   O7        1.0  0.24309  0.49729  0.87583  1.0000
  O   O8        1.0  0.25686  0.12448  0.50266  1.0000
  O   O9        1.0  0.94437  0.39447  0.93827  1.0000
  O   O10       1.0  0.55527  0.06179  0.60558  1.0000
  O   O11       1.0  0.05562  0.60553  0.06173  1.0000
  O   O12       1.0  0.44473  0.93821  0.39443  1.0000
  O   O13       1.0  0.76397  0.54660  0.91025  1.0000
  O   O14       1.0  0.73568  0.08984  0.45358  1.0000
  O   O15       1.0  0.23603  0.45340  0.08975  1.0000
  O   O16       1.0  0.26431  0.91017  0.54642  1.0000
