data_image0
_chemical_formula_structural       Gd4H44C68O24
_chemical_formula_sum              "Gd4 H44 C68 O24"
_cell_length_a       6.73991
_cell_length_b       12.8893
_cell_length_c       17.125
_cell_angle_alpha    90
_cell_angle_beta     93.656
_cell_angle_gamma    90

_space_group_name_H-M_alt    "P 1"
_space_group_IT_number       1

loop_
  _space_group_symop_operation_xyz
  'x, y, z'

loop_
  _atom_site_type_symbol
  _atom_site_label
  _atom_site_symmetry_multiplicity
  _atom_site_fract_x
  _atom_site_fract_y
  _atom_site_fract_z
  _atom_site_occupancy
  Gd  Gd1       1.0  0.61597  0.62764  0.54766  1.0000
  Gd  Gd2       1.0  0.88403  0.12764  0.45234  1.0000
  Gd  Gd3       1.0  0.38403  0.37236  0.45234  1.0000
  Gd  Gd4       1.0  0.11597  0.87236  0.54766  1.0000
  H   H1        1.0  0.11175  0.78740  0.79075  1.0000
  H   H2        1.0  0.38825  0.28740  0.20925  1.0000
  H   H3        1.0  0.88825  0.21260  0.20924  1.0000
  H   H4        1.0  0.61175  0.71260  0.79076  1.0000
  H   H5        1.0  0.04435  0.75722  0.92933  1.0000
  H   H6        1.0  0.45564  0.25721  0.07067  1.0000
  H   H7        1.0  0.95564  0.24279  0.07067  1.0000
  H   H8        1.0  0.54436  0.74279  0.92933  1.0000
  H   H9        1.0  0.75542  0.46853  0.86333  1.0000
  H   H10       1.0  0.74458  0.96853  0.13667  1.0000
  H   H11       1.0  0.24458  0.53147  0.13667  1.0000
  H   H12       1.0  0.25542  0.03147  0.86333  1.0000
  H   H13       1.0  0.82269  0.50114  0.72438  1.0000
  H   H14       1.0  0.67731  0.00114  0.27562  1.0000
  H   H15       1.0  0.17731  0.49886  0.27562  1.0000
  H   H16       1.0  0.32269  0.99886  0.72438  1.0000
  H   H17       1.0  0.76617  0.51533  0.99341  1.0000
  H   H18       1.0  0.73383  0.01533  0.00659  1.0000
  H   H19       1.0  0.23383  0.48467  0.00659  1.0000
  H   H20       1.0  0.26617  0.98467  0.99341  1.0000
  H   H21       1.0  0.92178  0.73255  0.04111  1.0000
  H   H22       1.0  0.57822  0.23256  0.95889  1.0000
  H   H23       1.0  0.07822  0.26744  0.95889  1.0000
  H   H24       1.0  0.42178  0.76745  0.04111  1.0000
  H   H25       1.0  0.92992  0.76993  0.17712  1.0000
  H   H26       1.0  0.57008  0.26993  0.82288  1.0000
  H   H27       1.0  0.07008  0.23007  0.82288  1.0000
  H   H28       1.0  0.42992  0.73007  0.17713  1.0000
  H   H29       1.0  0.84603  0.72732  0.31298  1.0000
  H   H30       1.0  0.65397  0.22732  0.68702  1.0000
  H   H31       1.0  0.15397  0.27268  0.68702  1.0000
  H   H32       1.0  0.34603  0.77268  0.31298  1.0000
  H   H33       1.0  0.56295  0.44630  0.23026  1.0000
  H   H34       1.0  0.93706  0.94630  0.76974  1.0000
  H   H35       1.0  0.43706  0.55370  0.76974  1.0000
  H   H36       1.0  0.06294  0.05370  0.23026  1.0000
  H   H37       1.0  0.63861  0.48804  0.09471  1.0000
  H   H38       1.0  0.86140  0.98804  0.90529  1.0000
  H   H39       1.0  0.36140  0.51196  0.90529  1.0000
  H   H40       1.0  0.13860  0.01196  0.09471  1.0000
  H   H41       1.0  0.54901  0.86939  0.45210  1.0000
  H   H42       1.0  0.95098  0.36939  0.54790  1.0000
  H   H43       1.0  0.45099  0.13061  0.54790  1.0000
  H   H44       1.0  0.04901  0.63061  0.45210  1.0000
  C   C1        1.0  0.99661  0.67288  0.66543  1.0000
  C   C2        1.0  0.50339  0.17288  0.33457  1.0000
  C   C3        1.0  0.00339  0.32712  0.33457  1.0000
  C   C4        1.0  0.49661  0.82712  0.66543  1.0000
  C   C5        1.0  0.97113  0.64681  0.74903  1.0000
  C   C6        1.0  0.52887  0.14681  0.25097  1.0000
  C   C7        1.0  0.02887  0.35319  0.25097  1.0000
  C   C8        1.0  0.47113  0.85319  0.74903  1.0000
  C   C9        1.0  0.03442  0.71766  0.80768  1.0000
  C   C10       1.0  0.46558  0.21766  0.19232  1.0000
  C   C11       1.0  0.96558  0.28234  0.19232  1.0000
  C   C12       1.0  0.53442  0.78234  0.80768  1.0000
  C   C13       1.0  0.99526  0.70039  0.88507  1.0000
  C   C14       1.0  0.50474  0.20038  0.11493  1.0000
  C   C15       1.0  0.00474  0.29962  0.11493  1.0000
  C   C16       1.0  0.49526  0.79962  0.88507  1.0000
  C   C17       1.0  0.89032  0.61120  0.90637  1.0000
  C   C18       1.0  0.60968  0.11120  0.09363  1.0000
  C   C19       1.0  0.10968  0.38880  0.09363  1.0000
  C   C20       1.0  0.39032  0.88880  0.90637  1.0000
  C   C21       1.0  0.83392  0.53865  0.84739  1.0000
  C   C22       1.0  0.66608  0.03865  0.15261  1.0000
  C   C23       1.0  0.16608  0.46135  0.15261  1.0000
  C   C24       1.0  0.33392  0.96135  0.84739  1.0000
  C   C25       1.0  0.87173  0.55636  0.76973  1.0000
  C   C26       1.0  0.62827  0.05636  0.23027  1.0000
  C   C27       1.0  0.12827  0.44365  0.23027  1.0000
  C   C28       1.0  0.37173  0.94364  0.76973  1.0000
  C   C29       1.0  0.83309  0.59153  0.98536  1.0000
  C   C30       1.0  0.66691  0.09153  0.01464  1.0000
  C   C31       1.0  0.16691  0.40847  0.01464  1.0000
  C   C32       1.0  0.33309  0.90847  0.98536  1.0000
  C   C33       1.0  0.85243  0.65656  0.04759  1.0000
  C   C34       1.0  0.64757  0.15656  0.95241  1.0000
  C   C35       1.0  0.14757  0.34344  0.95241  1.0000
  C   C36       1.0  0.35243  0.84344  0.04759  1.0000
  C   C37       1.0  0.79286  0.63213  0.12566  1.0000
  C   C38       1.0  0.70715  0.13213  0.87434  1.0000
  C   C39       1.0  0.20715  0.36787  0.87434  1.0000
  C   C40       1.0  0.29285  0.86787  0.12566  1.0000
  C   C41       1.0  0.84770  0.69918  0.18856  1.0000
  C   C42       1.0  0.65230  0.19918  0.81143  1.0000
  C   C43       1.0  0.15230  0.30082  0.81144  1.0000
  C   C44       1.0  0.34770  0.80082  0.18856  1.0000
  C   C45       1.0  0.80210  0.67540  0.26466  1.0000
  C   C46       1.0  0.69790  0.17540  0.73535  1.0000
  C   C47       1.0  0.19790  0.32460  0.73534  1.0000
  C   C48       1.0  0.30210  0.82460  0.26466  1.0000
  C   C49       1.0  0.69967  0.58368  0.27982  1.0000
  C   C50       1.0  0.80033  0.08368  0.72018  1.0000
  C   C51       1.0  0.30033  0.41632  0.72018  1.0000
  C   C52       1.0  0.19967  0.91632  0.27982  1.0000
  C   C53       1.0  0.64183  0.51730  0.21742  1.0000
  C   C54       1.0  0.85818  0.01730  0.78258  1.0000
  C   C55       1.0  0.35818  0.48270  0.78258  1.0000
  C   C56       1.0  0.14182  0.98270  0.21742  1.0000
  C   C57       1.0  0.68537  0.54143  0.14174  1.0000
  C   C58       1.0  0.81464  0.04143  0.85826  1.0000
  C   C59       1.0  0.31463  0.45857  0.85826  1.0000
  C   C60       1.0  0.18536  0.95857  0.14174  1.0000
  C   C61       1.0  0.64888  0.55383  0.36021  1.0000
  C   C62       1.0  0.85112  0.05384  0.63979  1.0000
  C   C63       1.0  0.35112  0.44617  0.63979  1.0000
  C   C64       1.0  0.14887  0.94617  0.36021  1.0000
  C   C65       1.0  0.70499  0.86971  0.47623  1.0000
  C   C66       1.0  0.79501  0.36971  0.52377  1.0000
  C   C67       1.0  0.29501  0.13029  0.52377  1.0000
  C   C68       1.0  0.20499  0.63029  0.47623  1.0000
  O   O1        1.0  0.91866  0.61184  0.61253  1.0000
  O   O2        1.0  0.58134  0.11184  0.38747  1.0000
  O   O3        1.0  0.08134  0.38816  0.38747  1.0000
  O   O4        1.0  0.41866  0.88816  0.61253  1.0000
  O   O5        1.0  0.08703  0.75579  0.65019  1.0000
  O   O6        1.0  0.41297  0.25579  0.34981  1.0000
  O   O7        1.0  0.91297  0.24421  0.34981  1.0000
  O   O8        1.0  0.58703  0.74421  0.65019  1.0000
  O   O9        1.0  0.68925  0.61787  0.41607  1.0000
  O   O10       1.0  0.81075  0.11787  0.58393  1.0000
  O   O11       1.0  0.31074  0.38213  0.58393  1.0000
  O   O12       1.0  0.18925  0.88212  0.41607  1.0000
  O   O13       1.0  0.56589  0.46590  0.36742  1.0000
  O   O14       1.0  0.93411  0.96590  0.63258  1.0000
  O   O15       1.0  0.43411  0.53410  0.63258  1.0000
  O   O16       1.0  0.06589  0.03410  0.36742  1.0000
  O   O17       1.0  0.78019  0.78870  0.50902  1.0000
  O   O18       1.0  0.71981  0.28870  0.49098  1.0000
  O   O19       1.0  0.21981  0.21130  0.49098  1.0000
  O   O20       1.0  0.28019  0.71130  0.50902  1.0000
  O   O21       1.0  0.80939  0.95066  0.47056  1.0000
  O   O22       1.0  0.69061  0.45066  0.52944  1.0000
  O   O23       1.0  0.19061  0.04934  0.52944  1.0000
  O   O24       1.0  0.30939  0.54934  0.47056  1.0000
