data_image0
_chemical_formula_structural       Sm4H44C68O24
_chemical_formula_sum              "Sm4 H44 C68 O24"
_cell_length_a       6.77402
_cell_length_b       13.0407
_cell_length_c       17.142
_cell_angle_alpha    90
_cell_angle_beta     93.815
_cell_angle_gamma    90

_space_group_name_H-M_alt    "P 1"
_space_group_IT_number       1

loop_
  _space_group_symop_operation_xyz
  'x, y, z'

loop_
  _atom_site_type_symbol
  _atom_site_label
  _atom_site_symmetry_multiplicity
  _atom_site_fract_x
  _atom_site_fract_y
  _atom_site_fract_z
  _atom_site_occupancy
  Sm  Sm1       1.0  0.61663  0.62745  0.54816  1.0000
  Sm  Sm2       1.0  0.88336  0.12745  0.45184  1.0000
  Sm  Sm3       1.0  0.38337  0.37255  0.45184  1.0000
  Sm  Sm4       1.0  0.11663  0.87255  0.54816  1.0000
  H   H1        1.0  0.11624  0.78571  0.79253  1.0000
  H   H2        1.0  0.38377  0.28572  0.20747  1.0000
  H   H3        1.0  0.88376  0.21429  0.20747  1.0000
  H   H4        1.0  0.61623  0.71429  0.79253  1.0000
  H   H5        1.0  0.04761  0.75521  0.93062  1.0000
  H   H6        1.0  0.45240  0.25521  0.06938  1.0000
  H   H7        1.0  0.95239  0.24479  0.06938  1.0000
  H   H8        1.0  0.54761  0.74479  0.93062  1.0000
  H   H9        1.0  0.75737  0.47105  0.86298  1.0000
  H   H10       1.0  0.74262  0.97105  0.13702  1.0000
  H   H11       1.0  0.24263  0.52895  0.13702  1.0000
  H   H12       1.0  0.25738  0.02895  0.86298  1.0000
  H   H13       1.0  0.82650  0.50379  0.72458  1.0000
  H   H14       1.0  0.67349  0.00379  0.27542  1.0000
  H   H15       1.0  0.17350  0.49621  0.27542  1.0000
  H   H16       1.0  0.32650  0.99622  0.72458  1.0000
  H   H17       1.0  0.76739  0.51700  0.99334  1.0000
  H   H18       1.0  0.73261  0.01700  0.00666  1.0000
  H   H19       1.0  0.23261  0.48300  0.00666  1.0000
  H   H20       1.0  0.26739  0.98300  0.99334  1.0000
  H   H21       1.0  0.92250  0.73164  0.04122  1.0000
  H   H22       1.0  0.57751  0.23164  0.95877  1.0000
  H   H23       1.0  0.07751  0.26836  0.95878  1.0000
  H   H24       1.0  0.42250  0.76836  0.04122  1.0000
  H   H25       1.0  0.93210  0.76771  0.17753  1.0000
  H   H26       1.0  0.56790  0.26771  0.82247  1.0000
  H   H27       1.0  0.06790  0.23229  0.82247  1.0000
  H   H28       1.0  0.43210  0.73229  0.17753  1.0000
  H   H29       1.0  0.84928  0.72469  0.31303  1.0000
  H   H30       1.0  0.65072  0.22469  0.68697  1.0000
  H   H31       1.0  0.15072  0.27531  0.68698  1.0000
  H   H32       1.0  0.34928  0.77531  0.31302  1.0000
  H   H33       1.0  0.56206  0.44889  0.22892  1.0000
  H   H34       1.0  0.93794  0.94889  0.77108  1.0000
  H   H35       1.0  0.43794  0.55111  0.77108  1.0000
  H   H36       1.0  0.06206  0.05111  0.22892  1.0000
  H   H37       1.0  0.63702  0.49111  0.09374  1.0000
  H   H38       1.0  0.86299  0.99111  0.90626  1.0000
  H   H39       1.0  0.36299  0.50889  0.90626  1.0000
  H   H40       1.0  0.13701  0.00889  0.09374  1.0000
  H   H41       1.0  0.54850  0.87019  0.45104  1.0000
  H   H42       1.0  0.95149  0.37019  0.54896  1.0000
  H   H43       1.0  0.45150  0.12981  0.54896  1.0000
  H   H44       1.0  0.04850  0.62981  0.45104  1.0000
  C   C1        1.0  0.00058  0.67337  0.66666  1.0000
  C   C2        1.0  0.49943  0.17338  0.33334  1.0000
  C   C3        1.0  0.99943  0.32662  0.33334  1.0000
  C   C4        1.0  0.50057  0.82663  0.66666  1.0000
  C   C5        1.0  0.97480  0.64736  0.75003  1.0000
  C   C6        1.0  0.52520  0.14736  0.24997  1.0000
  C   C7        1.0  0.02520  0.35264  0.24998  1.0000
  C   C8        1.0  0.47480  0.85264  0.75002  1.0000
  C   C9        1.0  0.03831  0.71692  0.80896  1.0000
  C   C10       1.0  0.46169  0.21692  0.19104  1.0000
  C   C11       1.0  0.96169  0.28308  0.19104  1.0000
  C   C12       1.0  0.53831  0.78308  0.80896  1.0000
  C   C13       1.0  0.99832  0.69954  0.88607  1.0000
  C   C14       1.0  0.50168  0.19954  0.11393  1.0000
  C   C15       1.0  0.00168  0.30046  0.11394  1.0000
  C   C16       1.0  0.49832  0.80046  0.88606  1.0000
  C   C17       1.0  0.89245  0.61162  0.90677  1.0000
  C   C18       1.0  0.60755  0.11162  0.09323  1.0000
  C   C19       1.0  0.10756  0.38838  0.09323  1.0000
  C   C20       1.0  0.39245  0.88838  0.90677  1.0000
  C   C21       1.0  0.83622  0.54028  0.84753  1.0000
  C   C22       1.0  0.66377  0.04028  0.15247  1.0000
  C   C23       1.0  0.16378  0.45972  0.15248  1.0000
  C   C24       1.0  0.33623  0.95972  0.84752  1.0000
  C   C25       1.0  0.87508  0.55805  0.77017  1.0000
  C   C26       1.0  0.62492  0.05805  0.22983  1.0000
  C   C27       1.0  0.12493  0.44195  0.22984  1.0000
  C   C28       1.0  0.37508  0.94195  0.77016  1.0000
  C   C29       1.0  0.83441  0.59222  0.98545  1.0000
  C   C30       1.0  0.66559  0.09223  0.01455  1.0000
  C   C31       1.0  0.16560  0.40777  0.01455  1.0000
  C   C32       1.0  0.33441  0.90778  0.98545  1.0000
  C   C33       1.0  0.85315  0.65660  0.04760  1.0000
  C   C34       1.0  0.64685  0.15660  0.95240  1.0000
  C   C35       1.0  0.14685  0.34340  0.95241  1.0000
  C   C36       1.0  0.35315  0.84340  0.04759  1.0000
  C   C37       1.0  0.79336  0.63243  0.12543  1.0000
  C   C38       1.0  0.70665  0.13243  0.87457  1.0000
  C   C39       1.0  0.20665  0.36757  0.87457  1.0000
  C   C40       1.0  0.29335  0.86757  0.12543  1.0000
  C   C41       1.0  0.84930  0.69805  0.18857  1.0000
  C   C42       1.0  0.65070  0.19805  0.81143  1.0000
  C   C43       1.0  0.15070  0.30195  0.81143  1.0000
  C   C44       1.0  0.34930  0.80195  0.18857  1.0000
  C   C45       1.0  0.80422  0.67403  0.26447  1.0000
  C   C46       1.0  0.69578  0.17402  0.73553  1.0000
  C   C47       1.0  0.19578  0.32598  0.73553  1.0000
  C   C48       1.0  0.30422  0.82597  0.26447  1.0000
  C   C49       1.0  0.70119  0.58356  0.27917  1.0000
  C   C50       1.0  0.79881  0.08356  0.72083  1.0000
  C   C51       1.0  0.29881  0.41644  0.72083  1.0000
  C   C52       1.0  0.20119  0.91644  0.27917  1.0000
  C   C53       1.0  0.64159  0.51884  0.21648  1.0000
  C   C54       1.0  0.85841  0.01884  0.78353  1.0000
  C   C55       1.0  0.35841  0.48116  0.78353  1.0000
  C   C56       1.0  0.14159  0.98115  0.21647  1.0000
  C   C57       1.0  0.68485  0.54315  0.14101  1.0000
  C   C58       1.0  0.81515  0.04315  0.85899  1.0000
  C   C59       1.0  0.31515  0.45685  0.85899  1.0000
  C   C60       1.0  0.18485  0.95685  0.14101  1.0000
  C   C61       1.0  0.65201  0.55348  0.35945  1.0000
  C   C62       1.0  0.84799  0.05348  0.64055  1.0000
  C   C63       1.0  0.34799  0.44652  0.64056  1.0000
  C   C64       1.0  0.15200  0.94652  0.35944  1.0000
  C   C65       1.0  0.70405  0.86984  0.47499  1.0000
  C   C66       1.0  0.79594  0.36984  0.52501  1.0000
  C   C67       1.0  0.29595  0.13016  0.52501  1.0000
  C   C68       1.0  0.20405  0.63016  0.47499  1.0000
  O   O1        1.0  0.92410  0.61313  0.61348  1.0000
  O   O2        1.0  0.57590  0.11313  0.38651  1.0000
  O   O3        1.0  0.07590  0.38687  0.38652  1.0000
  O   O4        1.0  0.42409  0.88687  0.61348  1.0000
  O   O5        1.0  0.09001  0.75567  0.65186  1.0000
  O   O6        1.0  0.41000  0.25568  0.34814  1.0000
  O   O7        1.0  0.90999  0.24432  0.34814  1.0000
  O   O8        1.0  0.59001  0.74433  0.65186  1.0000
  O   O9        1.0  0.69394  0.61634  0.41541  1.0000
  O   O10       1.0  0.80607  0.11634  0.58459  1.0000
  O   O11       1.0  0.30606  0.38366  0.58460  1.0000
  O   O12       1.0  0.19393  0.88366  0.41540  1.0000
  O   O13       1.0  0.56913  0.46667  0.36666  1.0000
  O   O14       1.0  0.93087  0.96667  0.63334  1.0000
  O   O15       1.0  0.43087  0.53333  0.63334  1.0000
  O   O16       1.0  0.06913  0.03333  0.36666  1.0000
  O   O17       1.0  0.77766  0.78960  0.50793  1.0000
  O   O18       1.0  0.72233  0.28960  0.49207  1.0000
  O   O19       1.0  0.22233  0.21039  0.49207  1.0000
  O   O20       1.0  0.27767  0.71040  0.50793  1.0000
  O   O21       1.0  0.80870  0.94957  0.46885  1.0000
  O   O22       1.0  0.69129  0.44957  0.53115  1.0000
  O   O23       1.0  0.19129  0.05043  0.53115  1.0000
  O   O24       1.0  0.30871  0.55043  0.46885  1.0000
