data_image0
_chemical_formula_structural       Tb4H44C68O24
_chemical_formula_sum              "Tb4 H44 C68 O24"
_cell_length_a       6.74147
_cell_length_b       12.8436
_cell_length_c       17.106
_cell_angle_alpha    90
_cell_angle_beta     93.6474
_cell_angle_gamma    90

_space_group_name_H-M_alt    "P 1"
_space_group_IT_number       1

loop_
  _space_group_symop_operation_xyz
  'x, y, z'

loop_
  _atom_site_type_symbol
  _atom_site_label
  _atom_site_symmetry_multiplicity
  _atom_site_fract_x
  _atom_site_fract_y
  _atom_site_fract_z
  _atom_site_occupancy
  Tb  Tb1       1.0  0.11477  0.37233  0.04743  1.0000
  Tb  Tb2       1.0  0.38523  0.87233  0.95257  1.0000
  Tb  Tb3       1.0  0.88523  0.62767  0.95257  1.0000
  Tb  Tb4       1.0  0.61477  0.12767  0.04743  1.0000
  H   H1        1.0  0.32172  0.49949  0.22406  1.0000
  H   H2        1.0  0.17828  0.99949  0.77594  1.0000
  H   H3        1.0  0.67829  0.50051  0.77594  1.0000
  H   H4        1.0  0.82172  0.00051  0.22406  1.0000
  H   H5        1.0  0.25559  0.53223  0.36322  1.0000
  H   H6        1.0  0.24441  0.03222  0.63678  1.0000
  H   H7        1.0  0.74441  0.46778  0.63678  1.0000
  H   H8        1.0  0.75559  0.96777  0.36322  1.0000
  H   H9        1.0  0.54616  0.24291  0.42911  1.0000
  H   H10       1.0  0.95383  0.74291  0.57089  1.0000
  H   H11       1.0  0.45383  0.75709  0.57089  1.0000
  H   H12       1.0  0.04616  0.25709  0.42911  1.0000
  H   H13       1.0  0.61296  0.21280  0.29032  1.0000
  H   H14       1.0  0.88703  0.71280  0.70968  1.0000
  H   H15       1.0  0.38703  0.78720  0.70968  1.0000
  H   H16       1.0  0.11296  0.28720  0.29032  1.0000
  H   H17       1.0  0.26570  0.48482  0.49336  1.0000
  H   H18       1.0  0.23429  0.98482  0.50664  1.0000
  H   H19       1.0  0.73429  0.51518  0.50664  1.0000
  H   H20       1.0  0.76570  0.01518  0.49336  1.0000
  H   H21       1.0  0.42153  0.26687  0.54083  1.0000
  H   H22       1.0  0.07846  0.76687  0.45917  1.0000
  H   H23       1.0  0.57847  0.73313  0.45917  1.0000
  H   H24       1.0  0.92153  0.23313  0.54083  1.0000
  H   H25       1.0  0.13890  0.51218  0.59471  1.0000
  H   H26       1.0  0.36110  0.01218  0.40529  1.0000
  H   H27       1.0  0.86110  0.48782  0.40529  1.0000
  H   H28       1.0  0.63890  0.98782  0.59471  1.0000
  H   H29       1.0  0.06216  0.55378  0.73027  1.0000
  H   H30       1.0  0.43784  0.05378  0.26973  1.0000
  H   H31       1.0  0.93785  0.44622  0.26973  1.0000
  H   H32       1.0  0.56216  0.94622  0.73027  1.0000
  H   H33       1.0  0.34383  0.27132  0.81297  1.0000
  H   H34       1.0  0.15618  0.77132  0.18703  1.0000
  H   H35       1.0  0.65618  0.72868  0.18703  1.0000
  H   H36       1.0  0.84383  0.22868  0.81297  1.0000
  H   H37       1.0  0.42780  0.22871  0.67702  1.0000
  H   H38       1.0  0.07220  0.72871  0.32298  1.0000
  H   H39       1.0  0.57220  0.77129  0.32298  1.0000
  H   H40       1.0  0.92780  0.27129  0.67702  1.0000
  H   H41       1.0  0.04964  0.12952  0.95259  1.0000
  H   H42       1.0  0.45037  0.62951  0.04741  1.0000
  H   H43       1.0  0.95036  0.87049  0.04741  1.0000
  H   H44       1.0  0.54964  0.37048  0.95259  1.0000
  C   C1        1.0  0.49425  0.32698  0.16480  1.0000
  C   C2        1.0  0.00575  0.82697  0.83520  1.0000
  C   C3        1.0  0.50575  0.67302  0.83520  1.0000
  C   C4        1.0  0.99425  0.17302  0.16480  1.0000
  C   C5        1.0  0.47052  0.35339  0.24856  1.0000
  C   C6        1.0  0.02948  0.85338  0.75144  1.0000
  C   C7        1.0  0.52948  0.64661  0.75144  1.0000
  C   C8        1.0  0.97052  0.14661  0.24856  1.0000
  C   C9        1.0  0.37147  0.44418  0.26940  1.0000
  C   C10       1.0  0.12853  0.94417  0.73060  1.0000
  C   C11       1.0  0.62854  0.55583  0.73060  1.0000
  C   C12       1.0  0.87147  0.05583  0.26940  1.0000
  C   C13       1.0  0.33390  0.46185  0.34717  1.0000
  C   C14       1.0  0.16610  0.96184  0.65283  1.0000
  C   C15       1.0  0.66610  0.53815  0.65283  1.0000
  C   C16       1.0  0.83390  0.03815  0.34717  1.0000
  C   C17       1.0  0.39083  0.38910  0.40620  1.0000
  C   C18       1.0  0.10917  0.88909  0.59380  1.0000
  C   C19       1.0  0.60917  0.61090  0.59380  1.0000
  C   C20       1.0  0.89083  0.11090  0.40620  1.0000
  C   C21       1.0  0.49623  0.29979  0.38482  1.0000
  C   C22       1.0  0.00376  0.79979  0.61518  1.0000
  C   C23       1.0  0.50376  0.70021  0.61518  1.0000
  C   C24       1.0  0.99623  0.20021  0.38482  1.0000
  C   C25       1.0  0.53520  0.28259  0.30730  1.0000
  C   C26       1.0  0.96479  0.78259  0.69270  1.0000
  C   C27       1.0  0.46480  0.71741  0.69270  1.0000
  C   C28       1.0  0.03520  0.21741  0.30730  1.0000
  C   C29       1.0  0.33311  0.40849  0.48526  1.0000
  C   C30       1.0  0.16688  0.90849  0.51474  1.0000
  C   C31       1.0  0.66688  0.59151  0.51474  1.0000
  C   C32       1.0  0.83311  0.09151  0.48526  1.0000
  C   C33       1.0  0.35198  0.34303  0.54745  1.0000
  C   C34       1.0  0.14801  0.84303  0.45255  1.0000
  C   C35       1.0  0.64801  0.65697  0.45255  1.0000
  C   C36       1.0  0.85198  0.15697  0.54745  1.0000
  C   C37       1.0  0.29197  0.36733  0.62559  1.0000
  C   C38       1.0  0.20802  0.86733  0.37441  1.0000
  C   C39       1.0  0.70803  0.63267  0.37441  1.0000
  C   C40       1.0  0.79198  0.13267  0.62559  1.0000
  C   C41       1.0  0.18514  0.45848  0.64173  1.0000
  C   C42       1.0  0.31486  0.95848  0.35827  1.0000
  C   C43       1.0  0.81486  0.54152  0.35827  1.0000
  C   C44       1.0  0.68514  0.04152  0.64173  1.0000
  C   C45       1.0  0.14088  0.48253  0.71741  1.0000
  C   C46       1.0  0.35912  0.98253  0.28259  1.0000
  C   C47       1.0  0.85912  0.51747  0.28259  1.0000
  C   C48       1.0  0.64088  0.01747  0.71741  1.0000
  C   C49       1.0  0.19821  0.41577  0.77984  1.0000
  C   C50       1.0  0.30180  0.91578  0.22015  1.0000
  C   C51       1.0  0.80180  0.58423  0.22015  1.0000
  C   C52       1.0  0.69821  0.08423  0.77985  1.0000
  C   C53       1.0  0.30029  0.32361  0.76466  1.0000
  C   C54       1.0  0.19972  0.82362  0.23534  1.0000
  C   C55       1.0  0.69972  0.67639  0.23534  1.0000
  C   C56       1.0  0.80029  0.17639  0.76466  1.0000
  C   C57       1.0  0.34606  0.29982  0.68850  1.0000
  C   C58       1.0  0.15394  0.79982  0.31150  1.0000
  C   C59       1.0  0.65394  0.70018  0.31150  1.0000
  C   C60       1.0  0.84606  0.20018  0.68850  1.0000
  C   C61       1.0  0.14666  0.44563  0.86030  1.0000
  C   C62       1.0  0.35334  0.94563  0.13969  1.0000
  C   C63       1.0  0.85335  0.55437  0.13970  1.0000
  C   C64       1.0  0.64666  0.05437  0.86031  1.0000
  C   C65       1.0  0.20546  0.12974  0.97667  1.0000
  C   C66       1.0  0.29455  0.62974  0.02333  1.0000
  C   C67       1.0  0.79454  0.87026  0.02333  1.0000
  C   C68       1.0  0.70546  0.37026  0.97667  1.0000
  O   O1        1.0  0.41556  0.38811  0.11190  1.0000
  O   O2        1.0  0.08443  0.88811  0.88810  1.0000
  O   O3        1.0  0.58443  0.61189  0.88810  1.0000
  O   O4        1.0  0.91556  0.11189  0.11190  1.0000
  O   O5        1.0  0.58445  0.24374  0.14948  1.0000
  O   O6        1.0  0.91555  0.74374  0.85052  1.0000
  O   O7        1.0  0.41555  0.75626  0.85052  1.0000
  O   O8        1.0  0.08445  0.25626  0.14948  1.0000
  O   O9        1.0  0.06389  0.53394  0.86756  1.0000
  O   O10       1.0  0.43611  0.03394  0.13244  1.0000
  O   O11       1.0  0.93611  0.46606  0.13244  1.0000
  O   O12       1.0  0.56389  0.96606  0.86756  1.0000
  O   O13       1.0  0.18631  0.38125  0.91620  1.0000
  O   O14       1.0  0.31369  0.88125  0.08380  1.0000
  O   O15       1.0  0.81369  0.61875  0.08380  1.0000
  O   O16       1.0  0.68631  0.11875  0.91620  1.0000
  O   O17       1.0  0.27980  0.21130  0.00938  1.0000
  O   O18       1.0  0.22020  0.71129  0.99062  1.0000
  O   O19       1.0  0.72020  0.78870  0.99062  1.0000
  O   O20       1.0  0.77980  0.28870  0.00938  1.0000
  O   O21       1.0  0.31039  0.04865  0.97129  1.0000
  O   O22       1.0  0.18960  0.54864  0.02871  1.0000
  O   O23       1.0  0.68960  0.95136  0.02871  1.0000
  O   O24       1.0  0.81040  0.45135  0.97129  1.0000
