data_image0
_chemical_formula_structural       Er4H44C68O24
_chemical_formula_sum              "Er4 H44 C68 O24"
_cell_length_a       6.72968
_cell_length_b       12.693
_cell_length_c       17.06
_cell_angle_alpha    90
_cell_angle_beta     93.5181
_cell_angle_gamma    90

_space_group_name_H-M_alt    "P 1"
_space_group_IT_number       1

loop_
  _space_group_symop_operation_xyz
  'x, y, z'

loop_
  _atom_site_type_symbol
  _atom_site_label
  _atom_site_symmetry_multiplicity
  _atom_site_fract_x
  _atom_site_fract_y
  _atom_site_fract_z
  _atom_site_occupancy
  Er  Er1       1.0  0.61308  0.62789  0.54676  1.0000
  Er  Er2       1.0  0.88691  0.12789  0.45324  1.0000
  Er  Er3       1.0  0.38692  0.37211  0.45324  1.0000
  Er  Er4       1.0  0.11308  0.87211  0.54676  1.0000
  H   H1        1.0  0.10925  0.78859  0.78806  1.0000
  H   H2        1.0  0.39075  0.28859  0.21194  1.0000
  H   H3        1.0  0.89075  0.21141  0.21194  1.0000
  H   H4        1.0  0.60925  0.71141  0.78806  1.0000
  H   H5        1.0  0.04276  0.75897  0.92748  1.0000
  H   H6        1.0  0.45724  0.25897  0.07252  1.0000
  H   H7        1.0  0.95724  0.24103  0.07252  1.0000
  H   H8        1.0  0.54276  0.74103  0.92748  1.0000
  H   H9        1.0  0.75547  0.46481  0.86304  1.0000
  H   H10       1.0  0.74453  0.96481  0.13696  1.0000
  H   H11       1.0  0.24453  0.53519  0.13696  1.0000
  H   H12       1.0  0.25546  0.03519  0.86304  1.0000
  H   H13       1.0  0.82005  0.49748  0.72316  1.0000
  H   H14       1.0  0.67995  0.99747  0.27684  1.0000
  H   H15       1.0  0.17995  0.50253  0.27684  1.0000
  H   H16       1.0  0.32004  0.00253  0.72316  1.0000
  H   H17       1.0  0.76550  0.51366  0.99327  1.0000
  H   H18       1.0  0.73450  0.01366  0.00673  1.0000
  H   H19       1.0  0.23451  0.48634  0.00672  1.0000
  H   H20       1.0  0.26549  0.98635  0.99327  1.0000
  H   H21       1.0  0.91834  0.73503  0.03996  1.0000
  H   H22       1.0  0.58166  0.23503  0.96004  1.0000
  H   H23       1.0  0.08166  0.26497  0.96004  1.0000
  H   H24       1.0  0.41834  0.76497  0.03996  1.0000
  H   H25       1.0  0.92342  0.77445  0.17654  1.0000
  H   H26       1.0  0.57658  0.27445  0.82345  1.0000
  H   H27       1.0  0.07658  0.22555  0.82345  1.0000
  H   H28       1.0  0.42342  0.72555  0.17655  1.0000
  H   H29       1.0  0.83907  0.73179  0.31304  1.0000
  H   H30       1.0  0.66094  0.23179  0.68696  1.0000
  H   H31       1.0  0.16094  0.26821  0.68696  1.0000
  H   H32       1.0  0.33907  0.76822  0.31304  1.0000
  H   H33       1.0  0.56304  0.44416  0.23116  1.0000
  H   H34       1.0  0.93697  0.94416  0.76884  1.0000
  H   H35       1.0  0.43697  0.55583  0.76884  1.0000
  H   H36       1.0  0.06303  0.05584  0.23116  1.0000
  H   H37       1.0  0.64019  0.48560  0.09513  1.0000
  H   H38       1.0  0.85981  0.98560  0.90487  1.0000
  H   H39       1.0  0.35981  0.51440  0.90487  1.0000
  H   H40       1.0  0.14019  0.01440  0.09513  1.0000
  H   H41       1.0  0.55142  0.87092  0.45341  1.0000
  H   H42       1.0  0.94858  0.37093  0.54660  1.0000
  H   H43       1.0  0.44858  0.12907  0.54659  1.0000
  H   H44       1.0  0.05141  0.62908  0.45341  1.0000
  C   C1        1.0  0.98987  0.67241  0.66282  1.0000
  C   C2        1.0  0.51013  0.17241  0.33718  1.0000
  C   C3        1.0  0.01013  0.32759  0.33718  1.0000
  C   C4        1.0  0.48987  0.82759  0.66282  1.0000
  C   C5        1.0  0.96766  0.64581  0.74694  1.0000
  C   C6        1.0  0.53234  0.14581  0.25306  1.0000
  C   C7        1.0  0.03234  0.35419  0.25306  1.0000
  C   C8        1.0  0.46766  0.85419  0.74694  1.0000
  C   C9        1.0  0.03213  0.71791  0.80550  1.0000
  C   C10       1.0  0.46787  0.21791  0.19450  1.0000
  C   C11       1.0  0.96787  0.28209  0.19450  1.0000
  C   C12       1.0  0.53213  0.78209  0.80550  1.0000
  C   C13       1.0  0.99330  0.70100  0.88334  1.0000
  C   C14       1.0  0.50671  0.20100  0.11666  1.0000
  C   C15       1.0  0.00671  0.29900  0.11666  1.0000
  C   C16       1.0  0.49329  0.79900  0.88334  1.0000
  C   C17       1.0  0.88910  0.61040  0.90532  1.0000
  C   C18       1.0  0.61090  0.11040  0.09468  1.0000
  C   C19       1.0  0.11090  0.38960  0.09468  1.0000
  C   C20       1.0  0.38909  0.88960  0.90532  1.0000
  C   C21       1.0  0.83293  0.53618  0.84652  1.0000
  C   C22       1.0  0.66707  0.03618  0.15348  1.0000
  C   C23       1.0  0.16707  0.46382  0.15348  1.0000
  C   C24       1.0  0.33293  0.96382  0.84652  1.0000
  C   C25       1.0  0.86985  0.55373  0.76839  1.0000
  C   C26       1.0  0.63016  0.05373  0.23162  1.0000
  C   C27       1.0  0.13016  0.44627  0.23161  1.0000
  C   C28       1.0  0.36984  0.94627  0.76839  1.0000
  C   C29       1.0  0.83189  0.59108  0.98479  1.0000
  C   C30       1.0  0.66811  0.09108  0.01521  1.0000
  C   C31       1.0  0.16811  0.40892  0.01521  1.0000
  C   C32       1.0  0.33188  0.90893  0.98479  1.0000
  C   C33       1.0  0.84988  0.65772  0.04693  1.0000
  C   C34       1.0  0.65012  0.15772  0.95307  1.0000
  C   C35       1.0  0.15012  0.34228  0.95307  1.0000
  C   C36       1.0  0.34987  0.84228  0.04693  1.0000
  C   C37       1.0  0.79016  0.63331  0.12543  1.0000
  C   C38       1.0  0.70984  0.13330  0.87457  1.0000
  C   C39       1.0  0.20984  0.36669  0.87457  1.0000
  C   C40       1.0  0.29016  0.86670  0.12543  1.0000
  C   C41       1.0  0.84258  0.70223  0.18829  1.0000
  C   C42       1.0  0.65742  0.20223  0.81171  1.0000
  C   C43       1.0  0.15742  0.29777  0.81171  1.0000
  C   C44       1.0  0.34259  0.79778  0.18829  1.0000
  C   C45       1.0  0.79658  0.67844  0.26476  1.0000
  C   C46       1.0  0.70342  0.17844  0.73524  1.0000
  C   C47       1.0  0.20343  0.32156  0.73524  1.0000
  C   C48       1.0  0.29658  0.82156  0.26476  1.0000
  C   C49       1.0  0.69569  0.58483  0.28030  1.0000
  C   C50       1.0  0.80431  0.08483  0.71970  1.0000
  C   C51       1.0  0.30432  0.41517  0.71970  1.0000
  C   C52       1.0  0.19570  0.91517  0.28030  1.0000
  C   C53       1.0  0.64044  0.51660  0.21794  1.0000
  C   C54       1.0  0.85956  0.01660  0.78206  1.0000
  C   C55       1.0  0.35957  0.48339  0.78206  1.0000
  C   C56       1.0  0.14044  0.98340  0.21794  1.0000
  C   C57       1.0  0.68509  0.54054  0.14200  1.0000
  C   C58       1.0  0.81491  0.04054  0.85800  1.0000
  C   C59       1.0  0.31491  0.45945  0.85800  1.0000
  C   C60       1.0  0.18509  0.95946  0.14200  1.0000
  C   C61       1.0  0.64276  0.55476  0.36090  1.0000
  C   C62       1.0  0.85723  0.05476  0.63910  1.0000
  C   C63       1.0  0.35724  0.44524  0.63910  1.0000
  C   C64       1.0  0.14277  0.94524  0.36090  1.0000
  C   C65       1.0  0.70730  0.87051  0.47755  1.0000
  C   C66       1.0  0.79270  0.37051  0.52245  1.0000
  C   C67       1.0  0.29270  0.12949  0.52245  1.0000
  C   C68       1.0  0.20730  0.62949  0.47755  1.0000
  O   O1        1.0  0.90875  0.61085  0.61014  1.0000
  O   O2        1.0  0.59125  0.11085  0.38986  1.0000
  O   O3        1.0  0.09125  0.38914  0.38986  1.0000
  O   O4        1.0  0.40875  0.88915  0.61014  1.0000
  O   O5        1.0  0.08155  0.75606  0.64714  1.0000
  O   O6        1.0  0.41844  0.25606  0.35286  1.0000
  O   O7        1.0  0.91844  0.24394  0.35285  1.0000
  O   O8        1.0  0.58155  0.74394  0.64715  1.0000
  O   O9        1.0  0.68130  0.62010  0.41689  1.0000
  O   O10       1.0  0.81868  0.12010  0.58311  1.0000
  O   O11       1.0  0.31868  0.37990  0.58311  1.0000
  O   O12       1.0  0.18131  0.87990  0.41689  1.0000
  O   O13       1.0  0.55996  0.46534  0.36804  1.0000
  O   O14       1.0  0.94005  0.96534  0.63196  1.0000
  O   O15       1.0  0.44005  0.53466  0.63196  1.0000
  O   O16       1.0  0.05997  0.03467  0.36804  1.0000
  O   O17       1.0  0.78195  0.78779  0.50994  1.0000
  O   O18       1.0  0.71805  0.28780  0.49006  1.0000
  O   O19       1.0  0.21804  0.21220  0.49006  1.0000
  O   O20       1.0  0.28195  0.71220  0.50994  1.0000
  O   O21       1.0  0.81302  0.95242  0.47282  1.0000
  O   O22       1.0  0.68698  0.45242  0.52718  1.0000
  O   O23       1.0  0.18698  0.04758  0.52718  1.0000
  O   O24       1.0  0.31301  0.54757  0.47282  1.0000
