data_image0
_chemical_formula_structural       Tb2H38C48O16
_chemical_formula_sum              "Tb2 H38 C48 O16"
_cell_length_a       7.32491
_cell_length_b       8.59456
_cell_length_c       16.572
_cell_angle_alpha    82.7599
_cell_angle_beta     88.8328
_cell_angle_gamma    71.3973

_space_group_name_H-M_alt    "P 1"
_space_group_IT_number       1

loop_
  _space_group_symop_operation_xyz
  'x, y, z'

loop_
  _atom_site_type_symbol
  _atom_site_label
  _atom_site_symmetry_multiplicity
  _atom_site_fract_x
  _atom_site_fract_y
  _atom_site_fract_z
  _atom_site_occupancy
  Tb  Tb1       1.0  0.57662  0.25271  0.01596  1.0000
  Tb  Tb2       1.0  0.42337  0.74729  0.98405  1.0000
  H   H1        1.0  0.15572  0.41880  0.95215  1.0000
  H   H2        1.0  0.84428  0.58120  0.04785  1.0000
  H   H3        1.0  0.14192  0.37579  0.04735  1.0000
  H   H4        1.0  0.85808  0.62421  0.95265  1.0000
  H   H5        1.0  0.94339  0.93966  0.05049  1.0000
  H   H6        1.0  0.05661  0.06034  0.94951  1.0000
  H   H7        1.0  0.79492  0.86904  0.01441  1.0000
  H   H8        1.0  0.20507  0.13097  0.98559  1.0000
  H   H9        1.0  0.46767  0.69491  0.78700  1.0000
  H   H10       1.0  0.53233  0.30509  0.21300  1.0000
  H   H11       1.0  0.45133  0.76805  0.63928  1.0000
  H   H12       1.0  0.54867  0.23196  0.36072  1.0000
  H   H13       1.0  0.89927  0.30895  0.61370  1.0000
  H   H14       1.0  0.10073  0.69106  0.38630  1.0000
  H   H15       1.0  0.90931  0.23478  0.76434  1.0000
  H   H16       1.0  0.09068  0.76522  0.23566  1.0000
  H   H17       1.0  0.76891  0.48757  0.49386  1.0000
  H   H18       1.0  0.23109  0.51244  0.50614  1.0000
  H   H19       1.0  0.47252  0.82339  0.51886  1.0000
  H   H20       1.0  0.52748  0.17661  0.48114  1.0000
  H   H21       1.0  0.35394  0.01726  0.41078  1.0000
  H   H22       1.0  0.64606  0.98274  0.58922  1.0000
  H   H23       1.0  0.32773  0.11648  0.26270  1.0000
  H   H24       1.0  0.67227  0.88352  0.73730  1.0000
  H   H25       1.0  0.71269  0.64501  0.21400  1.0000
  H   H26       1.0  0.28731  0.35499  0.78600  1.0000
  H   H27       1.0  0.74698  0.54695  0.36132  1.0000
  H   H28       1.0  0.25301  0.45305  0.63868  1.0000
  H   H29       1.0  0.04064  0.27631  0.41677  1.0000
  H   H30       1.0  0.95937  0.72368  0.58323  1.0000
  H   H31       1.0  0.02322  0.41168  0.27496  1.0000
  H   H32       1.0  0.97680  0.58831  0.72504  1.0000
  H   H33       1.0  0.83914  0.90143  0.33398  1.0000
  H   H34       1.0  0.16086  0.09857  0.66602  1.0000
  H   H35       1.0  0.82632  0.03773  0.19246  1.0000
  H   H36       1.0  0.17368  0.96227  0.80754  1.0000
  H   H37       1.0  0.89211  0.88714  0.47312  1.0000
  H   H38       1.0  0.10790  0.11285  0.52688  1.0000
  C   C1        1.0  0.68630  0.40887  0.87369  1.0000
  C   C2        1.0  0.31369  0.59113  0.12631  1.0000
  C   C3        1.0  0.68956  0.46008  0.78521  1.0000
  C   C4        1.0  0.31044  0.53992  0.21479  1.0000
  C   C5        1.0  0.56149  0.61018  0.74894  1.0000
  C   C6        1.0  0.43851  0.38982  0.25106  1.0000
  C   C7        1.0  0.55436  0.65132  0.66530  1.0000
  C   C8        1.0  0.44563  0.34869  0.33470  1.0000
  C   C9        1.0  0.67674  0.54449  0.61476  1.0000
  C   C10       1.0  0.32325  0.45551  0.38524  1.0000
  C   C11       1.0  0.80551  0.39399  0.65205  1.0000
  C   C12       1.0  0.19449  0.60601  0.34795  1.0000
  C   C13       1.0  0.81209  0.35217  0.73589  1.0000
  C   C14       1.0  0.18791  0.64784  0.26411  1.0000
  C   C15       1.0  0.67463  0.58428  0.52673  1.0000
  C   C16       1.0  0.32537  0.41572  0.47327  1.0000
  C   C17       1.0  0.56591  0.72868  0.48472  1.0000
  C   C18       1.0  0.43409  0.27132  0.51528  1.0000
  C   C19       1.0  0.55421  0.77614  0.39734  1.0000
  C   C20       1.0  0.44579  0.22386  0.60266  1.0000
  C   C21       1.0  0.43459  0.93633  0.36767  1.0000
  C   C22       1.0  0.56541  0.06367  0.63233  1.0000
  C   C23       1.0  0.41830  0.99201  0.28513  1.0000
  C   C24       1.0  0.58170  0.00799  0.71487  1.0000
  C   C25       1.0  0.51769  0.88771  0.22940  1.0000
  C   C26       1.0  0.48231  0.11229  0.77061  1.0000
  C   C27       1.0  0.63518  0.72623  0.25761  1.0000
  C   C28       1.0  0.36482  0.27377  0.74239  1.0000
  C   C29       1.0  0.65483  0.67217  0.34050  1.0000
  C   C30       1.0  0.34517  0.32783  0.65950  1.0000
  C   C31       1.0  0.99310  0.22271  0.36817  1.0000
  C   C32       1.0  0.00692  0.77729  0.63182  1.0000
  C   C33       1.0  0.49774  0.95132  0.14117  1.0000
  C   C34       1.0  0.50226  0.04869  0.85883  1.0000
  C   C35       1.0  0.90689  0.31841  0.13993  1.0000
  C   C36       1.0  0.09311  0.68159  0.86007  1.0000
  C   C37       1.0  0.92492  0.23291  0.22485  1.0000
  C   C38       1.0  0.07508  0.76708  0.77515  1.0000
  C   C39       1.0  0.98433  0.29924  0.28882  1.0000
  C   C40       1.0  0.01569  0.70076  0.71118  1.0000
  C   C41       1.0  0.94350  0.07653  0.38597  1.0000
  C   C42       1.0  0.05651  0.92347  0.61402  1.0000
  C   C43       1.0  0.88151  0.01258  0.32131  1.0000
  C   C44       1.0  0.11849  0.98742  0.67868  1.0000
  C   C45       1.0  0.87433  0.08841  0.24195  1.0000
  C   C46       1.0  0.12567  0.91159  0.75805  1.0000
  C   C47       1.0  0.95663  0.98667  0.46707  1.0000
  C   C48       1.0  0.04338  0.01332  0.53293  1.0000
  O   O1        1.0  0.22271  0.33805  0.00022  1.0000
  O   O2        1.0  0.77729  0.66195  0.99978  1.0000
  O   O3        1.0  0.81667  0.97368  0.02361  1.0000
  O   O4        1.0  0.18332  0.02632  0.97639  1.0000
  O   O5        1.0  0.79985  0.27206  0.90641  1.0000
  O   O6        1.0  0.20015  0.72794  0.09359  1.0000
  O   O7        1.0  0.55321  0.49906  0.91734  1.0000
  O   O8        1.0  0.44679  0.50094  0.08266  1.0000
  O   O9        1.0  0.51399  0.84911  0.09054  1.0000
  O   O10       1.0  0.48601  0.15090  0.90946  1.0000
  O   O11       1.0  0.46801  0.10598  0.12098  1.0000
  O   O12       1.0  0.53198  0.89402  0.87903  1.0000
  O   O13       1.0  0.82774  0.26325  0.08711  1.0000
  O   O14       1.0  0.17226  0.73675  0.91289  1.0000
  O   O15       1.0  0.96970  0.44075  0.12369  1.0000
  O   O16       1.0  0.03030  0.55925  0.87631  1.0000
