data_image0
_chemical_formula_structural       Cd3H46C62N6O16
_chemical_formula_sum              "Cd3 H46 C62 N6 O16"
_cell_length_a       8.24127
_cell_length_b       12.6472
_cell_length_c       14.299
_cell_angle_alpha    98.7107
_cell_angle_beta     97.4726
_cell_angle_gamma    93.3271

_space_group_name_H-M_alt    "P 1"
_space_group_IT_number       1

loop_
  _space_group_symop_operation_xyz
  'x, y, z'

loop_
  _atom_site_type_symbol
  _atom_site_label
  _atom_site_symmetry_multiplicity
  _atom_site_fract_x
  _atom_site_fract_y
  _atom_site_fract_z
  _atom_site_occupancy
  Cd  Cd1       1.0  0.50000  0.00000  1.00000  1.0000
  Cd  Cd2       1.0  0.50245  0.68882  0.44411  1.0000
  Cd  Cd3       1.0  0.49755  0.31118  0.55589  1.0000
  H   H1        1.0  0.49994  0.34532  0.20794  1.0000
  H   H2        1.0  0.50006  0.65468  0.79206  1.0000
  H   H3        1.0  0.26282  0.61198  0.11383  1.0000
  H   H4        1.0  0.73718  0.38802  0.88617  1.0000
  H   H5        1.0  0.26437  0.31743  0.91691  1.0000
  H   H6        1.0  0.73563  0.68257  0.08309  1.0000
  H   H7        1.0  0.27566  0.66783  0.95846  1.0000
  H   H8        1.0  0.72434  0.33217  0.04154  1.0000
  H   H9        1.0  0.08324  0.64349  0.00002  1.0000
  H   H10       1.0  0.91676  0.35651  0.99998  1.0000
  H   H11       1.0  0.96222  0.78326  0.92062  1.0000
  H   H12       1.0  0.03778  0.21674  0.07938  1.0000
  H   H13       1.0  0.79372  0.81814  0.77111  1.0000
  H   H14       1.0  0.20628  0.18186  0.22889  1.0000
  H   H15       1.0  0.97519  0.54538  0.61183  1.0000
  H   H16       1.0  0.02481  0.45462  0.38817  1.0000
  H   H17       1.0  0.14852  0.51297  0.75988  1.0000
  H   H18       1.0  0.85148  0.48702  0.24012  1.0000
  H   H19       1.0  0.14518  0.05263  0.04910  1.0000
  H   H20       1.0  0.85482  0.94737  0.95090  1.0000
  H   H21       1.0  0.92172  0.99124  0.13425  1.0000
  H   H22       1.0  0.07828  0.00876  0.86575  1.0000
  H   H23       1.0  0.24006  0.75333  0.22653  1.0000
  H   H24       1.0  0.75994  0.24667  0.77347  1.0000
  H   H25       1.0  0.44192  0.82108  0.13150  1.0000
  H   H26       1.0  0.55808  0.17892  0.86850  1.0000
  H   H27       1.0  0.04071  0.68012  0.26910  1.0000
  H   H28       1.0  0.95929  0.31988  0.73089  1.0000
  H   H29       1.0  0.82903  0.63069  0.36754  1.0000
  H   H30       1.0  0.17097  0.36930  0.63246  1.0000
  H   H31       1.0  0.59157  0.90514  0.33602  1.0000
  H   H32       1.0  0.40843  0.09486  0.66398  1.0000
  H   H33       1.0  0.79185  0.96921  0.24104  1.0000
  H   H34       1.0  0.20815  0.03079  0.75896  1.0000
  H   H35       1.0  0.41663  0.93019  0.39698  1.0000
  H   H36       1.0  0.58337  0.06981  0.60302  1.0000
  H   H37       1.0  0.21153  0.05986  0.41514  1.0000
  H   H38       1.0  0.78847  0.94014  0.58486  1.0000
  H   H39       1.0  0.96860  0.84471  0.57289  1.0000
  H   H40       1.0  0.03140  0.15529  0.42711  1.0000
  H   H41       1.0  0.19061  0.72349  0.54782  1.0000
  H   H42       1.0  0.80939  0.27651  0.45218  1.0000
  H   H43       1.0  0.30254  0.51483  0.49543  1.0000
  H   H44       1.0  0.69746  0.48517  0.50457  1.0000
  H   H45       1.0  0.40359  0.57035  0.58992  1.0000
  H   H46       1.0  0.59641  0.42965  0.41008  1.0000
  C   C1        1.0  0.42389  0.20540  0.04127  1.0000
  C   C2        1.0  0.57611  0.79460  0.95873  1.0000
  C   C3        1.0  0.38554  0.31991  0.06061  1.0000
  C   C4        1.0  0.61446  0.68009  0.93939  1.0000
  C   C5        1.0  0.43154  0.38053  0.15169  1.0000
  C   C6        1.0  0.56846  0.61947  0.84831  1.0000
  C   C7        1.0  0.42062  0.54820  0.26884  1.0000
  C   C8        1.0  0.57938  0.45180  0.73116  1.0000
  C   C9        1.0  0.38337  0.48472  0.17027  1.0000
  C   C10       1.0  0.61663  0.51527  0.82973  1.0000
  C   C11       1.0  0.29814  0.53061  0.09703  1.0000
  C   C12       1.0  0.70185  0.46939  0.90297  1.0000
  C   C13       1.0  0.25938  0.47132  0.00522  1.0000
  C   C14       1.0  0.74062  0.52868  0.99478  1.0000
  C   C15       1.0  0.29968  0.36489  0.98762  1.0000
  C   C16       1.0  0.70031  0.63511  0.01238  1.0000
  C   C17       1.0  0.15487  0.62142  0.94090  1.0000
  C   C18       1.0  0.84513  0.37858  0.05910  1.0000
  C   C19       1.0  0.06400  0.64515  0.84954  1.0000
  C   C20       1.0  0.93601  0.35485  0.15046  1.0000
  C   C21       1.0  0.96849  0.73321  0.85209  1.0000
  C   C22       1.0  0.03151  0.26679  0.14791  1.0000
  C   C23       1.0  0.87434  0.75279  0.76940  1.0000
  C   C24       1.0  0.12566  0.24721  0.23061  1.0000
  C   C25       1.0  0.87296  0.68343  0.68292  1.0000
  C   C26       1.0  0.12704  0.31657  0.31708  1.0000
  C   C27       1.0  0.97422  0.59793  0.67960  1.0000
  C   C28       1.0  0.02578  0.40207  0.32040  1.0000
  C   C29       1.0  0.07032  0.57954  0.76211  1.0000
  C   C30       1.0  0.92968  0.42046  0.23789  1.0000
  C   C31       1.0  0.75554  0.69622  0.59758  1.0000
  C   C32       1.0  0.24446  0.30378  0.40242  1.0000
  C   C33       1.0  0.15883  0.98586  0.08888  1.0000
  C   C34       1.0  0.84117  0.01414  0.91112  1.0000
  C   C35       1.0  0.03566  0.95168  0.13765  1.0000
  C   C36       1.0  0.96434  0.04832  0.86235  1.0000
  C   C37       1.0  0.06040  0.86677  0.18946  1.0000
  C   C38       1.0  0.93961  0.13323  0.81054  1.0000
  C   C39       1.0  0.20989  0.81912  0.18755  1.0000
  C   C40       1.0  0.79011  0.18088  0.81245  1.0000
  C   C41       1.0  0.32520  0.85699  0.13534  1.0000
  C   C42       1.0  0.67480  0.14301  0.86466  1.0000
  C   C43       1.0  0.93608  0.83031  0.24563  1.0000
  C   C44       1.0  0.06392  0.16969  0.75437  1.0000
  C   C45       1.0  0.94378  0.73339  0.28218  1.0000
  C   C46       1.0  0.05623  0.26661  0.71782  1.0000
  C   C47       1.0  0.82539  0.70439  0.33675  1.0000
  C   C48       1.0  0.17461  0.29561  0.66325  1.0000
  C   C49       1.0  0.69260  0.85685  0.32009  1.0000
  C   C50       1.0  0.30740  0.14315  0.67991  1.0000
  C   C51       1.0  0.80577  0.89261  0.26587  1.0000
  C   C52       1.0  0.19423  0.10739  0.73413  1.0000
  C   C53       1.0  0.31521  0.91314  0.43547  1.0000
  C   C54       1.0  0.68478  0.08686  0.56453  1.0000
  C   C55       1.0  0.19688  0.98612  0.44522  1.0000
  C   C56       1.0  0.80312  0.01388  0.55478  1.0000
  C   C57       1.0  0.06565  0.96319  0.49443  1.0000
  C   C58       1.0  0.93436  0.03681  0.50557  1.0000
  C   C59       1.0  0.06516  0.86756  0.53297  1.0000
  C   C60       1.0  0.93484  0.13244  0.46703  1.0000
  C   C61       1.0  0.18893  0.79899  0.51976  1.0000
  C   C62       1.0  0.81107  0.20101  0.48024  1.0000
  N   N1        1.0  0.30121  0.93944  0.08713  1.0000
  N   N2        1.0  0.69879  0.06056  0.91287  1.0000
  N   N3        1.0  0.70080  0.76474  0.35588  1.0000
  N   N4        1.0  0.29920  0.23526  0.64412  1.0000
  N   N5        1.0  0.31281  0.82048  0.47086  1.0000
  N   N6        1.0  0.68719  0.17952  0.52914  1.0000
  O   O1        1.0  0.53328  0.17126  0.09826  1.0000
  O   O2        1.0  0.46672  0.82874  0.90174  1.0000
  O   O3        1.0  0.34443  0.14500  0.96677  1.0000
  O   O4        1.0  0.65557  0.85500  0.03323  1.0000
  O   O5        1.0  0.52440  0.51624  0.33028  1.0000
  O   O6        1.0  0.47560  0.48376  0.66972  1.0000
  O   O7        1.0  0.34871  0.63444  0.28815  1.0000
  O   O8        1.0  0.65129  0.36556  0.71185  1.0000
  O   O9        1.0  0.17849  0.50918  0.92909  1.0000
  O   O10       1.0  0.82151  0.49082  0.07091  1.0000
  O   O11       1.0  0.73614  0.62021  0.52523  1.0000
  O   O12       1.0  0.26386  0.37979  0.47477  1.0000
  O   O13       1.0  0.67573  0.77933  0.59801  1.0000
  O   O14       1.0  0.32427  0.22067  0.40199  1.0000
  O   O15       1.0  0.34372  0.58783  0.53025  1.0000
  O   O16       1.0  0.65628  0.41217  0.46975  1.0000
