data_image0
_chemical_formula_structural       Cd2H22C32N8O14
_chemical_formula_sum              "Cd2 H22 C32 N8 O14"
_cell_length_a       7.59497
_cell_length_b       7.6209
_cell_length_c       14.646
_cell_angle_alpha    98.9975
_cell_angle_beta     97.8876
_cell_angle_gamma    89.5001

_space_group_name_H-M_alt    "P 1"
_space_group_IT_number       1

loop_
  _space_group_symop_operation_xyz
  'x, y, z'

loop_
  _atom_site_type_symbol
  _atom_site_label
  _atom_site_symmetry_multiplicity
  _atom_site_fract_x
  _atom_site_fract_y
  _atom_site_fract_z
  _atom_site_occupancy
  Cd  Cd1       1.0  0.00000  0.00000  0.00000  1.0000
  Cd  Cd2       1.0  0.50000  0.50000  1.00000  1.0000
  H   H1        1.0  0.24188  0.23671  0.72195  1.0000
  H   H2        1.0  0.75813  0.76329  0.27805  1.0000
  H   H3        1.0  0.40583  0.55611  0.22809  1.0000
  H   H4        1.0  0.59417  0.44389  0.77192  1.0000
  H   H5        1.0  0.13727  0.71537  0.15989  1.0000
  H   H6        1.0  0.86273  0.28463  0.84011  1.0000
  H   H7        1.0  0.29729  0.24988  0.18186  1.0000
  H   H8        1.0  0.70271  0.75012  0.81814  1.0000
  H   H9        1.0  0.03379  0.73907  0.56317  1.0000
  H   H10       1.0  0.96621  0.26093  0.43683  1.0000
  H   H11       1.0  0.43507  0.79258  0.56570  1.0000
  H   H12       1.0  0.56493  0.20742  0.43431  1.0000
  H   H13       1.0  0.49599  0.35969  0.34371  1.0000
  H   H14       1.0  0.50401  0.64031  0.65629  1.0000
  H   H15       1.0  0.33397  0.98349  0.44864  1.0000
  H   H16       1.0  0.66603  0.01651  0.55137  1.0000
  H   H17       1.0  0.10250  0.06642  0.57196  1.0000
  H   H18       1.0  0.89750  0.93358  0.42804  1.0000
  H   H19       1.0  0.19295  0.37054  0.01395  1.0000
  H   H20       1.0  0.80705  0.62946  0.98605  1.0000
  H   H21       1.0  0.16813  0.57828  0.00380  1.0000
  H   H22       1.0  0.83187  0.42172  0.99620  1.0000
  C   C1        1.0  0.30635  0.14852  0.88656  1.0000
  C   C2        1.0  0.69365  0.85148  0.11344  1.0000
  C   C3        1.0  0.19918  0.83886  0.79583  1.0000
  C   C4        1.0  0.80082  0.16114  0.20417  1.0000
  C   C5        1.0  0.36038  0.77990  0.33196  1.0000
  C   C6        1.0  0.63962  0.22010  0.66804  1.0000
  C   C7        1.0  0.24990  0.74336  0.87909  1.0000
  C   C8        1.0  0.75010  0.25663  0.12090  1.0000
  C   C9        1.0  0.47132  0.55830  0.46486  1.0000
  C   C10       1.0  0.52867  0.44170  0.53514  1.0000
  C   C11       1.0  0.23945  0.02014  0.79911  1.0000
  C   C12       1.0  0.76055  0.97986  0.20089  1.0000
  C   C13       1.0  0.20766  0.09714  0.71758  1.0000
  C   C14       1.0  0.79234  0.90286  0.28242  1.0000
  C   C15       1.0  0.40698  0.60466  0.30217  1.0000
  C   C16       1.0  0.59302  0.39534  0.69783  1.0000
  C   C17       1.0  0.12614  0.74382  0.70866  1.0000
  C   C18       1.0  0.87386  0.25618  0.29134  1.0000
  C   C19       1.0  0.19667  0.84637  0.18326  1.0000
  C   C20       1.0  0.80333  0.15363  0.81674  1.0000
  C   C21       1.0  0.27969  0.11736  0.19778  1.0000
  C   C22       1.0  0.72032  0.88264  0.80222  1.0000
  C   C23       1.0  0.09076  0.82139  0.62789  1.0000
  C   C24       1.0  0.90924  0.17860  0.37211  1.0000
  C   C25       1.0  0.42607  0.73650  0.49215  1.0000
  C   C26       1.0  0.57393  0.26351  0.50785  1.0000
  C   C27       1.0  0.46084  0.49586  0.36844  1.0000
  C   C28       1.0  0.53915  0.50415  0.63156  1.0000
  C   C29       1.0  0.36975  0.84623  0.42673  1.0000
  C   C30       1.0  0.63025  0.15378  0.57328  1.0000
  C   C31       1.0  0.13080  0.00053  0.63309  1.0000
  C   C32       1.0  0.86920  0.99947  0.36691  1.0000
  N   N1        1.0  0.30284  0.89117  0.26492  1.0000
  N   N2        1.0  0.69716  0.10883  0.73509  1.0000
  N   N3        1.0  0.07916  0.55464  0.69928  1.0000
  N   N4        1.0  0.92083  0.44536  0.30072  1.0000
  N   N5        1.0  0.35700  0.06504  0.27566  1.0000
  N   N6        1.0  0.64300  0.93496  0.72434  1.0000
  N   N7        1.0  0.17931  0.98718  0.13913  1.0000
  N   N8        1.0  0.82069  0.01282  0.86087  1.0000
  O   O1        1.0  0.21950  0.49426  0.04620  1.0000
  O   O2        1.0  0.78050  0.50573  0.95380  1.0000
  O   O3        1.0  0.21961  0.15993  0.95641  1.0000
  O   O4        1.0  0.78039  0.84007  0.04359  1.0000
  O   O5        1.0  0.43574  0.24873  0.88313  1.0000
  O   O6        1.0  0.56426  0.75127  0.11687  1.0000
  O   O7        1.0  0.14466  0.74727  0.94011  1.0000
  O   O8        1.0  0.85533  0.25272  0.05989  1.0000
  O   O9        1.0  0.05575  0.49490  0.77112  1.0000
  O   O10       1.0  0.94425  0.50509  0.22888  1.0000
  O   O11       1.0  0.06329  0.46458  0.62020  1.0000
  O   O12       1.0  0.93671  0.53541  0.37980  1.0000
  O   O13       1.0  0.39792  0.66653  0.88101  1.0000
  O   O14       1.0  0.60208  0.33347  0.11899  1.0000
