data_image0
_chemical_formula_structural       Cu12H40C48I12N16
_chemical_formula_sum              "Cu12 H40 C48 I12 N16"
_cell_length_a       7.37375
_cell_length_b       12.0706
_cell_length_c       18.374
_cell_angle_alpha    90
_cell_angle_beta     90
_cell_angle_gamma    90

_space_group_name_H-M_alt    "P 1"
_space_group_IT_number       1

loop_
  _space_group_symop_operation_xyz
  'x, y, z'

loop_
  _atom_site_type_symbol
  _atom_site_label
  _atom_site_symmetry_multiplicity
  _atom_site_fract_x
  _atom_site_fract_y
  _atom_site_fract_z
  _atom_site_occupancy
  Cu  Cu1       1.0  0.56164  0.72163  0.27083  1.0000
  Cu  Cu2       1.0  0.93836  0.27837  0.77083  1.0000
  Cu  Cu3       1.0  0.43835  0.22163  0.22917  1.0000
  Cu  Cu4       1.0  0.06164  0.77837  0.72917  1.0000
  Cu  Cu5       1.0  0.57008  0.99765  0.28203  1.0000
  Cu  Cu6       1.0  0.92993  0.00234  0.78203  1.0000
  Cu  Cu7       1.0  0.42992  0.49766  0.21797  1.0000
  Cu  Cu8       1.0  0.07008  0.50235  0.71797  1.0000
  Cu  Cu9       1.0  0.41663  0.86853  0.18095  1.0000
  Cu  Cu10      1.0  0.08337  0.13147  0.68095  1.0000
  Cu  Cu11      1.0  0.58337  0.36853  0.31905  1.0000
  Cu  Cu12      1.0  0.91663  0.63147  0.81905  1.0000
  H   H1        1.0  0.64425  0.09517  0.42401  1.0000
  H   H2        1.0  0.85574  0.90482  0.92401  1.0000
  H   H3        1.0  0.35574  0.59517  0.07599  1.0000
  H   H4        1.0  0.14426  0.40483  0.57599  1.0000
  H   H5        1.0  0.66938  0.05136  0.51672  1.0000
  H   H6        1.0  0.83062  0.94863  0.01672  1.0000
  H   H7        1.0  0.33061  0.55137  0.98328  1.0000
  H   H8        1.0  0.16939  0.44864  0.48327  1.0000
  H   H9        1.0  0.32640  0.13150  0.37422  1.0000
  H   H10       1.0  0.17360  0.86850  0.87422  1.0000
  H   H11       1.0  0.67360  0.63150  0.12578  1.0000
  H   H12       1.0  0.82641  0.36850  0.62578  1.0000
  H   H13       1.0  0.01075  0.18965  0.40631  1.0000
  H   H14       1.0  0.48925  0.81035  0.90631  1.0000
  H   H15       1.0  0.98925  0.68965  0.09369  1.0000
  H   H16       1.0  0.51076  0.31035  0.59369  1.0000
  H   H17       1.0  0.91231  0.17805  0.53754  1.0000
  H   H18       1.0  0.58769  0.82195  0.03754  1.0000
  H   H19       1.0  0.08769  0.67805  0.96246  1.0000
  H   H20       1.0  0.41231  0.32195  0.46246  1.0000
  H   H21       1.0  0.41424  0.06209  0.60206  1.0000
  H   H22       1.0  0.08575  0.93791  0.10206  1.0000
  H   H23       1.0  0.58576  0.56209  0.89794  1.0000
  H   H24       1.0  0.91425  0.43791  0.39794  1.0000
  H   H25       1.0  0.56846  0.89208  0.60183  1.0000
  H   H26       1.0  0.93155  0.10792  0.10183  1.0000
  H   H27       1.0  0.43154  0.39208  0.89817  1.0000
  H   H28       1.0  0.06845  0.60793  0.39817  1.0000
  H   H29       1.0  0.53259  0.69867  0.64484  1.0000
  H   H30       1.0  0.96741  0.30132  0.14484  1.0000
  H   H31       1.0  0.46741  0.19868  0.85516  1.0000
  H   H32       1.0  0.03258  0.80133  0.35517  1.0000
  H   H33       1.0  0.50536  0.54321  0.55874  1.0000
  H   H34       1.0  0.99464  0.45678  0.05875  1.0000
  H   H35       1.0  0.49464  0.04322  0.94126  1.0000
  H   H36       1.0  0.00535  0.95679  0.44126  1.0000
  H   H37       1.0  0.51351  0.57397  0.42329  1.0000
  H   H38       1.0  0.98649  0.42603  0.92330  1.0000
  H   H39       1.0  0.48648  0.07397  0.07671  1.0000
  H   H40       1.0  0.01351  0.92603  0.57671  1.0000
  C   C1        1.0  0.58157  0.04746  0.46841  1.0000
  C   C2        1.0  0.91843  0.95254  0.96841  1.0000
  C   C3        1.0  0.41843  0.54746  0.03159  1.0000
  C   C4        1.0  0.08157  0.45255  0.53159  1.0000
  C   C5        1.0  0.39375  0.08949  0.48553  1.0000
  C   C6        1.0  0.10625  0.91050  0.98553  1.0000
  C   C7        1.0  0.60625  0.58950  0.01447  1.0000
  C   C8        1.0  0.89375  0.41051  0.51447  1.0000
  C   C9        1.0  0.27931  0.12767  0.43042  1.0000
  C   C10       1.0  0.22069  0.87233  0.93042  1.0000
  C   C11       1.0  0.72069  0.62767  0.06958  1.0000
  C   C12       1.0  0.77931  0.37233  0.56958  1.0000
  C   C13       1.0  0.10391  0.16070  0.44832  1.0000
  C   C14       1.0  0.39608  0.83930  0.94832  1.0000
  C   C15       1.0  0.89608  0.66070  0.05168  1.0000
  C   C16       1.0  0.60392  0.33930  0.55168  1.0000
  C   C17       1.0  0.04884  0.15499  0.52059  1.0000
  C   C18       1.0  0.45117  0.84501  0.02059  1.0000
  C   C19       1.0  0.95117  0.65499  0.97941  1.0000
  C   C20       1.0  0.54883  0.34501  0.47941  1.0000
  C   C21       1.0  0.32885  0.08885  0.55679  1.0000
  C   C22       1.0  0.17115  0.91115  0.05679  1.0000
  C   C23       1.0  0.67115  0.58885  0.94321  1.0000
  C   C24       1.0  0.82885  0.41115  0.44320  1.0000
  C   C25       1.0  0.55857  0.84006  0.48747  1.0000
  C   C26       1.0  0.94142  0.15993  0.98747  1.0000
  C   C27       1.0  0.44143  0.34007  0.01253  1.0000
  C   C28       1.0  0.05858  0.65994  0.51253  1.0000
  C   C29       1.0  0.55545  0.82424  0.56307  1.0000
  C   C30       1.0  0.94455  0.17576  0.06307  1.0000
  C   C31       1.0  0.44455  0.32424  0.93692  1.0000
  C   C32       1.0  0.05545  0.67576  0.43693  1.0000
  C   C33       1.0  0.53601  0.71563  0.58653  1.0000
  C   C34       1.0  0.96399  0.28436  0.08653  1.0000
  C   C35       1.0  0.46399  0.21564  0.91347  1.0000
  C   C36       1.0  0.03600  0.78437  0.41347  1.0000
  C   C37       1.0  0.52059  0.62646  0.53681  1.0000
  C   C38       1.0  0.97941  0.37354  0.03681  1.0000
  C   C39       1.0  0.47941  0.12646  0.96319  1.0000
  C   C40       1.0  0.02058  0.87355  0.46319  1.0000
  C   C41       1.0  0.52502  0.64206  0.46195  1.0000
  C   C42       1.0  0.97498  0.35794  0.96195  1.0000
  C   C43       1.0  0.47498  0.14206  0.03805  1.0000
  C   C44       1.0  0.02503  0.85794  0.53805  1.0000
  C   C45       1.0  0.54512  0.75147  0.43750  1.0000
  C   C46       1.0  0.95488  0.24853  0.93750  1.0000
  C   C47       1.0  0.45488  0.25147  0.06250  1.0000
  C   C48       1.0  0.04512  0.74853  0.56250  1.0000
  I   I1        1.0  0.76632  0.87210  0.18976  1.0000
  I   I2        1.0  0.73368  0.12790  0.68976  1.0000
  I   I3        1.0  0.23368  0.37210  0.31024  1.0000
  I   I4        1.0  0.26632  0.62790  0.81024  1.0000
  I   I5        1.0  0.23759  0.04043  0.23684  1.0000
  I   I6        1.0  0.26241  0.95957  0.73684  1.0000
  I   I7        1.0  0.76241  0.54043  0.26316  1.0000
  I   I8        1.0  0.73759  0.45957  0.76316  1.0000
  I   I9        1.0  0.23833  0.68341  0.21761  1.0000
  I   I10       1.0  0.26167  0.31659  0.71761  1.0000
  I   I11       1.0  0.76167  0.18341  0.28239  1.0000
  I   I12       1.0  0.73833  0.81659  0.78239  1.0000
  N   N1        1.0  0.57635  0.93222  0.44482  1.0000
  N   N2        1.0  0.92364  0.06778  0.94482  1.0000
  N   N3        1.0  0.42365  0.43222  0.05518  1.0000
  N   N4        1.0  0.07636  0.56778  0.55518  1.0000
  N   N5        1.0  0.57182  0.90380  0.37327  1.0000
  N   N6        1.0  0.92818  0.09619  0.87327  1.0000
  N   N7        1.0  0.42818  0.40381  0.12673  1.0000
  N   N8        1.0  0.07183  0.59620  0.62673  1.0000
  N   N9        1.0  0.55536  0.79498  0.36832  1.0000
  N   N10       1.0  0.94464  0.20502  0.86832  1.0000
  N   N11       1.0  0.44464  0.29498  0.13168  1.0000
  N   N12       1.0  0.05537  0.70502  0.63168  1.0000
  N   N13       1.0  0.15990  0.12120  0.57450  1.0000
  N   N14       1.0  0.34010  0.87880  0.07450  1.0000
  N   N15       1.0  0.84010  0.62120  0.92549  1.0000
  N   N16       1.0  0.65990  0.37880  0.42550  1.0000
