data_image0
_chemical_formula_structural       Cu2H28C36S4N8O8
_chemical_formula_sum              "Cu2 H28 C36 S4 N8 O8"
_cell_length_a       8.65757
_cell_length_b       9.29004
_cell_length_c       12.5636
_cell_angle_alpha    90.0001
_cell_angle_beta     90
_cell_angle_gamma    112.323

_space_group_name_H-M_alt    "P 1"
_space_group_IT_number       1

loop_
  _space_group_symop_operation_xyz
  'x, y, z'

loop_
  _atom_site_type_symbol
  _atom_site_label
  _atom_site_symmetry_multiplicity
  _atom_site_fract_x
  _atom_site_fract_y
  _atom_site_fract_z
  _atom_site_occupancy
  Cu  Cu1       1.0  0.50000  0.50000  0.50000  1.0000
  Cu  Cu2       1.0  1.00000  0.50000  0.00000  1.0000
  H   H1        1.0  0.01998  0.39506  0.39222  1.0000
  H   H2        1.0  0.48003  0.60493  0.89222  1.0000
  H   H3        1.0  0.98002  0.60493  0.60778  1.0000
  H   H4        1.0  0.51998  0.39506  0.10778  1.0000
  H   H5        1.0  0.25404  0.82161  0.38176  1.0000
  H   H6        1.0  0.24596  0.17839  0.88177  1.0000
  H   H7        1.0  0.74596  0.17839  0.61824  1.0000
  H   H8        1.0  0.75404  0.82161  0.11824  1.0000
  H   H9        1.0  0.05426  0.66618  0.39986  1.0000
  H   H10       1.0  0.44574  0.33382  0.89986  1.0000
  H   H11       1.0  0.94574  0.33382  0.60014  1.0000
  H   H12       1.0  0.55426  0.66618  0.10014  1.0000
  H   H13       1.0  0.71218  0.16845  0.01819  1.0000
  H   H14       1.0  0.78782  0.83155  0.51819  1.0000
  H   H15       1.0  0.28782  0.83155  0.98181  1.0000
  H   H16       1.0  0.21218  0.16845  0.48181  1.0000
  H   H17       1.0  0.73285  0.09062  0.41491  1.0000
  H   H18       1.0  0.76715  0.90938  0.91491  1.0000
  H   H19       1.0  0.26715  0.90938  0.58509  1.0000
  H   H20       1.0  0.23285  0.09062  0.08509  1.0000
  H   H21       1.0  0.52686  0.89013  0.30223  1.0000
  H   H22       1.0  0.97314  0.10987  0.80223  1.0000
  H   H23       1.0  0.47314  0.10987  0.69777  1.0000
  H   H24       1.0  0.02686  0.89013  0.19777  1.0000
  H   H25       1.0  0.51044  0.92919  0.10770  1.0000
  H   H26       1.0  0.98956  0.07081  0.60770  1.0000
  H   H27       1.0  0.48955  0.07081  0.89230  1.0000
  H   H28       1.0  0.01044  0.92919  0.39230  1.0000
  C   C1        1.0  0.26807  0.60855  0.44499  1.0000
  C   C2        1.0  0.23193  0.39145  0.94499  1.0000
  C   C3        1.0  0.73193  0.39145  0.55500  1.0000
  C   C4        1.0  0.76807  0.60855  0.05501  1.0000
  C   C5        1.0  0.03235  0.46829  0.23213  1.0000
  C   C6        1.0  0.46765  0.53171  0.73213  1.0000
  C   C7        1.0  0.96764  0.53171  0.76787  1.0000
  C   C8        1.0  0.53235  0.46829  0.26787  1.0000
  C   C9        1.0  0.18524  0.69541  0.37757  1.0000
  C   C10       1.0  0.31476  0.30459  0.87757  1.0000
  C   C11       1.0  0.81476  0.30459  0.62243  1.0000
  C   C12       1.0  0.68524  0.69541  0.12243  1.0000
  C   C13       1.0  0.83873  0.24113  0.27881  1.0000
  C   C14       1.0  0.66127  0.75887  0.77881  1.0000
  C   C15       1.0  0.16126  0.75887  0.72119  1.0000
  C   C16       1.0  0.33874  0.24113  0.22119  1.0000
  C   C17       1.0  0.83326  0.26266  0.16737  1.0000
  C   C18       1.0  0.66673  0.73734  0.66737  1.0000
  C   C19       1.0  0.16673  0.73734  0.83263  1.0000
  C   C20       1.0  0.33327  0.26265  0.33263  1.0000
  C   C21       1.0  0.71563  0.15089  0.10373  1.0000
  C   C22       1.0  0.78437  0.84911  0.60373  1.0000
  C   C23       1.0  0.28437  0.84911  0.89627  1.0000
  C   C24       1.0  0.21563  0.15089  0.39627  1.0000
  C   C25       1.0  0.72858  0.10809  0.32940  1.0000
  C   C26       1.0  0.77142  0.89191  0.82940  1.0000
  C   C27       1.0  0.27142  0.89191  0.67060  1.0000
  C   C28       1.0  0.22858  0.10809  0.17060  1.0000
  C   C29       1.0  0.61159  0.99711  0.26530  1.0000
  C   C30       1.0  0.88841  0.00289  0.76530  1.0000
  C   C31       1.0  0.38840  0.00289  0.73470  1.0000
  C   C32       1.0  0.11159  0.99711  0.23470  1.0000
  C   C33       1.0  0.60475  0.01863  0.15457  1.0000
  C   C34       1.0  0.89524  0.98137  0.65457  1.0000
  C   C35       1.0  0.39524  0.98137  0.84543  1.0000
  C   C36       1.0  0.10476  0.01863  0.34543  1.0000
  S   S1        1.0  0.19512  0.64831  0.23764  1.0000
  S   S2        1.0  0.30488  0.35169  0.73764  1.0000
  S   S3        1.0  0.80487  0.35169  0.76236  1.0000
  S   S4        1.0  0.69512  0.64831  0.26236  1.0000
  N   N1        1.0  0.95499  0.40632  0.14129  1.0000
  N   N2        1.0  0.54500  0.59367  0.64129  1.0000
  N   N3        1.0  0.04500  0.59368  0.85871  1.0000
  N   N4        1.0  0.45500  0.40632  0.35871  1.0000
  N   N5        1.0  0.96671  0.37264  0.31658  1.0000
  N   N6        1.0  0.53329  0.62735  0.81658  1.0000
  N   N7        1.0  0.03329  0.62735  0.68342  1.0000
  N   N8        1.0  0.46671  0.37264  0.18342  1.0000
  O   O1        1.0  0.17991  0.47822  0.48483  1.0000
  O   O2        1.0  0.32009  0.52178  0.98483  1.0000
  O   O3        1.0  0.82009  0.52178  0.51517  1.0000
  O   O4        1.0  0.67991  0.47822  0.01517  1.0000
  O   O5        1.0  0.42748  0.67225  0.45115  1.0000
  O   O6        1.0  0.07252  0.32775  0.95115  1.0000
  O   O7        1.0  0.57252  0.32775  0.54885  1.0000
  O   O8        1.0  0.92748  0.67225  0.04885  1.0000
