data_image0
_chemical_formula_structural       Hg2H44C60N12Cl4O4
_chemical_formula_sum              "Hg2 H44 C60 N12 Cl4 O4"
_cell_length_a       6.7519
_cell_length_b       13.9138
_cell_length_c       15.2631
_cell_angle_alpha    101.345
_cell_angle_beta     102.916
_cell_angle_gamma    89.9722

_space_group_name_H-M_alt    "P 1"
_space_group_IT_number       1

loop_
  _space_group_symop_operation_xyz
  'x, y, z'

loop_
  _atom_site_type_symbol
  _atom_site_label
  _atom_site_symmetry_multiplicity
  _atom_site_fract_x
  _atom_site_fract_y
  _atom_site_fract_z
  _atom_site_occupancy
  Hg  Hg1       1.0  0.00000  0.00000  0.00000  1.0000
  Hg  Hg2       1.0  0.00000  0.50000  1.00000  1.0000
  H   H1        1.0  0.68519  0.37646  0.18404  1.0000
  H   H2        1.0  0.50205  0.12358  0.81610  1.0000
  H   H3        1.0  0.31481  0.62354  0.81596  1.0000
  H   H4        1.0  0.49795  0.87642  0.18390  1.0000
  H   H5        1.0  0.90868  0.28031  0.09033  1.0000
  H   H6        1.0  0.81993  0.21982  0.90994  1.0000
  H   H7        1.0  0.09132  0.71969  0.90967  1.0000
  H   H8        1.0  0.18007  0.78018  0.09005  1.0000
  H   H9        1.0  0.61310  0.02045  0.09666  1.0000
  H   H10       1.0  0.51703  0.47958  0.90348  1.0000
  H   H11       1.0  0.38690  0.97956  0.90334  1.0000
  H   H12       1.0  0.48297  0.52042  0.09652  1.0000
  H   H13       1.0  0.10354  0.97943  0.24745  1.0000
  H   H14       1.0  0.85634  0.52073  0.75215  1.0000
  H   H15       1.0  0.89646  0.02057  0.75255  1.0000
  H   H16       1.0  0.14366  0.47927  0.24785  1.0000
  H   H17       1.0  0.82765  0.93813  0.31956  1.0000
  H   H18       1.0  0.50733  0.56201  0.68016  1.0000
  H   H19       1.0  0.17235  0.06186  0.68044  1.0000
  H   H20       1.0  0.49267  0.43799  0.31984  1.0000
  H   H21       1.0  0.66027  0.07136  0.40790  1.0000
  H   H22       1.0  0.25072  0.42873  0.59218  1.0000
  H   H23       1.0  0.33973  0.92864  0.59210  1.0000
  H   H24       1.0  0.74929  0.57127  0.40782  1.0000
  H   H25       1.0  0.62325  0.24429  0.46403  1.0000
  H   H26       1.0  0.15735  0.25572  0.53608  1.0000
  H   H27       1.0  0.37675  0.75571  0.53597  1.0000
  H   H28       1.0  0.84265  0.74428  0.46392  1.0000
  H   H29       1.0  0.72937  0.41882  0.48240  1.0000
  H   H30       1.0  0.24560  0.08123  0.51759  1.0000
  H   H31       1.0  0.27063  0.58118  0.51759  1.0000
  H   H32       1.0  0.75439  0.91878  0.48241  1.0000
  H   H33       1.0  0.01005  0.46256  0.41104  1.0000
  H   H34       1.0  0.59858  0.03757  0.58890  1.0000
  H   H35       1.0  0.98995  0.53744  0.58896  1.0000
  H   H36       1.0  0.40142  0.96243  0.41110  1.0000
  H   H37       1.0  0.18113  0.33617  0.32684  1.0000
  H   H38       1.0  0.85434  0.16404  0.67310  1.0000
  H   H39       1.0  0.81887  0.66383  0.67316  1.0000
  H   H40       1.0  0.14566  0.83596  0.32690  1.0000
  H   H41       1.0  0.30369  0.23085  0.26761  1.0000
  H   H42       1.0  0.03604  0.26923  0.73219  1.0000
  H   H43       1.0  0.69631  0.76915  0.73239  1.0000
  H   H44       1.0  0.96396  0.73077  0.26781  1.0000
  C   C1        1.0  0.66913  0.29659  0.16622  1.0000
  C   C2        1.0  0.50378  0.20344  0.83391  1.0000
  C   C3        1.0  0.33087  0.70341  0.83378  1.0000
  C   C4        1.0  0.49622  0.79656  0.16609  1.0000
  C   C5        1.0  0.79267  0.24323  0.11313  1.0000
  C   C6        1.0  0.68075  0.25685  0.88706  1.0000
  C   C7        1.0  0.20733  0.75677  0.88687  1.0000
  C   C8        1.0  0.31926  0.74315  0.11294  1.0000
  C   C9        1.0  0.63119  0.10021  0.11672  1.0000
  C   C10       1.0  0.51522  0.39982  0.88342  1.0000
  C   C11       1.0  0.36881  0.89979  0.88329  1.0000
  C   C12       1.0  0.48478  0.60018  0.11658  1.0000
  C   C13       1.0  0.51082  0.15357  0.17071  1.0000
  C   C14       1.0  0.34057  0.34643  0.82937  1.0000
  C   C15       1.0  0.48918  0.84643  0.82929  1.0000
  C   C16       1.0  0.65943  0.65357  0.17063  1.0000
  C   C17       1.0  0.35361  0.09960  0.19984  1.0000
  C   C18       1.0  0.15399  0.40046  0.80018  1.0000
  C   C19       1.0  0.64639  0.90040  0.80016  1.0000
  C   C20       1.0  0.84601  0.59954  0.19981  1.0000
  C   C21       1.0  0.09916  0.13429  0.29606  1.0000
  C   C22       1.0  0.80278  0.36585  0.70375  1.0000
  C   C23       1.0  0.90084  0.86571  0.70394  1.0000
  C   C24       1.0  0.19722  0.63415  0.29625  1.0000
  C   C25       1.0  0.03404  0.03732  0.28753  1.0000
  C   C26       1.0  0.74627  0.46284  0.71216  1.0000
  C   C27       1.0  0.96597  0.96268  0.71247  1.0000
  C   C28       1.0  0.25373  0.53716  0.28784  1.0000
  C   C29       1.0  0.87632  0.01486  0.32806  1.0000
  C   C30       1.0  0.54750  0.48528  0.67172  1.0000
  C   C31       1.0  0.12368  0.98514  0.67194  1.0000
  C   C32       1.0  0.45250  0.51472  0.32828  1.0000
  C   C33       1.0  0.78260  0.08811  0.37649  1.0000
  C   C34       1.0  0.40488  0.41199  0.62349  1.0000
  C   C35       1.0  0.21740  0.91189  0.62351  1.0000
  C   C36       1.0  0.59512  0.58801  0.37651  1.0000
  C   C37       1.0  0.84320  0.18791  0.38587  1.0000
  C   C38       1.0  0.45617  0.31219  0.61414  1.0000
  C   C39       1.0  0.15680  0.81209  0.61413  1.0000
  C   C40       1.0  0.54383  0.68781  0.38586  1.0000
  C   C41       1.0  0.74621  0.26428  0.43440  1.0000
  C   C42       1.0  0.31034  0.23578  0.56568  1.0000
  C   C43       1.0  0.25378  0.73572  0.56560  1.0000
  C   C44       1.0  0.68966  0.76422  0.43432  1.0000
  C   C45       1.0  0.80548  0.36142  0.44437  1.0000
  C   C46       1.0  0.35991  0.13866  0.55568  1.0000
  C   C47       1.0  0.19452  0.63858  0.55563  1.0000
  C   C48       1.0  0.64009  0.86134  0.44432  1.0000
  C   C49       1.0  0.96378  0.38597  0.40471  1.0000
  C   C50       1.0  0.55839  0.11414  0.59529  1.0000
  C   C51       1.0  0.03622  0.61402  0.59529  1.0000
  C   C52       1.0  0.44161  0.88586  0.40470  1.0000
  C   C53       1.0  0.06052  0.31344  0.35653  1.0000
  C   C54       1.0  0.70358  0.18672  0.64346  1.0000
  C   C55       1.0  0.93948  0.68656  0.64347  1.0000
  C   C56       1.0  0.29642  0.81328  0.35654  1.0000
  C   C57       1.0  0.00448  0.21274  0.34567  1.0000
  C   C58       1.0  0.65814  0.28739  0.65428  1.0000
  C   C59       1.0  0.99552  0.78726  0.65433  1.0000
  C   C60       1.0  0.34186  0.71261  0.34572  1.0000
  N   N1        1.0  0.52999  0.25178  0.19636  1.0000
  N   N2        1.0  0.33411  0.24822  0.80368  1.0000
  N   N3        1.0  0.47001  0.74822  0.80364  1.0000
  N   N4        1.0  0.66589  0.75178  0.19632  1.0000
  N   N5        1.0  0.77417  0.14505  0.08895  1.0000
  N   N6        1.0  0.68633  0.35502  0.91124  1.0000
  N   N7        1.0  0.22583  0.85495  0.91105  1.0000
  N   N8        1.0  0.31368  0.64499  0.08876  1.0000
  N   N9        1.0  0.25521  0.15896  0.25682  1.0000
  N   N10       1.0  0.99842  0.34113  0.74299  1.0000
  N   N11       1.0  0.74479  0.84104  0.74318  1.0000
  N   N12       1.0  0.00159  0.65887  0.25701  1.0000
  Cl  Cl1       1.0  0.16452  0.12273  0.95364  1.0000
  Cl  Cl2       1.0  0.21098  0.37700  0.04633  1.0000
  Cl  Cl3       1.0  0.83548  0.87727  0.04636  1.0000
  Cl  Cl4       1.0  0.78902  0.62300  0.95367  1.0000
  O   O1        1.0  0.31947  0.00964  0.17184  1.0000
  O   O2        1.0  0.14781  0.49038  0.82830  1.0000
  O   O3        1.0  0.68053  0.99036  0.82816  1.0000
  O   O4        1.0  0.85220  0.50962  0.17170  1.0000
