data_image0
_chemical_formula_structural       Co6H36C54S6N12O12
_chemical_formula_sum              "Co6 H36 C54 S6 N12 O12"
_cell_length_a       11.9216
_cell_length_b       12.9425
_cell_length_c       12.9826
_cell_angle_alpha    111.024
_cell_angle_beta     108.061
_cell_angle_gamma    107.762

_space_group_name_H-M_alt    "P 1"
_space_group_IT_number       1

loop_
  _space_group_symop_operation_xyz
  'x, y, z'

loop_
  _atom_site_type_symbol
  _atom_site_label
  _atom_site_symmetry_multiplicity
  _atom_site_fract_x
  _atom_site_fract_y
  _atom_site_fract_z
  _atom_site_occupancy
  Co  Co1       1.0  0.10131  0.23356  0.80868  1.0000
  Co  Co2       1.0  0.86749  0.57558  0.76640  1.0000
  Co  Co3       1.0  0.29228  0.19117  0.42535  1.0000
  Co  Co4       1.0  0.89869  0.76644  0.19131  1.0000
  Co  Co5       1.0  0.13251  0.42442  0.23360  1.0000
  Co  Co6       1.0  0.70772  0.80883  0.57465  1.0000
  H   H1        1.0  0.24498  0.07782  0.84925  1.0000
  H   H2        1.0  0.16688  0.77193  0.92196  1.0000
  H   H3        1.0  0.39463  0.14979  0.22791  1.0000
  H   H4        1.0  0.75502  0.92218  0.15074  1.0000
  H   H5        1.0  0.83313  0.22807  0.07804  1.0000
  H   H6        1.0  0.60537  0.85021  0.77209  1.0000
  H   H7        1.0  0.00344  0.10745  0.36592  1.0000
  H   H8        1.0  0.89665  0.25873  0.89278  1.0000
  H   H9        1.0  0.63759  0.63444  0.74145  1.0000
  H   H10       1.0  0.99656  0.89255  0.63407  1.0000
  H   H11       1.0  0.10335  0.74127  0.10723  1.0000
  H   H12       1.0  0.36241  0.36557  0.25855  1.0000
  H   H13       1.0  0.91515  0.19692  0.36189  1.0000
  H   H14       1.0  0.71882  0.16547  0.80309  1.0000
  H   H15       1.0  0.55279  0.63710  0.83383  1.0000
  H   H16       1.0  0.08485  0.80308  0.63811  1.0000
  H   H17       1.0  0.28119  0.83453  0.19692  1.0000
  H   H18       1.0  0.44720  0.36290  0.16617  1.0000
  H   H19       1.0  0.39668  0.03109  0.52043  1.0000
  H   H20       1.0  0.36613  0.48882  0.96922  1.0000
  H   H21       1.0  0.87679  0.48004  0.51129  1.0000
  H   H22       1.0  0.60332  0.96891  0.47957  1.0000
  H   H23       1.0  0.63387  0.51118  0.03078  1.0000
  H   H24       1.0  0.12321  0.51997  0.48871  1.0000
  H   H25       1.0  0.44494  0.93414  0.65302  1.0000
  H   H26       1.0  0.51099  0.71855  0.06588  1.0000
  H   H27       1.0  0.79164  0.34702  0.28178  1.0000
  H   H28       1.0  0.55506  0.06587  0.34698  1.0000
  H   H29       1.0  0.48901  0.28144  0.93412  1.0000
  H   H30       1.0  0.20836  0.65298  0.71823  1.0000
  H   H31       1.0  0.36748  0.95376  0.81092  1.0000
  H   H32       1.0  0.41361  0.85737  0.04595  1.0000
  H   H33       1.0  0.55542  0.18849  0.14290  1.0000
  H   H34       1.0  0.63252  0.04624  0.18908  1.0000
  H   H35       1.0  0.58639  0.14263  0.95405  1.0000
  H   H36       1.0  0.44459  0.81152  0.85711  1.0000
  C   C1        1.0  0.27703  0.06695  0.77771  1.0000
  C   C2        1.0  0.21001  0.71103  0.93285  1.0000
  C   C3        1.0  0.49859  0.22163  0.28888  1.0000
  C   C4        1.0  0.72297  0.93305  0.22229  1.0000
  C   C5        1.0  0.78999  0.28897  0.06715  1.0000
  C   C6        1.0  0.50141  0.77837  0.71112  1.0000
  C   C7        1.0  0.17827  0.21136  0.60369  1.0000
  C   C8        1.0  0.96716  0.39253  0.78895  1.0000
  C   C9        1.0  0.57492  0.39638  0.60700  1.0000
  C   C10       1.0  0.82173  0.78864  0.39631  1.0000
  C   C11       1.0  0.03284  0.60747  0.21105  1.0000
  C   C12       1.0  0.42508  0.60362  0.39300  1.0000
  C   C13       1.0  0.29066  0.10609  0.60935  1.0000
  C   C14       1.0  0.18482  0.50305  0.89391  1.0000
  C   C15       1.0  0.68142  0.39077  0.49667  1.0000
  C   C16       1.0  0.70934  0.89391  0.39065  1.0000
  C   C17       1.0  0.81518  0.49695  0.10609  1.0000
  C   C18       1.0  0.31857  0.60923  0.50333  1.0000
  C   C19       1.0  0.24944  0.12043  0.70279  1.0000
  C   C20       1.0  0.12912  0.58254  0.87954  1.0000
  C   C21       1.0  0.54630  0.29684  0.41722  1.0000
  C   C22       1.0  0.75056  0.87957  0.29721  1.0000
  C   C23       1.0  0.87088  0.41746  0.12046  1.0000
  C   C24       1.0  0.45370  0.70317  0.58278  1.0000
  C   C25       1.0  0.01415  0.20190  0.39270  1.0000
  C   C26       1.0  0.81281  0.19114  0.79839  1.0000
  C   C27       1.0  0.62153  0.60709  0.80855  1.0000
  C   C28       1.0  0.98585  0.79810  0.60730  1.0000
  C   C29       1.0  0.18720  0.80886  0.20161  1.0000
  C   C30       1.0  0.37846  0.39291  0.19144  1.0000
  C   C31       1.0  0.36355  0.04079  0.59116  1.0000
  C   C32       1.0  0.32304  0.54999  0.95926  1.0000
  C   C33       1.0  0.77253  0.40905  0.44998  1.0000
  C   C34       1.0  0.63645  0.95921  0.40883  1.0000
  C   C35       1.0  0.67696  0.45001  0.04074  1.0000
  C   C36       1.0  0.22747  0.59096  0.55002  1.0000
  C   C37       1.0  0.39020  0.98730  0.66569  1.0000
  C   C38       1.0  0.40303  0.67814  0.01259  1.0000
  C   C39       1.0  0.72424  0.33427  0.32201  1.0000
  C   C40       1.0  0.60980  0.01270  0.33431  1.0000
  C   C41       1.0  0.59697  0.32185  0.98741  1.0000
  C   C42       1.0  0.27576  0.66574  0.67799  1.0000
  C   C43       1.0  0.34658  0.99930  0.75653  1.0000
  C   C44       1.0  0.34728  0.75734  0.00046  1.0000
  C   C45       1.0  0.58933  0.24301  0.24281  1.0000
  C   C46       1.0  0.65342  0.00070  0.24347  1.0000
  C   C47       1.0  0.65272  0.24266  0.99955  1.0000
  C   C48       1.0  0.41067  0.75699  0.75719  1.0000
  C   C49       1.0  0.08686  0.25971  0.33467  1.0000
  C   C50       1.0  0.82756  0.07495  0.74033  1.0000
  C   C51       1.0  0.75272  0.66559  0.92491  1.0000
  C   C52       1.0  0.91314  0.74029  0.66533  1.0000
  C   C53       1.0  0.17244  0.92504  0.25968  1.0000
  C   C54       1.0  0.24728  0.33441  0.07509  1.0000
  S   S1        1.0  0.09876  0.29436  0.56361  1.0000
  S   S2        1.0  0.80464  0.26981  0.70610  1.0000
  S   S3        1.0  0.53561  0.43594  0.72957  1.0000
  S   S4        1.0  0.90123  0.70564  0.43638  1.0000
  S   S5        1.0  0.19536  0.73019  0.29391  1.0000
  S   S6        1.0  0.46438  0.56406  0.27043  1.0000
  N   N1        1.0  0.17845  0.18772  0.69751  1.0000
  N   N2        1.0  0.99085  0.51018  0.81250  1.0000
  N   N3        1.0  0.48080  0.30213  0.48952  1.0000
  N   N4        1.0  0.82155  0.81228  0.30249  1.0000
  N   N5        1.0  0.00915  0.48982  0.18750  1.0000
  N   N6        1.0  0.51920  0.69787  0.51048  1.0000
  N   N7        1.0  0.24536  0.16589  0.54863  1.0000
  N   N8        1.0  0.07978  0.38254  0.83426  1.0000
  N   N9        1.0  0.69722  0.45181  0.61701  1.0000
  N   N10       1.0  0.75464  0.83410  0.45137  1.0000
  N   N11       1.0  0.92022  0.61746  0.16574  1.0000
  N   N12       1.0  0.30278  0.54819  0.38299  1.0000
  O   O1        1.0  0.03739  0.31420  0.28379  1.0000
  O   O2        1.0  0.72346  0.96967  0.68534  1.0000
  O   O3        1.0  0.75383  0.71582  0.02990  1.0000
  O   O4        1.0  0.96261  0.68580  0.71621  1.0000
  O   O5        1.0  0.27654  0.03033  0.31466  1.0000
  O   O6        1.0  0.24616  0.28418  0.97010  1.0000
  O   O7        1.0  0.19246  0.25347  0.33751  1.0000
  O   O8        1.0  0.93932  0.08360  0.74666  1.0000
  O   O9        1.0  0.85583  0.66332  0.91629  1.0000
  O   O10       1.0  0.80754  0.74653  0.66249  1.0000
  O   O11       1.0  0.06068  0.91640  0.25334  1.0000
  O   O12       1.0  0.14416  0.33668  0.08370  1.0000
