data_image0
_chemical_formula_structural       Zn2H40C40N4O12
_chemical_formula_sum              "Zn2 H40 C40 N4 O12"
_cell_length_a       7.21947
_cell_length_b       11.2841
_cell_length_c       11.3712
_cell_angle_alpha    90.4117
_cell_angle_beta     96.6916
_cell_angle_gamma    106.002

_space_group_name_H-M_alt    "P 1"
_space_group_IT_number       1

loop_
  _space_group_symop_operation_xyz
  'x, y, z'

loop_
  _atom_site_type_symbol
  _atom_site_label
  _atom_site_symmetry_multiplicity
  _atom_site_fract_x
  _atom_site_fract_y
  _atom_site_fract_z
  _atom_site_occupancy
  Zn  Zn1       1.0  0.75457  0.25030  0.32172  1.0000
  Zn  Zn2       1.0  0.24544  0.74970  0.67828  1.0000
  H   H1        1.0  0.00530  0.85908  0.39313  1.0000
  H   H2        1.0  0.99470  0.14092  0.60687  1.0000
  H   H3        1.0  0.76385  0.84977  0.41289  1.0000
  H   H4        1.0  0.23615  0.15022  0.58711  1.0000
  H   H5        1.0  0.93909  0.97348  0.13712  1.0000
  H   H6        1.0  0.06091  0.02652  0.86288  1.0000
  H   H7        1.0  0.83900  0.86672  0.93811  1.0000
  H   H8        1.0  0.16101  0.13327  0.06189  1.0000
  H   H9        1.0  0.65928  0.64467  0.92158  1.0000
  H   H10       1.0  0.34071  0.35532  0.07842  1.0000
  H   H11       1.0  0.56951  0.53272  0.10286  1.0000
  H   H12       1.0  0.43048  0.46729  0.89714  1.0000
  H   H13       1.0  0.51106  0.63949  0.35879  1.0000
  H   H14       1.0  0.48895  0.36051  0.64120  1.0000
  H   H15       1.0  0.75607  0.64693  0.40748  1.0000
  H   H16       1.0  0.24394  0.35307  0.59252  1.0000
  H   H17       1.0  0.51624  0.08850  0.50008  1.0000
  H   H18       1.0  0.48375  0.91150  0.49992  1.0000
  H   H19       1.0  0.51704  0.07370  0.71627  1.0000
  H   H20       1.0  0.48296  0.92630  0.28373  1.0000
  H   H21       1.0  0.96466  0.42428  0.75120  1.0000
  H   H22       1.0  0.03534  0.57572  0.24880  1.0000
  H   H23       1.0  0.94795  0.41913  0.53466  1.0000
  H   H24       1.0  0.05205  0.58087  0.46534  1.0000
  H   H25       1.0  0.66414  0.04843  0.89910  1.0000
  H   H26       1.0  0.33586  0.95157  0.10090  1.0000
  H   H27       1.0  0.67697  0.05925  0.11903  1.0000
  H   H28       1.0  0.32303  0.94076  0.88098  1.0000
  H   H29       1.0  0.84221  0.43986  0.13144  1.0000
  H   H30       1.0  0.15779  0.56015  0.86856  1.0000
  H   H31       1.0  0.83040  0.44739  0.91224  1.0000
  H   H32       1.0  0.16960  0.55261  0.08776  1.0000
  H   H33       1.0  0.33174  0.13120  0.31390  1.0000
  H   H34       1.0  0.66826  0.86879  0.68610  1.0000
  H   H35       1.0  0.41542  0.26671  0.27175  1.0000
  H   H36       1.0  0.58457  0.73329  0.72825  1.0000
  H   H37       1.0  0.17501  0.36926  0.33262  1.0000
  H   H38       1.0  0.82500  0.63074  0.66738  1.0000
  H   H39       1.0  0.09462  0.23094  0.37077  1.0000
  H   H40       1.0  0.90538  0.76905  0.62923  1.0000
  C   C1        1.0  0.91680  0.02121  0.34912  1.0000
  C   C2        1.0  0.08320  0.97879  0.65088  1.0000
  C   C3        1.0  0.87397  0.88141  0.35266  1.0000
  C   C4        1.0  0.12603  0.11859  0.64734  1.0000
  C   C5        1.0  0.80676  0.81499  0.23295  1.0000
  C   C6        1.0  0.19324  0.18502  0.76705  1.0000
  C   C7        1.0  0.85537  0.87660  0.12957  1.0000
  C   C8        1.0  0.14463  0.12340  0.87043  1.0000
  C   C9        1.0  0.80189  0.81701  0.01784  1.0000
  C   C10       1.0  0.19811  0.18299  0.98216  1.0000
  C   C11       1.0  0.70078  0.69228  0.00848  1.0000
  C   C12       1.0  0.29922  0.30772  0.99152  1.0000
  C   C13       1.0  0.65160  0.62981  0.11081  1.0000
  C   C14       1.0  0.34840  0.37020  0.88919  1.0000
  C   C15       1.0  0.70114  0.68884  0.22350  1.0000
  C   C16       1.0  0.29886  0.31116  0.77651  1.0000
  C   C17       1.0  0.64071  0.61843  0.33250  1.0000
  C   C18       1.0  0.35929  0.38157  0.66750  1.0000
  C   C19       1.0  0.59688  0.47934  0.31215  1.0000
  C   C20       1.0  0.40313  0.52066  0.68785  1.0000
  C   C21       1.0  0.61603  0.15960  0.55984  1.0000
  C   C22       1.0  0.38397  0.84040  0.44016  1.0000
  C   C23       1.0  0.61867  0.15217  0.68204  1.0000
  C   C24       1.0  0.38133  0.84783  0.31796  1.0000
  C   C25       1.0  0.74315  0.24849  0.75579  1.0000
  C   C26       1.0  0.25684  0.75151  0.24420  1.0000
  C   C27       1.0  0.86061  0.34728  0.70085  1.0000
  C   C28       1.0  0.13939  0.65272  0.29915  1.0000
  C   C29       1.0  0.85279  0.34560  0.57835  1.0000
  C   C30       1.0  0.14720  0.65439  0.42165  1.0000
  C   C31       1.0  0.74881  0.24793  0.88582  1.0000
  C   C32       1.0  0.25119  0.75207  0.11418  1.0000
  C   C33       1.0  0.70263  0.13786  0.94638  1.0000
  C   C34       1.0  0.29737  0.86215  0.05362  1.0000
  C   C35       1.0  0.71108  0.14287  0.06909  1.0000
  C   C36       1.0  0.28893  0.85714  0.93091  1.0000
  C   C37       1.0  0.80700  0.35545  0.07631  1.0000
  C   C38       1.0  0.19299  0.64456  0.92369  1.0000
  C   C39       1.0  0.80086  0.35872  0.95402  1.0000
  C   C40       1.0  0.19914  0.64128  0.04598  1.0000
  N   N1        1.0  0.73234  0.25329  0.50797  1.0000
  N   N2        1.0  0.26766  0.74671  0.49204  1.0000
  N   N3        1.0  0.76371  0.24964  0.13389  1.0000
  N   N4        1.0  0.23629  0.75037  0.86611  1.0000
  O   O1        1.0  0.77039  0.06441  0.33012  1.0000
  O   O2        1.0  0.22961  0.93559  0.66988  1.0000
  O   O3        1.0  0.09264  0.08681  0.36604  1.0000
  O   O4        1.0  0.90736  0.91319  0.63397  1.0000
  O   O5        1.0  0.42188  0.41496  0.28375  1.0000
  O   O6        1.0  0.57813  0.58504  0.71625  1.0000
  O   O7        1.0  0.74383  0.43636  0.32198  1.0000
  O   O8        1.0  0.25618  0.56364  0.67802  1.0000
  O   O9        1.0  0.43631  0.18189  0.27214  1.0000
  O   O10       1.0  0.56369  0.81810  0.72786  1.0000
  O   O11       1.0  0.06980  0.31493  0.37127  1.0000
  O   O12       1.0  0.93021  0.68507  0.62872  1.0000
