data_image0
_chemical_formula_structural       Zn2H40C44N4O8
_chemical_formula_sum              "Zn2 H40 C44 N4 O8"
_cell_length_a       6.96479
_cell_length_b       9.36704
_cell_length_c       16.2474
_cell_angle_alpha    90.6533
_cell_angle_beta     102.375
_cell_angle_gamma    90.6142

_space_group_name_H-M_alt    "P 1"
_space_group_IT_number       1

loop_
  _space_group_symop_operation_xyz
  'x, y, z'

loop_
  _atom_site_type_symbol
  _atom_site_label
  _atom_site_symmetry_multiplicity
  _atom_site_fract_x
  _atom_site_fract_y
  _atom_site_fract_z
  _atom_site_occupancy
  Zn  Zn1       1.0  0.88258  0.77295  0.19345  1.0000
  Zn  Zn2       1.0  0.11743  0.22704  0.80655  1.0000
  H   H1        1.0  0.25576  0.10181  0.40574  1.0000
  H   H2        1.0  0.74422  0.89820  0.59426  1.0000
  H   H3        1.0  0.03194  0.17438  0.34829  1.0000
  H   H4        1.0  0.96804  0.82562  0.65171  1.0000
  H   H5        1.0  0.55908  0.11820  0.35207  1.0000
  H   H6        1.0  0.44090  0.88181  0.64794  1.0000
  H   H7        1.0  0.74569  0.25079  0.26193  1.0000
  H   H8        1.0  0.25430  0.74921  0.73808  1.0000
  H   H9        1.0  0.57318  0.40624  0.14868  1.0000
  H   H10       1.0  0.42682  0.59375  0.85131  1.0000
  H   H11       1.0  0.02042  0.29182  0.21044  1.0000
  H   H12       1.0  0.97955  0.70817  0.78955  1.0000
  H   H13       1.0  0.28539  0.51225  0.07508  1.0000
  H   H14       1.0  0.71461  0.48775  0.92492  1.0000
  H   H15       1.0  0.10337  0.37601  0.04699  1.0000
  H   H16       1.0  0.89662  0.62399  0.95300  1.0000
  H   H17       1.0  0.64206  0.01953  0.17645  1.0000
  H   H18       1.0  0.35795  0.98047  0.82354  1.0000
  H   H19       1.0  0.30333  0.08859  0.11018  1.0000
  H   H20       1.0  0.69668  0.91142  0.88982  1.0000
  H   H21       1.0  0.26102  0.70271  0.95720  1.0000
  H   H22       1.0  0.73900  0.29729  0.04279  1.0000
  H   H23       1.0  0.60036  0.64573  0.03566  1.0000
  H   H24       1.0  0.39964  0.35427  0.96434  1.0000
  H   H25       1.0  0.03742  0.94522  0.91494  1.0000
  H   H26       1.0  0.96258  0.05478  0.08504  1.0000
  H   H27       1.0  0.95237  0.83956  0.98854  1.0000
  H   H28       1.0  0.04764  0.16044  0.01144  1.0000
  H   H29       1.0  0.48583  0.75916  0.23964  1.0000
  H   H30       1.0  0.51418  0.24085  0.76037  1.0000
  H   H31       1.0  0.33464  0.64210  0.34412  1.0000
  H   H32       1.0  0.66537  0.35795  0.65591  1.0000
  H   H33       1.0  0.88666  0.42906  0.43568  1.0000
  H   H34       1.0  0.11334  0.57094  0.56432  1.0000
  H   H35       1.0  0.02205  0.56501  0.32851  1.0000
  H   H36       1.0  0.97794  0.43495  0.67148  1.0000
  H   H37       1.0  0.59736  0.35603  0.48886  1.0000
  H   H38       1.0  0.40266  0.64399  0.51117  1.0000
  H   H39       1.0  0.36143  0.40708  0.43380  1.0000
  H   H40       1.0  0.63859  0.59295  0.56622  1.0000
  C   C1        1.0  0.09781  0.96701  0.30559  1.0000
  C   C2        1.0  0.90220  0.03299  0.69442  1.0000
  C   C3        1.0  0.16469  0.11576  0.34245  1.0000
  C   C4        1.0  0.83529  0.88424  0.65755  1.0000
  C   C5        1.0  0.27697  0.19749  0.28809  1.0000
  C   C6        1.0  0.72301  0.80250  0.71191  1.0000
  C   C7        1.0  0.48189  0.18564  0.30149  1.0000
  C   C8        1.0  0.51809  0.81437  0.69851  1.0000
  C   C9        1.0  0.58635  0.26005  0.25102  1.0000
  C   C10       1.0  0.41363  0.73994  0.74898  1.0000
  C   C11       1.0  0.48887  0.34678  0.18653  1.0000
  C   C12       1.0  0.51112  0.65319  0.81347  1.0000
  C   C13       1.0  0.28391  0.35809  0.17125  1.0000
  C   C14       1.0  0.71608  0.64190  0.82875  1.0000
  C   C15       1.0  0.18012  0.28336  0.22241  1.0000
  C   C16       1.0  0.81987  0.71663  0.77759  1.0000
  C   C17       1.0  0.17813  0.44676  0.09870  1.0000
  C   C18       1.0  0.82186  0.55323  0.90129  1.0000
  C   C19       1.0  0.02406  0.54289  0.12306  1.0000
  C   C20       1.0  0.97594  0.45711  0.87694  1.0000
  C   C21       1.0  0.55155  0.95246  0.12773  1.0000
  C   C22       1.0  0.44844  0.04754  0.87227  1.0000
  C   C23       1.0  0.36173  0.99058  0.08932  1.0000
  C   C24       1.0  0.63826  0.00941  0.91067  1.0000
  C   C25       1.0  0.25073  0.90200  0.02661  1.0000
  C   C26       1.0  0.74928  0.09799  0.97339  1.0000
  C   C27       1.0  0.34006  0.77725  0.00523  1.0000
  C   C28       1.0  0.65995  0.22276  0.99477  1.0000
  C   C29       1.0  0.52856  0.74428  0.04771  1.0000
  C   C30       1.0  0.47145  0.25572  0.95228  1.0000
  C   C31       1.0  0.04333  0.93449  0.98305  1.0000
  C   C32       1.0  0.95668  0.06551  0.01692  1.0000
  C   C33       1.0  0.57239  0.68716  0.28474  1.0000
  C   C34       1.0  0.42762  0.31286  0.71527  1.0000
  C   C35       1.0  0.48683  0.61814  0.34321  1.0000
  C   C36       1.0  0.51317  0.38189  0.65680  1.0000
  C   C37       1.0  0.59763  0.52291  0.39925  1.0000
  C   C38       1.0  0.40238  0.47711  0.60076  1.0000
  C   C39       1.0  0.79399  0.50336  0.39409  1.0000
  C   C40       1.0  0.20601  0.49664  0.60592  1.0000
  C   C41       1.0  0.87022  0.57734  0.33450  1.0000
  C   C42       1.0  0.12978  0.42264  0.66550  1.0000
  C   C43       1.0  0.50874  0.44840  0.46361  1.0000
  C   C44       1.0  0.49129  0.55163  0.53641  1.0000
  N   N1        1.0  0.63400  0.83047  0.10854  1.0000
  N   N2        1.0  0.36600  0.16953  0.89145  1.0000
  N   N3        1.0  0.76126  0.66782  0.28028  1.0000
  N   N4        1.0  0.23875  0.33217  0.71972  1.0000
  O   O1        1.0  0.16121  0.85713  0.34409  1.0000
  O   O2        1.0  0.83881  0.14287  0.65592  1.0000
  O   O3        1.0  0.97295  0.96854  0.23338  1.0000
  O   O4        1.0  0.02705  0.03145  0.76663  1.0000
  O   O5        1.0  0.84827  0.50208  0.11164  1.0000
  O   O6        1.0  0.15172  0.49791  0.88837  1.0000
  O   O7        1.0  0.08951  0.66531  0.15649  1.0000
  O   O8        1.0  0.91049  0.33469  0.84350  1.0000
