data_image0
_chemical_formula_structural       Zn2H36C40N4O10
_chemical_formula_sum              "Zn2 H36 C40 N4 O10"
_cell_length_a       8.17861
_cell_length_b       11.3651
_cell_length_c       11.291
_cell_angle_alpha    66.6851
_cell_angle_beta     85.8976
_cell_angle_gamma    68.0523

_space_group_name_H-M_alt    "P 1"
_space_group_IT_number       1

loop_
  _space_group_symop_operation_xyz
  'x, y, z'

loop_
  _atom_site_type_symbol
  _atom_site_label
  _atom_site_symmetry_multiplicity
  _atom_site_fract_x
  _atom_site_fract_y
  _atom_site_fract_z
  _atom_site_occupancy
  Zn  Zn1       1.0  0.59920  0.81569  0.74741  1.0000
  Zn  Zn2       1.0  0.40080  0.18431  0.25259  1.0000
  H   H1        1.0  0.86075  0.45328  0.96998  1.0000
  H   H2        1.0  0.13926  0.54672  0.03001  1.0000
  H   H3        1.0  0.82513  0.29548  0.02954  1.0000
  H   H4        1.0  0.17488  0.70452  0.97046  1.0000
  H   H5        1.0  0.07560  0.49352  0.80324  1.0000
  H   H6        1.0  0.92440  0.50648  0.19675  1.0000
  H   H7        1.0  0.19065  0.45078  0.60917  1.0000
  H   H8        1.0  0.80934  0.54922  0.39082  1.0000
  H   H9        1.0  0.18248  0.24868  0.57647  1.0000
  H   H10       1.0  0.81751  0.75131  0.42353  1.0000
  H   H11       1.0  0.95810  0.12516  0.93983  1.0000
  H   H12       1.0  0.04190  0.87484  0.06017  1.0000
  H   H13       1.0  0.99645  0.08158  0.64539  1.0000
  H   H14       1.0  0.00355  0.91841  0.35461  1.0000
  H   H15       1.0  0.00572  0.99127  0.81574  1.0000
  H   H16       1.0  0.99428  0.00872  0.18427  1.0000
  H   H17       1.0  0.74690  0.63826  0.60002  1.0000
  H   H18       1.0  0.25310  0.36174  0.39997  1.0000
  H   H19       1.0  0.75586  0.41771  0.59617  1.0000
  H   H20       1.0  0.24414  0.58229  0.40383  1.0000
  H   H21       1.0  0.40216  0.39537  0.90090  1.0000
  H   H22       1.0  0.59784  0.60463  0.09911  1.0000
  H   H23       1.0  0.40243  0.62131  0.88568  1.0000
  H   H24       1.0  0.59757  0.37869  0.11433  1.0000
  H   H25       1.0  0.58729  0.10050  0.54553  1.0000
  H   H26       1.0  0.41271  0.89950  0.45448  1.0000
  H   H27       1.0  0.57777  0.32327  0.54007  1.0000
  H   H28       1.0  0.42222  0.67673  0.45993  1.0000
  H   H29       1.0  0.60770  0.14740  0.95891  1.0000
  H   H30       1.0  0.39231  0.85260  0.04110  1.0000
  H   H31       1.0  0.62398  0.92875  0.94640  1.0000
  H   H32       1.0  0.37603  0.07125  0.05360  1.0000
  H   H33       1.0  0.74502  0.90881  0.51437  1.0000
  H   H34       1.0  0.25497  0.09119  0.48563  1.0000
  H   H35       1.0  0.87587  0.80497  0.65268  1.0000
  H   H36       1.0  0.12413  0.19503  0.34732  1.0000
  C   C1        1.0  0.05184  0.28737  0.11848  1.0000
  C   C2        1.0  0.94817  0.71264  0.88151  1.0000
  C   C3        1.0  0.92636  0.34052  0.99870  1.0000
  C   C4        1.0  0.07365  0.65948  0.00130  1.0000
  C   C5        1.0  0.00998  0.31132  0.88534  1.0000
  C   C6        1.0  0.99002  0.68868  0.11466  1.0000
  C   C7        1.0  0.07738  0.40206  0.79202  1.0000
  C   C8        1.0  0.92262  0.59794  0.20797  1.0000
  C   C9        1.0  0.14055  0.37851  0.68218  1.0000
  C   C10       1.0  0.85944  0.62149  0.31781  1.0000
  C   C11       1.0  0.13724  0.26494  0.66393  1.0000
  C   C12       1.0  0.86275  0.73506  0.33607  1.0000
  C   C13       1.0  0.07442  0.17079  0.75773  1.0000
  C   C14       1.0  0.92558  0.82921  0.24227  1.0000
  C   C15       1.0  0.01262  0.19512  0.86797  1.0000
  C   C16       1.0  0.98737  0.80488  0.13203  1.0000
  C   C17       1.0  0.07069  0.04724  0.73808  1.0000
  C   C18       1.0  0.92931  0.95275  0.26192  1.0000
  C   C19       1.0  0.25795  0.94908  0.73755  1.0000
  C   C20       1.0  0.74205  0.05092  0.26245  1.0000
  C   C21       1.0  0.66970  0.58209  0.66216  1.0000
  C   C22       1.0  0.33030  0.41791  0.33784  1.0000
  C   C23       1.0  0.67208  0.46040  0.66016  1.0000
  C   C24       1.0  0.32791  0.53961  0.33984  1.0000
  C   C25       1.0  0.57837  0.38809  0.74761  1.0000
  C   C26       1.0  0.42163  0.61191  0.25239  1.0000
  C   C27       1.0  0.47997  0.44579  0.83183  1.0000
  C   C28       1.0  0.52003  0.55421  0.16817  1.0000
  C   C29       1.0  0.48011  0.57086  0.82468  1.0000
  C   C30       1.0  0.51989  0.42914  0.17532  1.0000
  C   C31       1.0  0.59234  0.11439  0.63515  1.0000
  C   C32       1.0  0.40766  0.88561  0.36486  1.0000
  C   C33       1.0  0.58739  0.23870  0.63277  1.0000
  C   C34       1.0  0.41261  0.76131  0.36723  1.0000
  C   C35       1.0  0.58743  0.25562  0.74914  1.0000
  C   C36       1.0  0.41257  0.74438  0.25086  1.0000
  C   C37       1.0  0.59955  0.14259  0.86489  1.0000
  C   C38       1.0  0.40046  0.85741  0.13511  1.0000
  C   C39       1.0  0.60908  0.02039  0.85866  1.0000
  C   C40       1.0  0.39092  0.97961  0.14135  1.0000
  N   N1        1.0  0.57469  0.63762  0.74254  1.0000
  N   N2        1.0  0.42531  0.36238  0.25746  1.0000
  N   N3        1.0  0.60300  0.00641  0.74635  1.0000
  N   N4        1.0  0.39700  0.99359  0.25365  1.0000
  O   O1        1.0  0.99245  0.24445  0.22725  1.0000
  O   O2        1.0  0.00755  0.75556  0.77275  1.0000
  O   O3        1.0  0.20599  0.29354  0.09998  1.0000
  O   O4        1.0  0.79402  0.70646  0.90002  1.0000
  O   O5        1.0  0.32539  0.96012  0.62949  1.0000
  O   O6        1.0  0.67461  0.03988  0.37052  1.0000
  O   O7        1.0  0.34910  0.86288  0.84461  1.0000
  O   O8        1.0  0.65090  0.13711  0.15540  1.0000
  O   O9        1.0  0.76833  0.82456  0.59675  1.0000
  O   O10       1.0  0.23167  0.17545  0.40325  1.0000
