data_image0
_chemical_formula_structural       Sn4P4H16C20N4O12
_chemical_formula_sum              "Sn4 P4 H16 C20 N4 O12"
_cell_length_a       4.98162
_cell_length_b       10.7718
_cell_length_c       14.0651
_cell_angle_alpha    90
_cell_angle_beta     94.0683
_cell_angle_gamma    90.0001

_space_group_name_H-M_alt    "P 1"
_space_group_IT_number       1

loop_
  _space_group_symop_operation_xyz
  'x, y, z'

loop_
  _atom_site_type_symbol
  _atom_site_label
  _atom_site_symmetry_multiplicity
  _atom_site_fract_x
  _atom_site_fract_y
  _atom_site_fract_z
  _atom_site_occupancy
  Sn  Sn1       1.0  0.27076  0.14930  0.38587  1.0000
  Sn  Sn2       1.0  0.72923  0.64930  0.11413  1.0000
  Sn  Sn3       1.0  0.72923  0.85070  0.61413  1.0000
  Sn  Sn4       1.0  0.27077  0.35070  0.88587  1.0000
  P   P1        1.0  0.82628  0.15272  0.55044  1.0000
  P   P2        1.0  0.17372  0.65272  0.94956  1.0000
  P   P3        1.0  0.17372  0.84728  0.44956  1.0000
  P   P4        1.0  0.82628  0.34728  0.05044  1.0000
  H   H1        1.0  0.48371  0.21961  0.70392  1.0000
  H   H2        1.0  0.51629  0.71961  0.79608  1.0000
  H   H3        1.0  0.51629  0.78039  0.29608  1.0000
  H   H4        1.0  0.48371  0.28039  0.20392  1.0000
  H   H5        1.0  0.06806  0.58007  0.66339  1.0000
  H   H6        1.0  0.93194  0.08007  0.83661  1.0000
  H   H7        1.0  0.93194  0.41993  0.33661  1.0000
  H   H8        1.0  0.06806  0.91993  0.16339  1.0000
  H   H9        1.0  0.11204  0.39443  0.55683  1.0000
  H   H10       1.0  0.88797  0.89443  0.94317  1.0000
  H   H11       1.0  0.88796  0.60557  0.44316  1.0000
  H   H12       1.0  0.11204  0.10557  0.05684  1.0000
  H   H13       1.0  0.74093  0.56842  0.79171  1.0000
  H   H14       1.0  0.25906  0.06841  0.70829  1.0000
  H   H15       1.0  0.25907  0.43158  0.20829  1.0000
  H   H16       1.0  0.74094  0.93158  0.29171  1.0000
  C   C1        1.0  0.80110  0.29145  0.62247  1.0000
  C   C2        1.0  0.19890  0.79144  0.87753  1.0000
  C   C3        1.0  0.19890  0.70856  0.37753  1.0000
  C   C4        1.0  0.80110  0.20855  0.12247  1.0000
  C   C5        1.0  0.61738  0.29772  0.69290  1.0000
  C   C6        1.0  0.38263  0.79772  0.80710  1.0000
  C   C7        1.0  0.38262  0.70228  0.30710  1.0000
  C   C8        1.0  0.61738  0.20228  0.19290  1.0000
  C   C9        1.0  0.94137  0.49835  0.66966  1.0000
  C   C10       1.0  0.05863  0.99835  0.83034  1.0000
  C   C11       1.0  0.05863  0.50165  0.33034  1.0000
  C   C12       1.0  0.94138  0.00165  0.16966  1.0000
  C   C13       1.0  0.96440  0.39553  0.61055  1.0000
  C   C14       1.0  0.03560  0.89553  0.88945  1.0000
  C   C15       1.0  0.03560  0.60447  0.38945  1.0000
  C   C16       1.0  0.96440  0.10447  0.11055  1.0000
  C   C17       1.0  0.75703  0.49391  0.73994  1.0000
  C   C18       1.0  0.24297  0.99391  0.76006  1.0000
  C   C19       1.0  0.24297  0.50609  0.26006  1.0000
  C   C20       1.0  0.75703  0.00609  0.23994  1.0000
  N   N1        1.0  0.59556  0.39587  0.75033  1.0000
  N   N2        1.0  0.40444  0.89586  0.74967  1.0000
  N   N3        1.0  0.40444  0.60414  0.24967  1.0000
  N   N4        1.0  0.59556  0.10414  0.25033  1.0000
  O   O1        1.0  0.66430  0.17748  0.45460  1.0000
  O   O2        1.0  0.33569  0.67747  0.04540  1.0000
  O   O3        1.0  0.33569  0.82252  0.54540  1.0000
  O   O4        1.0  0.66431  0.32252  0.95460  1.0000
  O   O5        1.0  0.70844  0.04911  0.61021  1.0000
  O   O6        1.0  0.29156  0.54911  0.88979  1.0000
  O   O7        1.0  0.29156  0.95089  0.38979  1.0000
  O   O8        1.0  0.70844  0.45089  0.11021  1.0000
  O   O9        1.0  0.12633  0.13725  0.53498  1.0000
  O   O10       1.0  0.87366  0.63725  0.96502  1.0000
  O   O11       1.0  0.87366  0.86275  0.46502  1.0000
  O   O12       1.0  0.12634  0.36275  0.03498  1.0000
