data_image0
_chemical_formula_structural       Zn2H32C40N4O8
_chemical_formula_sum              "Zn2 H32 C40 N4 O8"
_cell_length_a       9.42442
_cell_length_b       10.2664
_cell_length_c       10.5218
_cell_angle_alpha    113.593
_cell_angle_beta     103.968
_cell_angle_gamma    97.5208

_space_group_name_H-M_alt    "P 1"
_space_group_IT_number       1

loop_
  _space_group_symop_operation_xyz
  'x, y, z'

loop_
  _atom_site_type_symbol
  _atom_site_label
  _atom_site_symmetry_multiplicity
  _atom_site_fract_x
  _atom_site_fract_y
  _atom_site_fract_z
  _atom_site_occupancy
  Zn  Zn1       1.0  0.62415  0.95798  0.17180  1.0000
  Zn  Zn2       1.0  0.37585  0.04202  0.82820  1.0000
  H   H1        1.0  0.78690  0.88182  0.94958  1.0000
  H   H2        1.0  0.21310  0.11819  0.05042  1.0000
  H   H3        1.0  0.79931  0.66746  0.73365  1.0000
  H   H4        1.0  0.20071  0.33254  0.26636  1.0000
  H   H5        1.0  0.43634  0.62994  0.98959  1.0000
  H   H6        1.0  0.56366  0.37006  0.01042  1.0000
  H   H7        1.0  0.43726  0.40124  0.77892  1.0000
  H   H8        1.0  0.56275  0.59876  0.22108  1.0000
  H   H9        1.0  0.59853  0.22761  0.69799  1.0000
  H   H10       1.0  0.40148  0.77239  0.30201  1.0000
  H   H11       1.0  0.61879  0.02302  0.47755  1.0000
  H   H12       1.0  0.38120  0.97697  0.52245  1.0000
  H   H13       1.0  0.65930  0.50866  0.48837  1.0000
  H   H14       1.0  0.34071  0.49135  0.51163  1.0000
  H   H15       1.0  0.82641  0.39732  0.92172  1.0000
  H   H16       1.0  0.17360  0.60269  0.07828  1.0000
  H   H17       1.0  0.06582  0.87509  0.38056  1.0000
  H   H18       1.0  0.93417  0.12491  0.61945  1.0000
  H   H19       1.0  0.95681  0.83852  0.48371  1.0000
  H   H20       1.0  0.04318  0.16147  0.51629  1.0000
  H   H21       1.0  0.86019  0.66220  0.07330  1.0000
  H   H22       1.0  0.13981  0.33780  0.92670  1.0000
  H   H23       1.0  0.93312  0.13817  0.07384  1.0000
  H   H24       1.0  0.06688  0.86183  0.92615  1.0000
  H   H25       1.0  0.89220  0.16359  0.91061  1.0000
  H   H26       1.0  0.10780  0.83641  0.08937  1.0000
  H   H27       1.0  0.99379  0.60454  0.46369  1.0000
  H   H28       1.0  0.00620  0.39545  0.53631  1.0000
  H   H29       1.0  0.95970  0.33742  0.31039  1.0000
  H   H30       1.0  0.04030  0.66257  0.68960  1.0000
  H   H31       1.0  0.66663  0.28837  0.27427  1.0000
  H   H32       1.0  0.33337  0.71163  0.72573  1.0000
  C   C1        1.0  0.70950  0.77420  0.90617  1.0000
  C   C2        1.0  0.29050  0.22580  0.09383  1.0000
  C   C3        1.0  0.71617  0.65425  0.78645  1.0000
  C   C4        1.0  0.28383  0.34575  0.21355  1.0000
  C   C5        1.0  0.51610  0.63291  0.93049  1.0000
  C   C6        1.0  0.48390  0.36709  0.06951  1.0000
  C   C7        1.0  0.51719  0.50582  0.81333  1.0000
  C   C8        1.0  0.48282  0.49418  0.18667  1.0000
  C   C9        1.0  0.61972  0.51579  0.73855  1.0000
  C   C10       1.0  0.38028  0.48422  0.26145  1.0000
  C   C11       1.0  0.61391  0.24762  0.60730  1.0000
  C   C12       1.0  0.38610  0.75238  0.39270  1.0000
  C   C13       1.0  0.62398  0.13255  0.48468  1.0000
  C   C14       1.0  0.37601  0.86745  0.51531  1.0000
  C   C15       1.0  0.64874  0.40293  0.49107  1.0000
  C   C16       1.0  0.35126  0.59707  0.50893  1.0000
  C   C17       1.0  0.69815  0.11979  0.97844  1.0000
  C   C18       1.0  0.30185  0.88021  0.02156  1.0000
  C   C19       1.0  0.86289  0.44233  0.04077  1.0000
  C   C20       1.0  0.13712  0.55767  0.95922  1.0000
  C   C21       1.0  0.62679  0.38730  0.61186  1.0000
  C   C22       1.0  0.37321  0.61271  0.38814  1.0000
  C   C23       1.0  0.95523  0.81577  0.37195  1.0000
  C   C24       1.0  0.04477  0.18422  0.62806  1.0000
  C   C25       1.0  0.88152  0.59154  0.12646  1.0000
  C   C26       1.0  0.11848  0.40846  0.87354  1.0000
  C   C27       1.0  0.89365  0.34940  0.10568  1.0000
  C   C28       1.0  0.10635  0.65060  0.89431  1.0000
  C   C29       1.0  0.86576  0.18637  0.01230  1.0000
  C   C30       1.0  0.13424  0.81363  0.98769  1.0000
  C   C31       1.0  0.95702  0.55915  0.34458  1.0000
  C   C32       1.0  0.04298  0.44084  0.65542  1.0000
  C   C33       1.0  0.93937  0.40975  0.25883  1.0000
  C   C34       1.0  0.06063  0.59024  0.74117  1.0000
  C   C35       1.0  0.92979  0.65280  0.27981  1.0000
  C   C36       1.0  0.07020  0.34720  0.72019  1.0000
  C   C37       1.0  0.65318  0.28133  0.37139  1.0000
  C   C38       1.0  0.34682  0.71867  0.62861  1.0000
  C   C39       1.0  0.83389  0.87579  0.30563  1.0000
  C   C40       1.0  0.16610  0.12422  0.69439  1.0000
  N   N1        1.0  0.61078  0.76477  0.97722  1.0000
  N   N2        1.0  0.38922  0.23523  0.02278  1.0000
  N   N3        1.0  0.64131  0.14791  0.36769  1.0000
  N   N4        1.0  0.35868  0.85209  0.63231  1.0000
  O   O1        1.0  0.86886  0.96079  0.25066  1.0000
  O   O2        1.0  0.13113  0.03922  0.74936  1.0000
  O   O3        1.0  0.69841  0.83555  0.30301  1.0000
  O   O4        1.0  0.30157  0.16443  0.69698  1.0000
  O   O5        1.0  0.66059  0.09447  0.07546  1.0000
  O   O6        1.0  0.33942  0.90553  0.92455  1.0000
  O   O7        1.0  0.60579  0.10529  0.85993  1.0000
  O   O8        1.0  0.39421  0.89472  0.14008  1.0000
