data_image0
_chemical_formula_structural       Sn6P4H16C20N4O14
_chemical_formula_sum              "Sn6 P4 H16 C20 N4 O14"
_cell_length_a       7.05707
_cell_length_b       9.93562
_cell_length_c       12.7241
_cell_angle_alpha    104.619
_cell_angle_beta     90.357
_cell_angle_gamma    109.69

_space_group_name_H-M_alt    "P 1"
_space_group_IT_number       1

loop_
  _space_group_symop_operation_xyz
  'x, y, z'

loop_
  _atom_site_type_symbol
  _atom_site_label
  _atom_site_symmetry_multiplicity
  _atom_site_fract_x
  _atom_site_fract_y
  _atom_site_fract_z
  _atom_site_occupancy
  Sn  Sn1       1.0  0.85314  0.52245  0.39126  1.0000
  Sn  Sn2       1.0  0.14687  0.47757  0.60873  1.0000
  Sn  Sn3       1.0  0.85112  0.48615  0.10862  1.0000
  Sn  Sn4       1.0  0.14888  0.51385  0.89137  1.0000
  Sn  Sn5       1.0  0.60115  0.48528  0.75556  1.0000
  Sn  Sn6       1.0  0.39883  0.51471  0.24444  1.0000
  P   P1        1.0  0.62137  0.70444  0.58148  1.0000
  P   P2        1.0  0.37864  0.29557  0.41852  1.0000
  P   P3        1.0  0.63119  0.70556  0.01472  1.0000
  P   P4        1.0  0.36881  0.29445  0.98528  1.0000
  H   H1        1.0  0.22602  0.16906  0.67878  1.0000
  H   H2        1.0  0.77398  0.83094  0.32121  1.0000
  H   H3        1.0  0.04995  0.89523  0.65345  1.0000
  H   H4        1.0  0.95005  0.10476  0.34655  1.0000
  H   H5        1.0  0.49129  0.95633  0.58131  1.0000
  H   H6        1.0  0.50871  0.04367  0.41869  1.0000
  H   H7        1.0  0.69318  0.22554  0.60192  1.0000
  H   H8        1.0  0.30682  0.77446  0.39808  1.0000
  H   H9        1.0  0.89050  0.20156  0.94336  1.0000
  H   H10       1.0  0.10950  0.79844  0.05664  1.0000
  H   H11       1.0  0.80754  0.92595  0.89269  1.0000
  H   H12       1.0  0.19246  0.07406  0.10731  1.0000
  H   H13       1.0  0.57341  0.92717  0.20527  1.0000
  H   H14       1.0  0.42658  0.07283  0.79472  1.0000
  H   H15       1.0  0.65925  0.20139  0.24201  1.0000
  H   H16       1.0  0.34074  0.79861  0.75799  1.0000
  C   C1        1.0  0.06363  0.11639  0.65531  1.0000
  C   C2        1.0  0.93637  0.88361  0.34469  1.0000
  C   C3        1.0  0.96526  0.96491  0.64173  1.0000
  C   C4        1.0  0.03474  0.03509  0.35827  1.0000
  C   C5        1.0  0.75573  0.90359  0.61297  1.0000
  C   C6        1.0  0.24428  0.09641  0.38703  1.0000
  C   C7        1.0  0.65452  0.99913  0.60170  1.0000
  C   C8        1.0  0.34549  0.00087  0.39830  1.0000
  C   C9        1.0  0.76580  0.14860  0.61428  1.0000
  C   C10       1.0  0.23420  0.85140  0.38572  1.0000
  C   C11       1.0  0.81960  0.13658  0.99925  1.0000
  C   C12       1.0  0.18040  0.86342  0.00075  1.0000
  C   C13       1.0  0.77471  0.98375  0.97130  1.0000
  C   C14       1.0  0.22529  0.01626  0.02870  1.0000
  C   C15       1.0  0.68651  0.90458  0.04579  1.0000
  C   C16       1.0  0.31349  0.09542  0.95421  1.0000
  C   C17       1.0  0.64592  0.98406  0.14538  1.0000
  C   C18       1.0  0.35407  0.01594  0.85462  1.0000
  C   C19       1.0  0.69391  0.13683  0.16653  1.0000
  C   C20       1.0  0.30608  0.86317  0.83347  1.0000
  N   N1        1.0  0.96668  0.20664  0.64038  1.0000
  N   N2        1.0  0.03332  0.79335  0.35962  1.0000
  N   N3        1.0  0.78006  0.21188  0.09473  1.0000
  N   N4        1.0  0.21994  0.78812  0.90527  1.0000
  O   O1        1.0  0.66139  0.64300  0.46215  1.0000
  O   O2        1.0  0.33861  0.35700  0.53785  1.0000
  O   O3        1.0  0.39630  0.68227  0.58707  1.0000
  O   O4        1.0  0.60372  0.31774  0.41294  1.0000
  O   O5        1.0  0.71850  0.64927  0.66254  1.0000
  O   O6        1.0  0.28150  0.35072  0.33746  1.0000
  O   O7        1.0  0.67754  0.47758  0.24310  1.0000
  O   O8        1.0  0.32247  0.52244  0.75690  1.0000
  O   O9        1.0  0.70627  0.66449  0.90182  1.0000
  O   O10       1.0  0.29373  0.33550  0.09818  1.0000
  O   O11       1.0  0.74760  0.68331  0.10715  1.0000
  O   O12       1.0  0.25239  0.31670  0.89286  1.0000
  O   O13       1.0  0.40079  0.63081  0.01654  1.0000
  O   O14       1.0  0.59920  0.36920  0.98346  1.0000
