data_image0
_chemical_formula_structural       Zn3H58C44N8O16
_chemical_formula_sum              "Zn3 H58 C44 N8 O16"
_cell_length_a       8.22271
_cell_length_b       13.0602
_cell_length_c       13.4253
_cell_angle_alpha    71.641
_cell_angle_beta     79.6346
_cell_angle_gamma    87.9933

_space_group_name_H-M_alt    "P 1"
_space_group_IT_number       1

loop_
  _space_group_symop_operation_xyz
  'x, y, z'

loop_
  _atom_site_type_symbol
  _atom_site_label
  _atom_site_symmetry_multiplicity
  _atom_site_fract_x
  _atom_site_fract_y
  _atom_site_fract_z
  _atom_site_occupancy
  Zn  Zn1       1.0  0.22235  0.36717  0.63357  1.0000
  Zn  Zn2       1.0  0.77765  0.63283  0.36643  1.0000
  Zn  Zn3       1.0  0.00000  0.00000  0.00000  1.0000
  H   H1        1.0  0.88779  0.03622  0.17150  1.0000
  H   H2        1.0  0.11221  0.96378  0.82850  1.0000
  H   H3        1.0  0.91732  0.91126  0.21470  1.0000
  H   H4        1.0  0.08268  0.08874  0.78530  1.0000
  H   H5        1.0  0.86966  0.80288  0.03393  1.0000
  H   H6        1.0  0.13033  0.19712  0.96607  1.0000
  H   H7        1.0  0.84180  0.89193  0.92337  1.0000
  H   H8        1.0  0.15821  0.10807  0.07663  1.0000
  H   H9        1.0  0.17428  0.46555  0.79564  1.0000
  H   H10       1.0  0.82571  0.53445  0.20436  1.0000
  H   H11       1.0  0.10752  0.64709  0.81848  1.0000
  H   H12       1.0  0.89247  0.35291  0.18151  1.0000
  H   H13       1.0  0.23577  0.78597  0.47696  1.0000
  H   H14       1.0  0.76424  0.21403  0.52304  1.0000
  H   H15       1.0  0.30341  0.60061  0.46766  1.0000
  H   H16       1.0  0.69659  0.39939  0.53234  1.0000
  H   H17       1.0  0.02878  0.83350  0.72941  1.0000
  H   H18       1.0  0.97122  0.16650  0.27059  1.0000
  H   H19       1.0  0.23944  0.87188  0.67974  1.0000
  H   H20       1.0  0.76056  0.12811  0.32025  1.0000
  H   H21       1.0  0.21869  0.04737  0.57917  1.0000
  H   H22       1.0  0.78131  0.95263  0.42082  1.0000
  H   H23       1.0  0.00230  0.04118  0.63024  1.0000
  H   H24       1.0  0.99771  0.95882  0.36976  1.0000
  H   H25       1.0  0.83281  0.89916  0.60566  1.0000
  H   H26       1.0  0.16720  0.10084  0.39433  1.0000
  H   H27       1.0  0.93413  0.81093  0.53691  1.0000
  H   H28       1.0  0.06588  0.18907  0.46309  1.0000
  H   H29       1.0  0.42239  0.22390  0.53570  1.0000
  H   H30       1.0  0.57762  0.77610  0.46430  1.0000
  H   H31       1.0  0.49060  0.19331  0.35733  1.0000
  H   H32       1.0  0.50941  0.80669  0.64267  1.0000
  H   H33       1.0  0.18945  0.46528  0.23628  1.0000
  H   H34       1.0  0.81055  0.53472  0.76372  1.0000
  H   H35       1.0  0.12727  0.48263  0.41706  1.0000
  H   H36       1.0  0.87273  0.51736  0.58295  1.0000
  H   H37       1.0  0.49267  0.26123  0.16797  1.0000
  H   H38       1.0  0.50733  0.73876  0.83203  1.0000
  H   H39       1.0  0.28066  0.27282  0.15838  1.0000
  H   H40       1.0  0.71933  0.72717  0.84162  1.0000
  H   H41       1.0  0.67073  0.42953  0.08344  1.0000
  H   H42       1.0  0.32927  0.57047  0.91656  1.0000
  H   H43       1.0  0.54493  0.48278  0.17778  1.0000
  H   H44       1.0  0.45506  0.51721  0.82223  1.0000
  H   H45       1.0  0.31066  0.37182  0.97881  1.0000
  H   H46       1.0  0.68933  0.62818  0.02119  1.0000
  H   H47       1.0  0.52964  0.36276  0.96392  1.0000
  H   H48       1.0  0.47036  0.63723  0.03609  1.0000
  H   H49       1.0  0.40702  0.08141  0.87559  1.0000
  H   H50       1.0  0.59298  0.91859  0.12441  1.0000
  H   H51       1.0  0.47204  0.17094  0.93606  1.0000
  H   H52       1.0  0.52796  0.82907  0.06394  1.0000
  H   H53       1.0  0.64276  0.14178  0.72362  1.0000
  H   H54       1.0  0.35724  0.85822  0.27638  1.0000
  H   H55       1.0  0.67126  0.33184  0.73430  1.0000
  H   H56       1.0  0.32874  0.66817  0.26570  1.0000
  H   H57       1.0  0.74875  0.27534  0.85395  1.0000
  H   H58       1.0  0.25126  0.72467  0.14605  1.0000
  C   C1        1.0  0.18837  0.53942  0.72771  1.0000
  C   C2        1.0  0.81162  0.46058  0.27229  1.0000
  C   C3        1.0  0.15092  0.64000  0.73922  1.0000
  C   C4        1.0  0.84907  0.36000  0.26078  1.0000
  C   C5        1.0  0.16749  0.73131  0.64886  1.0000
  C   C6        1.0  0.83251  0.26869  0.35114  1.0000
  C   C7        1.0  0.22264  0.71683  0.54937  1.0000
  C   C8        1.0  0.77736  0.28317  0.45062  1.0000
  C   C9        1.0  0.25901  0.61381  0.54412  1.0000
  C   C10       1.0  0.74099  0.38618  0.45588  1.0000
  C   C11       1.0  0.12981  0.84144  0.65963  1.0000
  C   C12       1.0  0.87020  0.15856  0.34036  1.0000
  C   C13       1.0  0.09678  0.02912  0.56505  1.0000
  C   C14       1.0  0.90322  0.97088  0.43495  1.0000
  C   C15       1.0  0.93408  0.89370  0.54055  1.0000
  C   C16       1.0  0.06592  0.10630  0.45944  1.0000
  C   C17       1.0  0.37213  0.27398  0.46699  1.0000
  C   C18       1.0  0.62788  0.72601  0.53301  1.0000
  C   C19       1.0  0.40912  0.25812  0.36787  1.0000
  C   C20       1.0  0.59089  0.74188  0.63213  1.0000
  C   C21       1.0  0.34414  0.32648  0.28200  1.0000
  C   C22       1.0  0.65585  0.67352  0.71800  1.0000
  C   C23       1.0  0.24101  0.40856  0.30075  1.0000
  C   C24       1.0  0.75899  0.59143  0.69925  1.0000
  C   C25       1.0  0.20769  0.41906  0.40199  1.0000
  C   C26       1.0  0.79231  0.58094  0.59802  1.0000
  C   C27       1.0  0.38480  0.31458  0.17228  1.0000
  C   C28       1.0  0.61519  0.68542  0.82772  1.0000
  C   C29       1.0  0.55740  0.47590  0.09736  1.0000
  C   C30       1.0  0.44259  0.52409  0.90265  1.0000
  C   C31       1.0  0.42287  0.41194  0.98368  1.0000
  C   C32       1.0  0.57713  0.58805  0.01632  1.0000
  C   C33       1.0  0.36268  0.24398  0.79812  1.0000
  C   C34       1.0  0.63732  0.75601  0.20188  1.0000
  C   C35       1.0  0.47111  0.15944  0.85849  1.0000
  C   C36       1.0  0.52889  0.84056  0.14151  1.0000
  C   C37       1.0  0.64850  0.15686  0.79894  1.0000
  C   C38       1.0  0.35150  0.84314  0.20106  1.0000
  C   C39       1.0  0.74010  0.26343  0.77731  1.0000
  C   C40       1.0  0.25990  0.73657  0.22269  1.0000
  C   C41       1.0  0.91595  0.27237  0.71671  1.0000
  C   C42       1.0  0.08405  0.72763  0.28329  1.0000
  C   C43       1.0  0.73755  0.06163  0.86548  1.0000
  C   C44       1.0  0.26245  0.93838  0.13452  1.0000
  N   N1        1.0  0.24163  0.52595  0.63157  1.0000
  N   N2        1.0  0.75837  0.47404  0.36843  1.0000
  N   N3        1.0  0.09402  0.91821  0.56220  1.0000
  N   N4        1.0  0.90598  0.08178  0.43780  1.0000
  N   N5        1.0  0.27335  0.35360  0.48391  1.0000
  N   N6        1.0  0.72666  0.64640  0.51609  1.0000
  N   N7        1.0  0.41115  0.41961  0.09078  1.0000
  N   N8        1.0  0.58885  0.58039  0.90922  1.0000
  O   O1        1.0  0.24097  0.28046  0.84727  1.0000
  O   O2        1.0  0.75903  0.71954  0.15273  1.0000
  O   O3        1.0  0.39823  0.27507  0.69467  1.0000
  O   O4        1.0  0.60177  0.72493  0.30533  1.0000
  O   O5        1.0  0.98063  0.36922  0.68191  1.0000
  O   O6        1.0  0.01938  0.63078  0.31809  1.0000
  O   O7        1.0  0.99435  0.19260  0.70209  1.0000
  O   O8        1.0  0.00565  0.80740  0.29791  1.0000
  O   O9        1.0  0.80565  0.08057  0.93686  1.0000
  O   O10       1.0  0.19436  0.91944  0.06314  1.0000
  O   O11       1.0  0.73555  0.97227  0.84713  1.0000
  O   O12       1.0  0.26446  0.02773  0.15287  1.0000
  O   O13       1.0  0.85753  0.96711  0.16571  1.0000
  O   O14       1.0  0.14247  0.03289  0.83429  1.0000
  O   O15       1.0  0.92945  0.85611  0.96769  1.0000
  O   O16       1.0  0.07055  0.14390  0.03231  1.0000
