data_image0
_chemical_formula_structural       Zn4H32C46N12Cl4O8
_chemical_formula_sum              "Zn4 H32 C46 N12 Cl4 O8"
_cell_length_a       7.13829
_cell_length_b       9.04668
_cell_length_c       19.515
_cell_angle_alpha    100.801
_cell_angle_beta     91.3093
_cell_angle_gamma    94.8964

_space_group_name_H-M_alt    "P 1"
_space_group_IT_number       1

loop_
  _space_group_symop_operation_xyz
  'x, y, z'

loop_
  _atom_site_type_symbol
  _atom_site_label
  _atom_site_symmetry_multiplicity
  _atom_site_fract_x
  _atom_site_fract_y
  _atom_site_fract_z
  _atom_site_occupancy
  Zn  Zn1       1.0  0.39493  0.19494  0.12093  1.0000
  Zn  Zn2       1.0  0.60507  0.80506  0.87907  1.0000
  Zn  Zn3       1.0  0.51376  0.31682  0.44396  1.0000
  Zn  Zn4       1.0  0.48623  0.68318  0.55603  1.0000
  H   H1        1.0  0.95895  0.71227  0.32119  1.0000
  H   H2        1.0  0.04105  0.28773  0.67882  1.0000
  H   H3        1.0  0.79023  0.04997  0.20816  1.0000
  H   H4        1.0  0.20977  0.95003  0.79184  1.0000
  H   H5        1.0  0.95001  0.62657  0.09650  1.0000
  H   H6        1.0  0.05000  0.37343  0.90350  1.0000
  H   H7        1.0  0.93660  0.45708  0.30636  1.0000
  H   H8        1.0  0.06341  0.54292  0.69364  1.0000
  H   H9        1.0  0.14643  0.21425  0.26483  1.0000
  H   H10       1.0  0.85357  0.78575  0.73517  1.0000
  H   H11       1.0  0.18539  0.49253  0.11396  1.0000
  H   H12       1.0  0.81461  0.50747  0.88604  1.0000
  H   H13       1.0  0.91419  0.85754  0.41365  1.0000
  H   H14       1.0  0.08581  0.14247  0.58635  1.0000
  H   H15       1.0  0.74972  0.07671  0.50178  1.0000
  H   H16       1.0  0.25028  0.92330  0.49822  1.0000
  H   H17       1.0  0.68280  0.15740  0.29733  1.0000
  H   H18       1.0  0.31720  0.84260  0.70267  1.0000
  H   H19       1.0  0.89207  0.13365  0.11325  1.0000
  H   H20       1.0  0.10793  0.86635  0.88675  1.0000
  H   H21       1.0  0.74499  0.12432  0.97908  1.0000
  H   H22       1.0  0.25502  0.87568  0.02092  1.0000
  H   H23       1.0  0.71385  0.68037  0.01820  1.0000
  H   H24       1.0  0.28616  0.31963  0.98180  1.0000
  H   H25       1.0  0.50091  0.63429  0.16578  1.0000
  H   H26       1.0  0.49909  0.36571  0.83422  1.0000
  H   H27       1.0  0.53585  0.49668  0.26329  1.0000
  H   H28       1.0  0.46414  0.50332  0.73671  1.0000
  H   H29       1.0  0.35083  0.87492  0.40572  1.0000
  H   H30       1.0  0.64916  0.12508  0.59428  1.0000
  H   H31       1.0  0.32337  0.01503  0.30940  1.0000
  H   H32       1.0  0.67662  0.98498  0.69060  1.0000
  C   C1        1.0  0.96361  0.65699  0.20928  1.0000
  C   C2        1.0  0.03639  0.34301  0.79072  1.0000
  C   C3        1.0  0.93308  0.75034  0.27259  1.0000
  C   C4        1.0  0.06692  0.24966  0.72741  1.0000
  C   C5        1.0  0.87068  0.89224  0.27221  1.0000
  C   C6        1.0  0.12932  0.10777  0.72779  1.0000
  C   C7        1.0  0.84374  0.94170  0.20944  1.0000
  C   C8        1.0  0.15627  0.05831  0.79056  1.0000
  C   C9        1.0  0.87071  0.84448  0.14671  1.0000
  C   C10       1.0  0.12930  0.15552  0.85329  1.0000
  C   C11       1.0  0.93082  0.70168  0.14575  1.0000
  C   C12       1.0  0.06919  0.29832  0.85425  1.0000
  C   C13       1.0  0.01840  0.42769  0.26048  1.0000
  C   C14       1.0  0.98161  0.57231  0.73952  1.0000
  C   C15       1.0  0.11939  0.30624  0.23860  1.0000
  C   C16       1.0  0.88062  0.69376  0.76140  1.0000
  C   C17       1.0  0.14145  0.44473  0.15856  1.0000
  C   C18       1.0  0.85855  0.55527  0.84144  1.0000
  C   C19       1.0  0.84391  0.95184  0.40220  1.0000
  C   C20       1.0  0.15609  0.04816  0.59780  1.0000
  C   C21       1.0  0.76174  0.06174  0.44587  1.0000
  C   C22       1.0  0.23826  0.93827  0.55413  1.0000
  C   C23       1.0  0.72936  0.11042  0.34124  1.0000
  C   C24       1.0  0.27063  0.88958  0.65876  1.0000
  C   C25       1.0  0.83607  0.03944  0.07351  1.0000
  C   C26       1.0  0.16393  0.96056  0.92649  1.0000
  C   C27       1.0  0.76661  0.03435  0.00722  1.0000
  C   C28       1.0  0.23339  0.96565  0.99278  1.0000
  C   C29       1.0  0.75146  0.80078  0.02339  1.0000
  C   C30       1.0  0.24855  0.19922  0.97661  1.0000
  C   C31       1.0  0.41133  0.83350  0.23103  1.0000
  C   C32       1.0  0.58867  0.16650  0.76897  1.0000
  C   C33       1.0  0.46726  0.68646  0.21844  1.0000
  C   C34       1.0  0.53274  0.31354  0.78156  1.0000
  C   C35       1.0  0.48731  0.60937  0.27307  1.0000
  C   C36       1.0  0.51269  0.39063  0.72694  1.0000
  C   C37       1.0  0.44511  0.67681  0.34090  1.0000
  C   C38       1.0  0.55488  0.32319  0.65910  1.0000
  C   C39       1.0  0.38289  0.82218  0.35305  1.0000
  C   C40       1.0  0.61711  0.17782  0.64695  1.0000
  C   C41       1.0  0.36812  0.90101  0.29880  1.0000
  C   C42       1.0  0.63188  0.09899  0.70120  1.0000
  C   C43       1.0  0.40467  0.91625  0.17137  1.0000
  C   C44       1.0  0.59533  0.08375  0.82863  1.0000
  C   C45       1.0  0.46933  0.59678  0.40022  1.0000
  C   C46       1.0  0.53066  0.40322  0.59978  1.0000
  N   N1        1.0  0.19490  0.31834  0.17484  1.0000
  N   N2        1.0  0.80511  0.68166  0.82516  1.0000
  N   N3        1.0  0.03334  0.51494  0.20907  1.0000
  N   N4        1.0  0.96666  0.48506  0.79093  1.0000
  N   N5        1.0  0.69124  0.15975  0.40732  1.0000
  N   N6        1.0  0.30876  0.84025  0.59268  1.0000
  N   N7        1.0  0.82412  0.98363  0.33558  1.0000
  N   N8        1.0  0.17588  0.01637  0.66442  1.0000
  N   N9        1.0  0.71482  0.88514  0.97660  1.0000
  N   N10       1.0  0.28519  0.11486  0.02340  1.0000
  N   N11       1.0  0.82786  0.89102  0.08320  1.0000
  N   N12       1.0  0.17214  0.10898  0.91680  1.0000
  Cl  Cl1       1.0  0.63430  0.36815  0.11117  1.0000
  Cl  Cl2       1.0  0.36570  0.63185  0.88883  1.0000
  Cl  Cl3       1.0  0.21480  0.22400  0.43038  1.0000
  Cl  Cl4       1.0  0.78519  0.77599  0.56961  1.0000
  O   O1        1.0  0.38657  0.84290  0.11047  1.0000
  O   O2        1.0  0.61344  0.15709  0.88953  1.0000
  O   O3        1.0  0.42372  0.06355  0.18929  1.0000
  O   O4        1.0  0.57627  0.93645  0.81071  1.0000
  O   O5        1.0  0.56300  0.48062  0.38995  1.0000
  O   O6        1.0  0.43699  0.51938  0.61004  1.0000
  O   O7        1.0  0.39383  0.64937  0.45708  1.0000
  O   O8        1.0  0.60616  0.35062  0.54291  1.0000
