data_image0
_chemical_formula_structural       Zn4H36C54N12Cl2O12
_chemical_formula_sum              "Zn4 H36 C54 N12 Cl2 O12"
_cell_length_a       8.89478
_cell_length_b       12.3559
_cell_length_c       12.5363
_cell_angle_alpha    96.5217
_cell_angle_beta     100.71
_cell_angle_gamma    100.572

_space_group_name_H-M_alt    "P 1"
_space_group_IT_number       1

loop_
  _space_group_symop_operation_xyz
  'x, y, z'

loop_
  _atom_site_type_symbol
  _atom_site_label
  _atom_site_symmetry_multiplicity
  _atom_site_fract_x
  _atom_site_fract_y
  _atom_site_fract_z
  _atom_site_occupancy
  Zn  Zn1       1.0  0.54296  0.67221  0.86732  1.0000
  Zn  Zn2       1.0  0.45704  0.32779  0.13268  1.0000
  Zn  Zn3       1.0  0.78416  0.90013  0.64969  1.0000
  Zn  Zn4       1.0  0.21584  0.09987  0.35031  1.0000
  H   H1        1.0  0.06617  0.52757  0.86717  1.0000
  H   H2        1.0  0.93383  0.47243  0.13283  1.0000
  H   H3        1.0  0.79413  0.19031  0.78721  1.0000
  H   H4        1.0  0.20587  0.80969  0.21279  1.0000
  H   H5        1.0  0.69099  0.43608  0.58001  1.0000
  H   H6        1.0  0.30901  0.56392  0.41998  1.0000
  H   H7        1.0  0.16664  0.63105  0.71708  1.0000
  H   H8        1.0  0.83336  0.36895  0.28292  1.0000
  H   H9        1.0  0.12242  0.84336  0.68211  1.0000
  H   H10       1.0  0.87758  0.15664  0.31789  1.0000
  H   H11       1.0  0.68339  0.63681  0.67162  1.0000
  H   H12       1.0  0.31661  0.36319  0.32838  1.0000
  H   H13       1.0  0.85729  0.19113  0.96593  1.0000
  H   H14       1.0  0.14271  0.80888  0.03407  1.0000
  H   H15       1.0  0.11391  0.16817  0.11635  1.0000
  H   H16       1.0  0.88609  0.83183  0.88365  1.0000
  H   H17       1.0  0.25312  0.43484  0.94754  1.0000
  H   H18       1.0  0.74688  0.56516  0.05247  1.0000
  H   H19       1.0  0.56845  0.10353  0.72680  1.0000
  H   H20       1.0  0.43155  0.89648  0.27320  1.0000
  H   H21       1.0  0.31844  0.99910  0.55754  1.0000
  H   H22       1.0  0.68156  0.00090  0.44246  1.0000
  H   H23       1.0  0.54454  0.29426  0.46345  1.0000
  H   H24       1.0  0.45546  0.70574  0.53655  1.0000
  H   H25       1.0  0.45885  0.36345  0.81567  1.0000
  H   H26       1.0  0.54115  0.63655  0.18433  1.0000
  H   H27       1.0  0.29641  0.17554  0.81884  1.0000
  H   H28       1.0  0.70360  0.82446  0.18116  1.0000
  H   H29       1.0  0.95913  0.21773  0.54264  1.0000
  H   H30       1.0  0.04087  0.78226  0.45736  1.0000
  H   H31       1.0  0.12140  0.40561  0.53809  1.0000
  H   H32       1.0  0.87860  0.59439  0.46191  1.0000
  H   H33       1.0  0.31509  0.90740  0.82606  1.0000
  H   H34       1.0  0.68491  0.09260  0.17394  1.0000
  H   H35       1.0  0.78518  0.00341  0.02315  1.0000
  H   H36       1.0  0.21482  0.99659  0.97685  1.0000
  C   C1        1.0  0.88140  0.48983  0.72092  1.0000
  C   C2        1.0  0.11861  0.51017  0.27907  1.0000
  C   C3        1.0  0.97201  0.46406  0.81429  1.0000
  C   C4        1.0  0.02800  0.53594  0.18571  1.0000
  C   C5        1.0  0.93678  0.35572  0.83761  1.0000
  C   C6        1.0  0.06322  0.64428  0.16239  1.0000
  C   C7        1.0  0.81419  0.27574  0.77077  1.0000
  C   C8        1.0  0.18581  0.72427  0.22923  1.0000
  C   C9        1.0  0.72333  0.30515  0.67975  1.0000
  C   C10       1.0  0.27668  0.69485  0.32025  1.0000
  C   C11       1.0  0.75689  0.41246  0.65296  1.0000
  C   C12       1.0  0.24311  0.58754  0.34704  1.0000
  C   C13       1.0  0.06213  0.66496  0.70269  1.0000
  C   C14       1.0  0.93787  0.33504  0.29731  1.0000
  C   C15       1.0  0.03919  0.76823  0.68392  1.0000
  C   C16       1.0  0.96082  0.23177  0.31608  1.0000
  C   C17       1.0  0.80755  0.66564  0.67546  1.0000
  C   C18       1.0  0.19245  0.33436  0.32454  1.0000
  C   C19       1.0  0.97800  0.23550  0.98310  1.0000
  C   C20       1.0  0.02199  0.76450  0.01690  1.0000
  C   C21       1.0  0.10617  0.22568  0.05750  1.0000
  C   C22       1.0  0.89383  0.77432  0.94251  1.0000
  C   C23       1.0  0.18319  0.36459  0.97290  1.0000
  C   C24       1.0  0.81681  0.63540  0.02710  1.0000
  C   C25       1.0  0.52646  0.12667  0.64786  1.0000
  C   C26       1.0  0.47354  0.87333  0.35214  1.0000
  C   C27       1.0  0.40399  0.07555  0.56415  1.0000
  C   C28       1.0  0.59601  0.92445  0.43586  1.0000
  C   C29       1.0  0.51462  0.22839  0.51170  1.0000
  C   C30       1.0  0.48538  0.77161  0.48830  1.0000
  C   C31       1.0  0.30070  0.39507  0.67539  1.0000
  C   C32       1.0  0.69931  0.60493  0.32461  1.0000
  C   C33       1.0  0.34982  0.33090  0.75543  1.0000
  C   C34       1.0  0.65018  0.66910  0.24457  1.0000
  C   C35       1.0  0.25986  0.22677  0.75760  1.0000
  C   C36       1.0  0.74014  0.77323  0.24240  1.0000
  C   C37       1.0  0.11951  0.18550  0.68037  1.0000
  C   C38       1.0  0.88049  0.81450  0.31964  1.0000
  C   C39       1.0  0.06941  0.25018  0.60130  1.0000
  C   C40       1.0  0.93059  0.74982  0.39871  1.0000
  C   C41       1.0  0.15937  0.35416  0.59869  1.0000
  C   C42       1.0  0.84063  0.64584  0.40131  1.0000
  C   C43       1.0  0.39687  0.50806  0.67382  1.0000
  C   C44       1.0  0.60313  0.49194  0.32619  1.0000
  C   C45       1.0  0.02534  0.07292  0.68416  1.0000
  C   C46       1.0  0.97466  0.92708  0.31584  1.0000
  C   C47       1.0  0.55655  0.95070  0.91439  1.0000
  C   C48       1.0  0.44345  0.04930  0.08560  1.0000
  C   C49       1.0  0.39595  0.94726  0.90243  1.0000
  C   C50       1.0  0.60405  0.05274  0.09757  1.0000
  C   C51       1.0  0.66067  0.00330  0.01230  1.0000
  C   C52       1.0  0.33932  0.99670  0.98770  1.0000
  C   C53       1.0  0.61631  0.90147  0.82064  1.0000
  C   C54       1.0  0.38368  0.09853  0.17936  1.0000
  N   N1        1.0  0.88074  0.76772  0.66803  1.0000
  N   N2        1.0  0.11927  0.23228  0.33197  1.0000
  N   N3        1.0  0.91453  0.60077  0.69723  1.0000
  N   N4        1.0  0.08547  0.39923  0.30277  1.0000
  N   N5        1.0  0.23331  0.30658  0.05030  1.0000
  N   N6        1.0  0.76668  0.69342  0.94970  1.0000
  N   N7        1.0  0.02786  0.32357  0.92958  1.0000
  N   N8        1.0  0.97214  0.67643  0.07042  1.0000
  N   N9        1.0  0.39789  0.13955  0.48023  1.0000
  N   N10       1.0  0.60212  0.86045  0.51977  1.0000
  N   N11       1.0  0.59631  0.22358  0.61439  1.0000
  N   N12       1.0  0.40369  0.77642  0.38561  1.0000
  Cl  Cl1       1.0  0.35892  0.65503  0.96550  1.0000
  Cl  Cl2       1.0  0.64108  0.34498  0.03450  1.0000
  O   O1        1.0  0.36033  0.56190  0.59764  1.0000
  O   O2        1.0  0.63967  0.43810  0.40236  1.0000
  O   O3        1.0  0.51666  0.54264  0.75562  1.0000
  O   O4        1.0  0.48334  0.45736  0.24438  1.0000
  O   O5        1.0  0.89455  0.04021  0.61157  1.0000
  O   O6        1.0  0.10545  0.95979  0.38843  1.0000
  O   O7        1.0  0.07238  0.01579  0.75494  1.0000
  O   O8        1.0  0.92762  0.98421  0.24506  1.0000
  O   O9        1.0  0.56542  0.79910  0.77845  1.0000
  O   O10       1.0  0.43458  0.20090  0.22155  1.0000
  O   O11       1.0  0.71680  0.96668  0.78432  1.0000
  O   O12       1.0  0.28319  0.03332  0.21568  1.0000
