data_image0
_chemical_formula_structural       Cu4H40C42S4N12
_chemical_formula_sum              "Cu4 H40 C42 S4 N12"
_cell_length_a       10.0755
_cell_length_b       10.3158
_cell_length_c       11.05
_cell_angle_alpha    109.151
_cell_angle_beta     102.962
_cell_angle_gamma    93.3444

_space_group_name_H-M_alt    "P 1"
_space_group_IT_number       1

loop_
  _space_group_symop_operation_xyz
  'x, y, z'

loop_
  _atom_site_type_symbol
  _atom_site_label
  _atom_site_symmetry_multiplicity
  _atom_site_fract_x
  _atom_site_fract_y
  _atom_site_fract_z
  _atom_site_occupancy
  Cu  Cu1       1.0  0.03920  0.18067  0.28661  1.0000
  Cu  Cu2       1.0  0.96080  0.81933  0.71339  1.0000
  Cu  Cu3       1.0  0.13517  0.08484  0.77561  1.0000
  Cu  Cu4       1.0  0.86483  0.91516  0.22439  1.0000
  H   H1        1.0  0.88885  0.40918  0.20255  1.0000
  H   H2        1.0  0.11115  0.59081  0.79745  1.0000
  H   H3        1.0  0.74749  0.60348  0.21838  1.0000
  H   H4        1.0  0.25251  0.39652  0.78161  1.0000
  H   H5        1.0  0.64503  0.69342  0.40698  1.0000
  H   H6        1.0  0.35497  0.30658  0.59301  1.0000
  H   H7        1.0  0.67331  0.59125  0.58474  1.0000
  H   H8        1.0  0.32669  0.40875  0.41526  1.0000
  H   H9        1.0  0.97046  0.21075  0.56606  1.0000
  H   H10       1.0  0.02954  0.78926  0.43395  1.0000
  H   H11       1.0  0.83660  0.50318  0.76107  1.0000
  H   H12       1.0  0.16340  0.49683  0.23893  1.0000
  H   H13       1.0  0.88042  0.33775  0.75461  1.0000
  H   H14       1.0  0.11958  0.66225  0.24539  1.0000
  H   H15       1.0  0.63955  0.22842  0.64452  1.0000
  H   H16       1.0  0.36045  0.77158  0.35548  1.0000
  H   H17       1.0  0.59377  0.38192  0.61938  1.0000
  H   H18       1.0  0.40623  0.61808  0.38062  1.0000
  H   H19       1.0  0.65104  0.50798  0.86533  1.0000
  H   H20       1.0  0.34896  0.49202  0.13467  1.0000
  H   H21       1.0  0.51036  0.37461  0.80450  1.0000
  H   H22       1.0  0.48963  0.62539  0.19550  1.0000
  H   H23       1.0  0.80292  0.34950  0.94605  1.0000
  H   H24       1.0  0.19708  0.65050  0.05396  1.0000
  H   H25       1.0  0.66399  0.38567  0.01831  1.0000
  H   H26       1.0  0.33601  0.61432  0.98168  1.0000
  H   H27       1.0  0.52744  0.15520  0.83475  1.0000
  H   H28       1.0  0.47256  0.84480  0.16525  1.0000
  H   H29       1.0  0.68841  0.11386  0.80756  1.0000
  H   H30       1.0  0.31159  0.88614  0.19244  1.0000
  H   H31       1.0  0.42863  0.27259  0.03026  1.0000
  H   H32       1.0  0.57137  0.72741  0.96974  1.0000
  H   H33       1.0  0.33977  0.28864  0.22603  1.0000
  H   H34       1.0  0.66023  0.71136  0.77397  1.0000
  H   H35       1.0  0.45025  0.18893  0.39182  1.0000
  H   H36       1.0  0.54975  0.81107  0.60818  1.0000
  H   H37       1.0  0.65337  0.06343  0.36469  1.0000
  H   H38       1.0  0.34664  0.93657  0.63531  1.0000
  H   H39       1.0  0.83186  0.01281  0.96505  1.0000
  H   H40       1.0  0.16814  0.98719  0.03495  1.0000
  C   C1        1.0  0.86083  0.39323  0.38603  1.0000
  C   C2        1.0  0.13917  0.60677  0.61397  1.0000
  C   C3        1.0  0.84180  0.44863  0.28469  1.0000
  C   C4        1.0  0.15820  0.55136  0.71531  1.0000
  C   C5        1.0  0.76260  0.55609  0.29443  1.0000
  C   C6        1.0  0.23740  0.44391  0.70557  1.0000
  C   C7        1.0  0.70334  0.60704  0.40169  1.0000
  C   C8        1.0  0.29666  0.39296  0.59831  1.0000
  C   C9        1.0  0.72002  0.55185  0.50257  1.0000
  C   C10       1.0  0.27998  0.44815  0.49743  1.0000
  C   C11       1.0  0.79971  0.44446  0.49276  1.0000
  C   C12       1.0  0.20030  0.55554  0.50724  1.0000
  C   C13       1.0  0.92240  0.28001  0.51964  1.0000
  C   C14       1.0  0.07760  0.71999  0.48036  1.0000
  C   C15       1.0  0.81044  0.39153  0.70274  1.0000
  C   C16       1.0  0.18957  0.60848  0.29726  1.0000
  C   C17       1.0  0.65990  0.34247  0.68905  1.0000
  C   C18       1.0  0.34010  0.65753  0.31095  1.0000
  C   C19       1.0  0.62287  0.39457  0.82219  1.0000
  C   C20       1.0  0.37714  0.60543  0.17782  1.0000
  C   C21       1.0  0.68985  0.33212  0.92454  1.0000
  C   C22       1.0  0.31015  0.66788  0.07546  1.0000
  C   C23       1.0  0.63896  0.17702  0.88101  1.0000
  C   C24       1.0  0.36104  0.82298  0.11899  1.0000
  C   C25       1.0  0.59151  0.15849  0.08953  1.0000
  C   C26       1.0  0.40849  0.84150  0.91046  1.0000
  C   C27       1.0  0.47898  0.22940  0.10335  1.0000
  C   C28       1.0  0.52102  0.77060  0.89666  1.0000
  C   C29       1.0  0.43056  0.23860  0.21402  1.0000
  C   C30       1.0  0.56944  0.76140  0.78598  1.0000
  C   C31       1.0  0.49301  0.18058  0.30773  1.0000
  C   C32       1.0  0.50699  0.81942  0.69227  1.0000
  C   C33       1.0  0.60518  0.10954  0.29334  1.0000
  C   C34       1.0  0.39482  0.89046  0.70666  1.0000
  C   C35       1.0  0.65399  0.09795  0.18182  1.0000
  C   C36       1.0  0.34601  0.90205  0.81818  1.0000
  C   C37       1.0  0.76174  0.05200  0.02552  1.0000
  C   C38       1.0  0.23826  0.94800  0.97448  1.0000
  C   C39       1.0  0.07754  0.24422  0.04347  1.0000
  C   C40       1.0  0.92246  0.75578  0.95652  1.0000
  C   C41       1.0  0.15694  0.05556  0.49623  1.0000
  C   C42       1.0  0.84306  0.94445  0.50377  1.0000
  S   S1        1.0  0.09658  0.28553  0.91684  1.0000
  S   S2        1.0  0.90342  0.71447  0.08316  1.0000
  S   S3        1.0  0.15631  0.02168  0.34025  1.0000
  S   S4        1.0  0.84369  0.97832  0.65975  1.0000
  N   N1        1.0  0.93674  0.28985  0.40603  1.0000
  N   N2        1.0  0.06326  0.71014  0.59397  1.0000
  N   N3        1.0  0.84095  0.36988  0.57534  1.0000
  N   N4        1.0  0.15905  0.63012  0.42466  1.0000
  N   N5        1.0  0.66312  0.12778  0.99229  1.0000
  N   N6        1.0  0.33688  0.87222  0.00770  1.0000
  N   N7        1.0  0.76046  0.03160  0.13830  1.0000
  N   N8        1.0  0.23955  0.96839  0.86170  1.0000
  N   N9        1.0  0.06286  0.21743  0.13659  1.0000
  N   N10       1.0  0.93714  0.78257  0.86341  1.0000
  N   N11       1.0  0.15726  0.07831  0.60850  1.0000
  N   N12       1.0  0.84274  0.92169  0.39150  1.0000
