data_image0
_chemical_formula_structural       Cu2H28C34S2N10
_chemical_formula_sum              "Cu2 H28 C34 S2 N10"
_cell_length_a       7.45318
_cell_length_b       9.70655
_cell_length_c       12.3417
_cell_angle_alpha    86.1997
_cell_angle_beta     73.6643
_cell_angle_gamma    69.0988

_space_group_name_H-M_alt    "P 1"
_space_group_IT_number       1

loop_
  _space_group_symop_operation_xyz
  'x, y, z'

loop_
  _atom_site_type_symbol
  _atom_site_label
  _atom_site_symmetry_multiplicity
  _atom_site_fract_x
  _atom_site_fract_y
  _atom_site_fract_z
  _atom_site_occupancy
  Cu  Cu1       1.0  0.65981  0.58670  0.64980  1.0000
  Cu  Cu2       1.0  0.34020  0.41330  0.35021  1.0000
  H   H1        1.0  0.88456  0.28890  0.75000  1.0000
  H   H2        1.0  0.11544  0.71111  0.25000  1.0000
  H   H3        1.0  0.94284  0.07581  0.87768  1.0000
  H   H4        1.0  0.05716  0.92420  0.12231  1.0000
  H   H5        1.0  0.67041  0.06224  0.04434  1.0000
  H   H6        1.0  0.32959  0.93776  0.95566  1.0000
  H   H7        1.0  0.33330  0.25847  0.08839  1.0000
  H   H8        1.0  0.66670  0.74153  0.91161  1.0000
  H   H9        1.0  0.21261  0.68329  0.82265  1.0000
  H   H10       1.0  0.78739  0.31671  0.17734  1.0000
  H   H11       1.0  0.97761  0.66325  0.01195  1.0000
  H   H12       1.0  0.02238  0.33675  0.98804  1.0000
  H   H13       1.0  0.06779  0.52264  0.10272  1.0000
  H   H14       1.0  0.93220  0.47736  0.89727  1.0000
  H   H15       1.0  0.58738  0.90093  0.77585  1.0000
  H   H16       1.0  0.41262  0.09907  0.22415  1.0000
  H   H17       1.0  0.47059  0.17256  0.81170  1.0000
  H   H18       1.0  0.52941  0.82744  0.18830  1.0000
  H   H19       1.0  0.24618  0.34682  0.70861  1.0000
  H   H20       1.0  0.75382  0.65318  0.29139  1.0000
  H   H21       1.0  0.12575  0.25579  0.56972  1.0000
  H   H22       1.0  0.87424  0.74421  0.43028  1.0000
  H   H23       1.0  0.35399  0.70273  0.49935  1.0000
  H   H24       1.0  0.64601  0.29727  0.50065  1.0000
  H   H25       1.0  0.15024  0.90213  0.39633  1.0000
  H   H26       1.0  0.84976  0.09786  0.60367  1.0000
  H   H27       1.0  0.11663  0.08879  0.42096  1.0000
  H   H28       1.0  0.88336  0.91121  0.57904  1.0000
  C   C1        1.0  0.57732  0.39135  0.84746  1.0000
  C   C2        1.0  0.42268  0.60865  0.15254  1.0000
  C   C3        1.0  0.76640  0.28138  0.82305  1.0000
  C   C4        1.0  0.23359  0.71862  0.17695  1.0000
  C   C5        1.0  0.79660  0.16369  0.89512  1.0000
  C   C6        1.0  0.20340  0.83631  0.10488  1.0000
  C   C7        1.0  0.64187  0.15580  0.98954  1.0000
  C   C8        1.0  0.35813  0.84420  0.01046  1.0000
  C   C9        1.0  0.45213  0.26536  0.01521  1.0000
  C   C10       1.0  0.54787  0.73465  0.98479  1.0000
  C   C11       1.0  0.42238  0.38296  0.94255  1.0000
  C   C12       1.0  0.57761  0.61704  0.05746  1.0000
  C   C13       1.0  0.31494  0.58240  0.84609  1.0000
  C   C14       1.0  0.68505  0.41761  0.15390  1.0000
  C   C15       1.0  0.05700  0.54436  0.01572  1.0000
  C   C16       1.0  0.94300  0.45564  0.98428  1.0000
  C   C17       1.0  0.41357  0.92502  0.65740  1.0000
  C   C18       1.0  0.58643  0.07498  0.34260  1.0000
  C   C19       1.0  0.48223  0.97732  0.73452  1.0000
  C   C20       1.0  0.51777  0.02269  0.26548  1.0000
  C   C21       1.0  0.41757  0.12946  0.75271  1.0000
  C   C22       1.0  0.58243  0.87054  0.24729  1.0000
  C   C23       1.0  0.29000  0.22825  0.69441  1.0000
  C   C24       1.0  0.71000  0.77175  0.30559  1.0000
  C   C25       1.0  0.22009  0.17828  0.61669  1.0000
  C   C26       1.0  0.77991  0.82172  0.38331  1.0000
  C   C27       1.0  0.28228  0.02557  0.60058  1.0000
  C   C28       1.0  0.71772  0.97443  0.39943  1.0000
  C   C29       1.0  0.35473  0.79431  0.54513  1.0000
  C   C30       1.0  0.64528  0.20569  0.45487  1.0000
  C   C31       1.0  0.10680  0.98699  0.46277  1.0000
  C   C32       1.0  0.89320  0.01300  0.53723  1.0000
  C   C33       1.0  0.08988  0.57332  0.57764  1.0000
  C   C34       1.0  0.91012  0.42668  0.42237  1.0000
  S   S1        1.0  0.92042  0.63530  0.69802  1.0000
  S   S2        1.0  0.07958  0.36469  0.30198  1.0000
  N   N1        1.0  0.50496  0.51752  0.78924  1.0000
  N   N2        1.0  0.49504  0.48248  0.21076  1.0000
  N   N3        1.0  0.25689  0.50699  0.93932  1.0000
  N   N4        1.0  0.74310  0.49301  0.06068  1.0000
  N   N5        1.0  0.45618  0.78160  0.62019  1.0000
  N   N6        1.0  0.54382  0.21840  0.37981  1.0000
  N   N7        1.0  0.24781  0.93783  0.52991  1.0000
  N   N8        1.0  0.75219  0.06217  0.47010  1.0000
  N   N9        1.0  0.20844  0.52866  0.48919  1.0000
  N   N10       1.0  0.79158  0.47134  0.51081  1.0000
