data_image0
_chemical_formula_structural       Cu4H44C44S4N12
_chemical_formula_sum              "Cu4 H44 C44 S4 N12"
_cell_length_a       5.79521
_cell_length_b       10.5434
_cell_length_c       18.3928
_cell_angle_alpha    89.9993
_cell_angle_beta     89.9997
_cell_angle_gamma    99.8464

_space_group_name_H-M_alt    "P 1"
_space_group_IT_number       1

loop_
  _space_group_symop_operation_xyz
  'x, y, z'

loop_
  _atom_site_type_symbol
  _atom_site_label
  _atom_site_symmetry_multiplicity
  _atom_site_fract_x
  _atom_site_fract_y
  _atom_site_fract_z
  _atom_site_occupancy
  Cu  Cu1       1.0  0.90492  0.53079  0.56069  1.0000
  Cu  Cu2       1.0  0.09512  0.96920  0.06069  1.0000
  Cu  Cu3       1.0  0.09513  0.46920  0.43931  1.0000
  Cu  Cu4       1.0  0.90495  0.03079  0.93931  1.0000
  H   H1        1.0  0.32202  0.35190  0.58041  1.0000
  H   H2        1.0  0.67802  0.14811  0.08039  1.0000
  H   H3        1.0  0.67801  0.64810  0.41962  1.0000
  H   H4        1.0  0.32203  0.85189  0.91959  1.0000
  H   H5        1.0  0.54471  0.20022  0.64229  1.0000
  H   H6        1.0  0.45530  0.29977  0.14227  1.0000
  H   H7        1.0  0.45528  0.79977  0.35774  1.0000
  H   H8        1.0  0.54472  0.70022  0.85771  1.0000
  H   H9        1.0  0.45368  0.13201  0.77057  1.0000
  H   H10       1.0  0.54629  0.36798  0.27054  1.0000
  H   H11       1.0  0.54626  0.86799  0.22946  1.0000
  H   H12       1.0  0.45368  0.63200  0.72943  1.0000
  H   H13       1.0  0.14967  0.21610  0.84104  1.0000
  H   H14       1.0  0.85030  0.28390  0.34102  1.0000
  H   H15       1.0  0.85027  0.78391  0.15898  1.0000
  H   H16       1.0  0.14967  0.71609  0.65896  1.0000
  H   H17       1.0  0.69493  0.52311  0.71732  1.0000
  H   H18       1.0  0.30507  0.97689  0.21732  1.0000
  H   H19       1.0  0.30506  0.47690  0.28267  1.0000
  H   H20       1.0  0.69494  0.02311  0.78267  1.0000
  H   H21       1.0  0.74839  0.29595  0.86506  1.0000
  H   H22       1.0  0.25159  0.20405  0.36506  1.0000
  H   H23       1.0  0.25157  0.70406  0.13494  1.0000
  H   H24       1.0  0.74839  0.79594  0.63494  1.0000
  H   H25       1.0  0.63241  0.43610  0.84359  1.0000
  H   H26       1.0  0.36757  0.06391  0.34359  1.0000
  H   H27       1.0  0.36755  0.56392  0.15641  1.0000
  H   H28       1.0  0.63242  0.93609  0.65641  1.0000
  H   H29       1.0  0.01232  0.57424  0.87761  1.0000
  H   H30       1.0  0.98767  0.92576  0.37760  1.0000
  H   H31       1.0  0.98767  0.42576  0.12240  1.0000
  H   H32       1.0  0.01232  0.07423  0.62239  1.0000
  H   H33       1.0  0.14165  0.43623  0.89075  1.0000
  H   H34       1.0  0.85832  0.06377  0.39074  1.0000
  H   H35       1.0  0.85830  0.56377  0.10926  1.0000
  H   H36       1.0  0.14165  0.93622  0.60925  1.0000
  H   H37       1.0  0.74507  0.51141  0.98290  1.0000
  H   H38       1.0  0.25491  0.98857  0.48288  1.0000
  H   H39       1.0  0.25490  0.48859  0.01711  1.0000
  H   H40       1.0  0.74509  0.01141  0.51710  1.0000
  H   H41       1.0  0.85257  0.36495  0.99205  1.0000
  H   H42       1.0  0.14743  0.13504  0.49204  1.0000
  H   H43       1.0  0.14740  0.63505  0.00796  1.0000
  H   H44       1.0  0.85257  0.86495  0.50795  1.0000
  C   C1        1.0  0.10908  0.36790  0.67582  1.0000
  C   C2        1.0  0.89095  0.13211  0.17581  1.0000
  C   C3        1.0  0.89094  0.63211  0.32420  1.0000
  C   C4        1.0  0.10907  0.86789  0.82418  1.0000
  C   C5        1.0  0.28350  0.32153  0.63631  1.0000
  C   C6        1.0  0.71651  0.17847  0.13629  1.0000
  C   C7        1.0  0.71651  0.67847  0.36372  1.0000
  C   C8        1.0  0.28351  0.82153  0.86369  1.0000
  C   C9        1.0  0.40616  0.23676  0.67162  1.0000
  C   C10       1.0  0.59384  0.26324  0.17159  1.0000
  C   C11       1.0  0.59383  0.76324  0.32841  1.0000
  C   C12       1.0  0.40617  0.73676  0.82838  1.0000
  C   C13       1.0  0.35652  0.19897  0.74427  1.0000
  C   C14       1.0  0.64346  0.30103  0.24425  1.0000
  C   C15       1.0  0.64345  0.80103  0.25576  1.0000
  C   C16       1.0  0.35654  0.69896  0.75574  1.0000
  C   C17       1.0  0.18544  0.24537  0.78474  1.0000
  C   C18       1.0  0.81455  0.25464  0.28473  1.0000
  C   C19       1.0  0.81453  0.75464  0.21528  1.0000
  C   C20       1.0  0.18544  0.74535  0.71526  1.0000
  C   C21       1.0  0.06337  0.33035  0.74921  1.0000
  C   C22       1.0  0.93663  0.16966  0.24919  1.0000
  C   C23       1.0  0.93662  0.66966  0.25081  1.0000
  C   C24       1.0  0.06338  0.83034  0.75079  1.0000
  C   C25       1.0  0.83124  0.46460  0.71461  1.0000
  C   C26       1.0  0.16876  0.03540  0.21461  1.0000
  C   C27       1.0  0.16875  0.53541  0.28539  1.0000
  C   C28       1.0  0.83125  0.96460  0.78539  1.0000
  C   C29       1.0  0.79512  0.39579  0.84591  1.0000
  C   C30       1.0  0.20487  0.10423  0.34588  1.0000
  C   C31       1.0  0.20485  0.60423  0.15412  1.0000
  C   C32       1.0  0.79512  0.89579  0.65409  1.0000
  C   C33       1.0  0.97597  0.47348  0.89597  1.0000
  C   C34       1.0  0.02402  0.02653  0.39596  1.0000
  C   C35       1.0  0.02400  0.52653  0.10404  1.0000
  C   C36       1.0  0.97597  0.97347  0.60403  1.0000
  C   C37       1.0  0.90206  0.46643  0.97544  1.0000
  C   C38       1.0  0.09790  0.03355  0.47544  1.0000
  C   C39       1.0  0.09789  0.53356  0.02456  1.0000
  C   C40       1.0  0.90207  0.96643  0.52456  1.0000
  C   C41       1.0  0.55314  0.36503  0.45961  1.0000
  C   C42       1.0  0.44694  0.13497  0.95961  1.0000
  C   C43       1.0  0.44692  0.63498  0.54039  1.0000
  C   C44       1.0  0.55312  0.86503  0.04039  1.0000
  S   S1        1.0  0.79803  0.32668  0.49055  1.0000
  S   S2        1.0  0.20205  0.17332  0.99055  1.0000
  S   S3        1.0  0.20202  0.67332  0.50945  1.0000
  S   S4        1.0  0.79802  0.82668  0.00945  1.0000
  N   N1        1.0  0.95909  0.45186  0.65599  1.0000
  N   N2        1.0  0.04092  0.04815  0.15599  1.0000
  N   N3        1.0  0.04093  0.54815  0.34401  1.0000
  N   N4        1.0  0.95911  0.95185  0.84401  1.0000
  N   N5        1.0  0.88526  0.39394  0.77196  1.0000
  N   N6        1.0  0.11472  0.10607  0.27195  1.0000
  N   N7        1.0  0.11471  0.60607  0.22805  1.0000
  N   N8        1.0  0.88526  0.89393  0.72804  1.0000
  N   N9        1.0  0.37341  0.39180  0.43946  1.0000
  N   N10       1.0  0.62669  0.10820  0.93946  1.0000
  N   N11       1.0  0.62667  0.60821  0.56054  1.0000
  N   N12       1.0  0.37340  0.89179  0.06054  1.0000
