data_image0
_chemical_formula_structural       Cu4H24C34S4N12
_chemical_formula_sum              "Cu4 H24 C34 S4 N12"
_cell_length_a       5.59275
_cell_length_b       9.43005
_cell_length_c       17.6834
_cell_angle_alpha    75.3254
_cell_angle_beta     80.8381
_cell_angle_gamma    72.7114

_space_group_name_H-M_alt    "P 1"
_space_group_IT_number       1

loop_
  _space_group_symop_operation_xyz
  'x, y, z'

loop_
  _atom_site_type_symbol
  _atom_site_label
  _atom_site_symmetry_multiplicity
  _atom_site_fract_x
  _atom_site_fract_y
  _atom_site_fract_z
  _atom_site_occupancy
  Cu  Cu1       1.0  0.65975  0.91669  0.93571  1.0000
  Cu  Cu2       1.0  0.51176  0.58286  0.56404  1.0000
  Cu  Cu3       1.0  0.34024  0.08331  0.06429  1.0000
  Cu  Cu4       1.0  0.48826  0.41714  0.43597  1.0000
  H   H1        1.0  0.91183  0.83201  0.77100  1.0000
  H   H2        1.0  0.51500  0.66769  0.72850  1.0000
  H   H3        1.0  0.08817  0.16799  0.22901  1.0000
  H   H4        1.0  0.48499  0.33231  0.27151  1.0000
  H   H5        1.0  0.92395  0.80931  0.63235  1.0000
  H   H6        1.0  0.36647  0.69061  0.86722  1.0000
  H   H7        1.0  0.07606  0.19069  0.36766  1.0000
  H   H8        1.0  0.63351  0.30939  0.13278  1.0000
  H   H9        1.0  0.54796  0.92296  0.55901  1.0000
  H   H10       1.0  0.03081  0.57719  0.94101  1.0000
  H   H11       1.0  0.45206  0.07703  0.44099  1.0000
  H   H12       1.0  0.96917  0.42281  0.05899  1.0000
  H   H13       1.0  0.14924  0.07472  0.61768  1.0000
  H   H14       1.0  0.84201  0.42534  0.88280  1.0000
  H   H15       1.0  0.85077  0.92528  0.38232  1.0000
  H   H16       1.0  0.15798  0.57466  0.11720  1.0000
  H   H17       1.0  0.12774  0.13869  0.89550  1.0000
  H   H18       1.0  0.16077  0.36125  0.60478  1.0000
  H   H19       1.0  0.87225  0.86131  0.10450  1.0000
  H   H20       1.0  0.83925  0.63875  0.39522  1.0000
  H   H21       1.0  0.77726  0.26666  0.79918  1.0000
  H   H22       1.0  0.84244  0.23333  0.70158  1.0000
  H   H23       1.0  0.22274  0.73335  0.20081  1.0000
  H   H24       1.0  0.15757  0.76667  0.29842  1.0000
  C   C1        1.0  0.52446  0.96948  0.77084  1.0000
  C   C2        1.0  0.26461  0.53045  0.72910  1.0000
  C   C3        1.0  0.47554  0.03052  0.22916  1.0000
  C   C4        1.0  0.73539  0.46955  0.27090  1.0000
  C   C5        1.0  0.74824  0.88552  0.73757  1.0000
  C   C6        1.0  0.37158  0.61434  0.76213  1.0000
  C   C7        1.0  0.25176  0.11448  0.26244  1.0000
  C   C8        1.0  0.62842  0.38566  0.23788  1.0000
  C   C9        1.0  0.75253  0.87318  0.66045  1.0000
  C   C10       1.0  0.28673  0.62674  0.83927  1.0000
  C   C11       1.0  0.24748  0.12681  0.33956  1.0000
  C   C12       1.0  0.71327  0.37326  0.16073  1.0000
  C   C13       1.0  0.53867  0.94001  0.61814  1.0000
  C   C14       1.0  0.09740  0.56006  0.88184  1.0000
  C   C15       1.0  0.46134  0.05999  0.38186  1.0000
  C   C16       1.0  0.90259  0.43993  0.11816  1.0000
  C   C17       1.0  0.31485  0.02498  0.65048  1.0000
  C   C18       1.0  0.99057  0.47507  0.84977  1.0000
  C   C19       1.0  0.68516  0.97502  0.34952  1.0000
  C   C20       1.0  0.00942  0.52492  0.15023  1.0000
  C   C21       1.0  0.31336  0.04006  0.72707  1.0000
  C   C22       1.0  0.08032  0.45994  0.77313  1.0000
  C   C23       1.0  0.68664  0.95994  0.27293  1.0000
  C   C24       1.0  0.91968  0.54006  0.22687  1.0000
  C   C25       1.0  0.23041  0.09108  0.84623  1.0000
  C   C26       1.0  0.16689  0.40890  0.65396  1.0000
  C   C27       1.0  0.76957  0.90892  0.15377  1.0000
  C   C28       1.0  0.83313  0.59110  0.34603  1.0000
  C   C29       1.0  0.92290  0.24997  0.75030  1.0000
  C   C30       1.0  0.07710  0.75003  0.24970  1.0000
  C   C31       1.0  0.17763  0.81934  0.99417  1.0000
  C   C32       1.0  0.99077  0.68045  0.50567  1.0000
  C   C33       1.0  0.82235  0.18066  0.00583  1.0000
  C   C34       1.0  0.00924  0.31955  0.49433  1.0000
  S   S1        1.0  0.44381  0.76997  0.03311  1.0000
  S   S2        1.0  0.24682  0.72971  0.46663  1.0000
  S   S3        1.0  0.55618  0.23002  0.96689  1.0000
  S   S4        1.0  0.75320  0.27029  0.53337  1.0000
  N   N1        1.0  0.46446  0.00287  0.84557  1.0000
  N   N2        1.0  0.31225  0.49703  0.65436  1.0000
  N   N3        1.0  0.53553  0.99713  0.15443  1.0000
  N   N4        1.0  0.68776  0.50297  0.34564  1.0000
  N   N5        1.0  0.12795  0.11681  0.77680  1.0000
  N   N6        1.0  0.02102  0.38323  0.72356  1.0000
  N   N7        1.0  0.87204  0.88319  0.22320  1.0000
  N   N8        1.0  0.97900  0.61678  0.27644  1.0000
  N   N9        1.0  0.98457  0.85716  0.96560  1.0000
  N   N10       1.0  0.80675  0.64277  0.53429  1.0000
  N   N11       1.0  0.01541  0.14284  0.03440  1.0000
  N   N12       1.0  0.19328  0.35723  0.46571  1.0000
