data_image0
_chemical_formula_structural       Cu2H32C36S2N10
_chemical_formula_sum              "Cu2 H32 C36 S2 N10"
_cell_length_a       9.59283
_cell_length_b       9.13265
_cell_length_c       12.2165
_cell_angle_alpha    101.299
_cell_angle_beta     98.1257
_cell_angle_gamma    118.773

_space_group_name_H-M_alt    "P 1"
_space_group_IT_number       1

loop_
  _space_group_symop_operation_xyz
  'x, y, z'

loop_
  _atom_site_type_symbol
  _atom_site_label
  _atom_site_symmetry_multiplicity
  _atom_site_fract_x
  _atom_site_fract_y
  _atom_site_fract_z
  _atom_site_occupancy
  Cu  Cu1       1.0  0.38738  0.03993  0.31231  1.0000
  Cu  Cu2       1.0  0.61264  0.96006  0.68770  1.0000
  H   H1        1.0  0.76174  0.26676  0.33015  1.0000
  H   H2        1.0  0.23826  0.73326  0.66985  1.0000
  H   H3        1.0  0.02146  0.44255  0.27329  1.0000
  H   H4        1.0  0.97855  0.55747  0.72671  1.0000
  H   H5        1.0  0.00617  0.49034  0.08282  1.0000
  H   H6        1.0  0.99383  0.50966  0.91718  1.0000
  H   H7        1.0  0.73424  0.36702  0.93750  1.0000
  H   H8        1.0  0.26576  0.63299  0.06250  1.0000
  H   H9        1.0  0.21254  0.99697  0.04765  1.0000
  H   H10       1.0  0.78747  0.00303  0.95235  1.0000
  H   H11       1.0  0.22929  0.02681  0.85273  1.0000
  H   H12       1.0  0.77071  0.97320  0.14727  1.0000
  H   H13       1.0  0.42314  0.10386  0.82238  1.0000
  H   H14       1.0  0.57687  0.89615  0.17762  1.0000
  H   H15       1.0  0.49291  0.41396  0.89229  1.0000
  H   H16       1.0  0.50708  0.58605  0.10772  1.0000
  H   H17       1.0  0.30091  0.34144  0.92579  1.0000
  H   H18       1.0  0.69908  0.65854  0.07421  1.0000
  H   H19       1.0  0.29247  0.40335  0.73534  1.0000
  H   H20       1.0  0.70753  0.59665  0.26466  1.0000
  H   H21       1.0  0.35032  0.25145  0.68336  1.0000
  H   H22       1.0  0.64967  0.74855  0.31664  1.0000
  H   H23       1.0  0.24424  0.95698  0.57131  1.0000
  H   H24       1.0  0.75576  0.04302  0.42868  1.0000
  H   H25       1.0  0.05507  0.64452  0.45549  1.0000
  H   H26       1.0  0.94493  0.35548  0.54450  1.0000
  H   H27       1.0  0.75815  0.48397  0.45209  1.0000
  H   H28       1.0  0.24185  0.51602  0.54791  1.0000
  H   H29       1.0  0.63781  0.63750  0.55763  1.0000
  H   H30       1.0  0.36220  0.36249  0.44237  1.0000
  H   H31       1.0  0.00182  0.27106  0.78621  1.0000
  H   H32       1.0  0.99818  0.72893  0.21378  1.0000
  C   C1        1.0  0.60544  0.22149  0.16603  1.0000
  C   C2        1.0  0.39456  0.77851  0.83397  1.0000
  C   C3        1.0  0.75739  0.29098  0.24640  1.0000
  C   C4        1.0  0.24261  0.70904  0.75360  1.0000
  C   C5        1.0  0.89995  0.38645  0.21370  1.0000
  C   C6        1.0  0.10005  0.61358  0.78631  1.0000
  C   C7        1.0  0.89076  0.41368  0.10381  1.0000
  C   C8        1.0  0.10925  0.58634  0.89619  1.0000
  C   C9        1.0  0.74025  0.34640  0.02260  1.0000
  C   C10       1.0  0.25975  0.65361  0.97740  1.0000
  C   C11       1.0  0.59747  0.24861  0.05552  1.0000
  C   C12       1.0  0.40253  0.75139  0.94447  1.0000
  C   C13       1.0  0.34643  0.08001  0.07215  1.0000
  C   C14       1.0  0.65357  0.91999  0.92786  1.0000
  C   C15       1.0  0.35727  0.13848  0.87919  1.0000
  C   C16       1.0  0.64273  0.86152  0.12081  1.0000
  C   C17       1.0  0.36366  0.30469  0.86701  1.0000
  C   C18       1.0  0.63633  0.69532  0.13299  1.0000
  C   C19       1.0  0.28479  0.28174  0.74215  1.0000
  C   C20       1.0  0.71521  0.71827  0.25785  1.0000
  C   C21       1.0  0.04512  0.97056  0.63116  1.0000
  C   C22       1.0  0.95488  0.02944  0.36884  1.0000
  C   C23       1.0  0.11401  0.88862  0.56995  1.0000
  C   C24       1.0  0.88599  0.11138  0.43005  1.0000
  C   C25       1.0  0.00649  0.71283  0.50527  1.0000
  C   C26       1.0  0.99352  0.28716  0.49473  1.0000
  C   C27       1.0  0.83755  0.62209  0.50216  1.0000
  C   C28       1.0  0.16245  0.37790  0.49783  1.0000
  C   C29       1.0  0.76886  0.70518  0.56158  1.0000
  C   C30       1.0  0.23114  0.29481  0.43842  1.0000
  C   C31       1.0  0.87452  0.88195  0.62618  1.0000
  C   C32       1.0  0.12547  0.11804  0.37382  1.0000
  C   C33       1.0  0.98443  0.14974  0.73398  1.0000
  C   C34       1.0  0.01556  0.85025  0.26602  1.0000
  C   C35       1.0  0.41122  0.78911  0.43401  1.0000
  C   C36       1.0  0.58880  0.21090  0.56602  1.0000
  S   S1        1.0  0.34291  0.75552  0.29513  1.0000
  S   S2        1.0  0.65710  0.24447  0.70487  1.0000
  N   N1        1.0  0.44590  0.11539  0.17357  1.0000
  N   N2        1.0  0.55410  0.88461  0.82643  1.0000
  N   N3        1.0  0.43019  0.15630  0.99773  1.0000
  N   N4        1.0  0.56981  0.84370  0.00227  1.0000
  N   N5        1.0  0.11151  0.14086  0.70156  1.0000
  N   N6        1.0  0.88849  0.85914  0.29844  1.0000
  N   N7        1.0  0.84089  0.99874  0.69083  1.0000
  N   N8        1.0  0.15911  0.00125  0.30917  1.0000
  N   N9        1.0  0.46295  0.81823  0.53483  1.0000
  N   N10       1.0  0.53704  0.18176  0.46516  1.0000
