data_image0
_chemical_formula_structural       Cu4H24C24O8
_chemical_formula_sum              "Cu4 H24 C24 O8"
_cell_length_a       6.5819
_cell_length_b       9.79372
_cell_length_c       10.8471
_cell_angle_alpha    116.814
_cell_angle_beta     103.744
_cell_angle_gamma    90.0009

_space_group_name_H-M_alt    "P 1"
_space_group_IT_number       1

loop_
  _space_group_symop_operation_xyz
  'x, y, z'

loop_
  _atom_site_type_symbol
  _atom_site_label
  _atom_site_symmetry_multiplicity
  _atom_site_fract_x
  _atom_site_fract_y
  _atom_site_fract_z
  _atom_site_occupancy
  Cu  Cu1       1.0  0.74999  0.77920  0.99997  1.0000
  Cu  Cu2       1.0  0.25000  0.22079  0.00002  1.0000
  Cu  Cu3       1.0  0.00002  0.99999  0.00001  1.0000
  Cu  Cu4       1.0  0.49999  0.00000  0.00000  1.0000
  H   H1        1.0  0.60365  0.72432  0.61116  1.0000
  H   H2        1.0  0.89655  0.11265  0.38848  1.0000
  H   H3        1.0  0.39636  0.27568  0.38884  1.0000
  H   H4        1.0  0.10345  0.88735  0.61153  1.0000
  H   H5        1.0  0.66556  0.76212  0.47885  1.0000
  H   H6        1.0  0.83487  0.28281  0.52083  1.0000
  H   H7        1.0  0.33446  0.23788  0.52115  1.0000
  H   H8        1.0  0.16514  0.71720  0.47917  1.0000
  H   H9        1.0  0.49158  0.59700  0.42660  1.0000
  H   H10       1.0  0.00863  0.16980  0.57304  1.0000
  H   H11       1.0  0.50843  0.40301  0.57341  1.0000
  H   H12       1.0  0.99136  0.83020  0.42696  1.0000
  H   H13       1.0  0.44385  0.56984  0.78105  1.0000
  H   H14       1.0  0.05606  0.78879  0.21920  1.0000
  H   H15       1.0  0.55616  0.43015  0.21894  1.0000
  H   H16       1.0  0.94394  0.21121  0.78080  1.0000
  H   H17       1.0  0.22987  0.60876  0.86101  1.0000
  H   H18       1.0  0.26990  0.74766  0.13918  1.0000
  H   H19       1.0  0.77014  0.39123  0.13899  1.0000
  H   H20       1.0  0.73009  0.25234  0.86083  1.0000
  H   H21       1.0  0.28082  0.41620  0.76466  1.0000
  H   H22       1.0  0.21916  0.65165  0.23574  1.0000
  H   H23       1.0  0.71918  0.58379  0.23534  1.0000
  H   H24       1.0  0.78084  0.34837  0.76427  1.0000
  C   C1        1.0  0.92509  0.70720  0.76948  1.0000
  C   C2        1.0  0.57495  0.93743  0.23051  1.0000
  C   C3        1.0  0.07494  0.29280  0.23054  1.0000
  C   C4        1.0  0.42504  0.06258  0.76949  1.0000
  C   C5        1.0  0.96000  0.59527  0.62890  1.0000
  C   C6        1.0  0.54010  0.96618  0.37110  1.0000
  C   C7        1.0  0.04001  0.40473  0.37110  1.0000
  C   C8        1.0  0.45988  0.03383  0.62889  1.0000
  C   C9        1.0  0.81961  0.57916  0.50211  1.0000
  C   C10       1.0  0.68051  0.07682  0.49774  1.0000
  C   C11       1.0  0.18039  0.42084  0.49788  1.0000
  C   C12       1.0  0.31947  0.92317  0.50226  1.0000
  C   C13       1.0  0.63573  0.66970  0.50578  1.0000
  C   C14       1.0  0.86450  0.16343  0.49389  1.0000
  C   C15       1.0  0.36428  0.33031  0.49422  1.0000
  C   C16       1.0  0.13549  0.83657  0.50611  1.0000
  C   C17       1.0  0.13909  0.51761  0.62975  1.0000
  C   C18       1.0  0.36092  0.88789  0.37037  1.0000
  C   C19       1.0  0.86091  0.48237  0.37024  1.0000
  C   C20       1.0  0.63906  0.11212  0.62963  1.0000
  C   C21       1.0  0.27976  0.52960  0.76650  1.0000
  C   C22       1.0  0.22017  0.76318  0.23381  1.0000
  C   C23       1.0  0.72025  0.47039  0.23350  1.0000
  C   C24       1.0  0.77983  0.23683  0.76620  1.0000
  O   O1        1.0  0.80659  0.66014  0.82398  1.0000
  O   O2        1.0  0.69333  0.83581  0.17597  1.0000
  O   O3        1.0  0.19339  0.33986  0.17602  1.0000
  O   O4        1.0  0.30664  0.16418  0.82402  1.0000
  O   O5        1.0  0.02036  0.84355  0.82609  1.0000
  O   O6        1.0  0.47998  0.01735  0.17398  1.0000
  O   O7        1.0  0.97966  0.15645  0.17393  1.0000
  O   O8        1.0  0.52001  0.98266  0.82601  1.0000
