data_image0
_chemical_formula_structural       Rb4Sn4H24C48O24
_chemical_formula_sum              "Rb4 Sn4 H24 C48 O24"
_cell_length_a       12.1687
_cell_length_b       12.1231
_cell_length_c       12.1686
_cell_angle_alpha    109.395
_cell_angle_beta     109.543
_cell_angle_gamma    109.396

_space_group_name_H-M_alt    "P 1"
_space_group_IT_number       1

loop_
  _space_group_symop_operation_xyz
  'x, y, z'

loop_
  _atom_site_type_symbol
  _atom_site_label
  _atom_site_symmetry_multiplicity
  _atom_site_fract_x
  _atom_site_fract_y
  _atom_site_fract_z
  _atom_site_occupancy
  Rb  Rb1       1.0  0.55982  0.99989  0.00011  1.0000
  Rb  Rb2       1.0  0.44027  0.43999  0.44009  1.0000
  Rb  Rb3       1.0  0.99985  0.99971  0.55964  1.0000
  Rb  Rb4       1.0  0.99994  0.55961  1.00000  1.0000
  Sn  Sn1       1.0  0.21509  0.99988  0.99911  1.0000
  Sn  Sn2       1.0  0.78429  0.78459  0.78520  1.0000
  Sn  Sn3       1.0  0.00088  0.00060  0.21597  1.0000
  Sn  Sn4       1.0  0.99995  0.21534  0.00002  1.0000
  H   H1        1.0  0.56540  0.27193  0.96130  1.0000
  H   H2        1.0  0.43350  0.39488  0.70627  1.0000
  H   H3        1.0  0.69069  0.72869  0.29434  1.0000
  H   H4        1.0  0.31025  0.60417  0.03796  1.0000
  H   H5        1.0  0.60359  0.03797  0.30918  1.0000
  H   H6        1.0  0.72770  0.29385  0.68965  1.0000
  H   H7        1.0  0.39593  0.70661  0.43463  1.0000
  H   H8        1.0  0.27285  0.96142  0.56657  1.0000
  H   H9        1.0  0.29372  0.68852  0.72705  1.0000
  H   H10       1.0  0.03863  0.31064  0.60409  1.0000
  H   H11       1.0  0.96197  0.56614  0.27227  1.0000
  H   H12       1.0  0.70560  0.43434  0.39626  1.0000
  H   H13       1.0  0.51369  0.52330  0.26182  1.0000
  H   H14       1.0  0.48699  0.74866  0.00963  1.0000
  H   H15       1.0  0.73988  0.47744  0.99127  1.0000
  H   H16       1.0  0.25971  0.25036  0.73763  1.0000
  H   H17       1.0  0.25142  0.73758  0.26010  1.0000
  H   H18       1.0  0.47785  0.99059  0.74024  1.0000
  H   H19       1.0  0.74803  0.00967  0.48625  1.0000
  H   H20       1.0  0.52260  0.26168  0.51301  1.0000
  H   H21       1.0  0.99043  0.73914  0.47743  1.0000
  H   H22       1.0  0.73818  0.26147  0.25190  1.0000
  H   H23       1.0  0.26233  0.51273  0.52215  1.0000
  H   H24       1.0  0.00882  0.48610  0.74854  1.0000
  C   C1        1.0  0.53312  0.38503  0.11423  1.0000
  C   C2        1.0  0.46648  0.58088  0.85156  1.0000
  C   C3        1.0  0.73057  0.61553  0.14906  1.0000
  C   C4        1.0  0.26961  0.41828  0.88502  1.0000
  C   C5        1.0  0.41845  0.88506  0.26940  1.0000
  C   C6        1.0  0.61542  0.14864  0.73042  1.0000
  C   C7        1.0  0.58113  0.85185  0.46689  1.0000
  C   C8        1.0  0.38511  0.11439  0.53354  1.0000
  C   C9        1.0  0.14839  0.72932  0.61490  1.0000
  C   C10       1.0  0.88577  0.27081  0.41888  1.0000
  C   C11       1.0  0.11500  0.53325  0.38455  1.0000
  C   C12       1.0  0.85093  0.46649  0.58151  1.0000
  C   C13       1.0  0.42777  0.26292  0.09710  1.0000
  C   C14       1.0  0.57143  0.66892  0.83438  1.0000
  C   C15       1.0  0.83567  0.73772  0.16604  1.0000
  C   C16       1.0  0.16439  0.33051  0.90213  1.0000
  C   C17       1.0  0.33029  0.90204  0.16419  1.0000
  C   C18       1.0  0.73772  0.16605  0.83562  1.0000
  C   C19       1.0  0.66934  0.83505  0.57239  1.0000
  C   C20       1.0  0.26297  0.09746  0.42854  1.0000
  C   C21       1.0  0.16557  0.83453  0.73709  1.0000
  C   C22       1.0  0.90292  0.16584  0.33069  1.0000
  C   C23       1.0  0.09794  0.42835  0.26225  1.0000
  C   C24       1.0  0.83402  0.57172  0.66969  1.0000
  C   C25       1.0  0.59616  0.37209  0.03688  1.0000
  C   C26       1.0  0.40324  0.44005  0.77584  1.0000
  C   C27       1.0  0.66580  0.62847  0.22466  1.0000
  C   C28       1.0  0.33487  0.55906  0.96278  1.0000
  C   C29       1.0  0.55884  0.96270  0.33416  1.0000
  C   C30       1.0  0.62792  0.22420  0.66516  1.0000
  C   C31       1.0  0.44076  0.77595  0.40381  1.0000
  C   C32       1.0  0.37265  0.03689  0.59687  1.0000
  C   C33       1.0  0.22413  0.66422  0.62732  1.0000
  C   C34       1.0  0.96310  0.33524  0.55924  1.0000
  C   C35       1.0  0.03724  0.59630  0.37208  1.0000
  C   C36       1.0  0.77530  0.40385  0.44112  1.0000
  C   C37       1.0  0.56774  0.51393  0.20695  1.0000
  C   C38       1.0  0.43266  0.63942  0.94617  1.0000
  C   C39       1.0  0.69395  0.48666  0.05431  1.0000
  C   C40       1.0  0.30579  0.35967  0.79280  1.0000
  C   C41       1.0  0.36039  0.79279  0.30604  1.0000
  C   C42       1.0  0.48705  0.05393  0.69429  1.0000
  C   C43       1.0  0.63916  0.94611  0.43218  1.0000
  C   C44       1.0  0.51354  0.20680  0.56739  1.0000
  C   C45       1.0  0.05386  0.69332  0.48649  1.0000
  C   C46       1.0  0.79304  0.30700  0.36083  1.0000
  C   C47       1.0  0.20720  0.56689  0.51295  1.0000
  C   C48       1.0  0.94570  0.43239  0.63961  1.0000
  O   O1        1.0  0.38950  0.14682  0.00009  1.0000
  O   O2        1.0  0.60903  0.60987  0.75616  1.0000
  O   O3        1.0  0.85525  0.85398  0.24439  1.0000
  O   O4        1.0  0.14560  0.38978  0.99898  1.0000
  O   O5        1.0  0.38902  0.99859  0.14445  1.0000
  O   O6        1.0  0.85335  0.24416  0.85444  1.0000
  O   O7        1.0  0.61068  0.75725  0.61073  1.0000
  O   O8        1.0  0.14720  0.00075  0.39090  1.0000
  O   O9        1.0  0.24372  0.85358  0.85284  1.0000
  O   O10       1.0  0.99995  0.14681  0.38947  1.0000
  O   O11       1.0  0.00111  0.39079  0.14662  1.0000
  O   O12       1.0  0.75561  0.60957  0.61094  1.0000
  O   O13       1.0  0.38007  0.27518  0.17486  1.0000
  O   O14       1.0  0.61962  0.79482  0.89458  1.0000
  O   O15       1.0  0.90061  0.72541  0.10545  1.0000
  O   O16       1.0  0.09852  0.20468  0.82457  1.0000
  O   O17       1.0  0.20479  0.82478  0.09930  1.0000
  O   O18       1.0  0.72604  0.10606  0.90148  1.0000
  O   O19       1.0  0.79479  0.89505  0.62011  1.0000
  O   O20       1.0  0.27491  0.17519  0.38035  1.0000
  O   O21       1.0  0.10545  0.90034  0.72522  1.0000
  O   O22       1.0  0.82518  0.10035  0.20526  1.0000
  O   O23       1.0  0.17545  0.38001  0.27388  1.0000
  O   O24       1.0  0.89460  0.62008  0.79524  1.0000
