data_image0
_chemical_formula_structural       K4Sn4H24C48O24
_chemical_formula_sum              "K4 Sn4 H24 C48 O24"
_cell_length_a       12.1264
_cell_length_b       12.0863
_cell_length_c       12.1262
_cell_angle_alpha    109.404
_cell_angle_beta     109.538
_cell_angle_gamma    109.405

_space_group_name_H-M_alt    "P 1"
_space_group_IT_number       1

loop_
  _space_group_symop_operation_xyz
  'x, y, z'

loop_
  _atom_site_type_symbol
  _atom_site_label
  _atom_site_symmetry_multiplicity
  _atom_site_fract_x
  _atom_site_fract_y
  _atom_site_fract_z
  _atom_site_occupancy
  K   K1        1.0  0.00000  0.55931  1.00000  1.0000
  K   K2        1.0  0.00010  0.00015  0.55935  1.0000
  K   K3        1.0  0.44065  0.44080  0.44076  1.0000
  K   K4        1.0  0.55924  0.00004  0.99990  1.0000
  Sn  Sn1       1.0  1.00000  0.21572  1.00000  1.0000
  Sn  Sn2       1.0  0.99966  0.99989  0.21553  1.0000
  Sn  Sn3       1.0  0.78447  0.78437  0.78414  1.0000
  Sn  Sn4       1.0  0.21587  0.00023  0.00034  1.0000
  H   H1        1.0  0.02619  0.59834  0.29537  1.0000
  H   H2        1.0  0.97358  0.26851  0.57165  1.0000
  H   H3        1.0  0.69702  0.40164  0.42786  1.0000
  H   H4        1.0  0.30315  0.73149  0.70509  1.0000
  H   H5        1.0  0.73084  0.70461  0.30298  1.0000
  H   H6        1.0  0.40194  0.42833  0.69685  1.0000
  H   H7        1.0  0.26917  0.57214  0.97381  1.0000
  H   H8        1.0  0.59808  0.29494  0.02642  1.0000
  H   H9        1.0  0.42834  0.69686  0.40192  1.0000
  H   H10       1.0  0.70464  0.30297  0.73083  1.0000
  H   H11       1.0  0.29491  0.02639  0.59806  1.0000
  H   H12       1.0  0.57214  0.97378  0.26916  1.0000
  H   H13       1.0  0.72193  0.25042  0.25152  1.0000
  H   H14       1.0  0.27782  0.52974  0.52895  1.0000
  H   H15       1.0  0.00108  0.74952  0.47148  1.0000
  H   H16       1.0  0.99920  0.47026  0.74810  1.0000
  H   H17       1.0  0.47041  0.74845  0.99892  1.0000
  H   H18       1.0  0.74890  0.47105  0.00080  1.0000
  H   H19       1.0  0.52959  0.52849  0.27807  1.0000
  H   H20       1.0  0.25113  0.25192  0.72218  1.0000
  H   H21       1.0  0.47106  0.00079  0.74887  1.0000
  H   H22       1.0  0.74848  0.99890  0.47041  1.0000
  H   H23       1.0  0.25190  0.72216  0.25110  1.0000
  H   H24       1.0  0.52852  0.27804  0.52959  1.0000
  C   C1        1.0  0.88711  0.32427  0.15371  1.0000
  C   C2        1.0  0.11269  0.26641  0.43711  1.0000
  C   C3        1.0  0.82949  0.67572  0.56289  1.0000
  C   C4        1.0  0.17073  0.73356  0.84627  1.0000
  C   C5        1.0  0.73340  0.84623  0.17051  1.0000
  C   C6        1.0  0.67555  0.56283  0.82927  1.0000
  C   C7        1.0  0.26660  0.43716  0.11289  1.0000
  C   C8        1.0  0.32442  0.15373  0.88731  1.0000
  C   C9        1.0  0.56289  0.82931  0.67558  1.0000
  C   C10       1.0  0.84629  0.17056  0.73340  1.0000
  C   C11       1.0  0.15373  0.88728  0.32445  1.0000
  C   C12       1.0  0.43711  0.11283  0.26661  1.0000
  C   C13       1.0  0.87229  0.41528  0.25930  1.0000
  C   C14       1.0  0.12759  0.38683  0.54306  1.0000
  C   C15       1.0  0.84400  0.58471  0.45700  1.0000
  C   C16       1.0  0.15620  0.61314  0.74074  1.0000
  C   C17       1.0  0.61300  0.74070  0.15600  1.0000
  C   C18       1.0  0.58454  0.45694  0.84380  1.0000
  C   C19       1.0  0.38700  0.54299  0.12771  1.0000
  C   C20       1.0  0.41547  0.25924  0.87241  1.0000
  C   C21       1.0  0.45694  0.84377  0.58453  1.0000
  C   C22       1.0  0.74070  0.15599  0.61300  1.0000
  C   C23       1.0  0.25926  0.87240  0.41546  1.0000
  C   C24       1.0  0.54299  0.12770  0.38700  1.0000
  C   C25       1.0  0.95190  0.55614  0.32246  1.0000
  C   C26       1.0  0.04800  0.37014  0.60395  1.0000
  C   C27       1.0  0.76630  0.44384  0.39575  1.0000
  C   C28       1.0  0.23381  0.62985  0.67787  1.0000
  C   C29       1.0  0.62945  0.67754  0.23369  1.0000
  C   C30       1.0  0.44406  0.39603  0.76619  1.0000
  C   C31       1.0  0.37056  0.60424  0.04810  1.0000
  C   C32       1.0  0.55594  0.32214  0.95200  1.0000
  C   C33       1.0  0.39605  0.76620  0.44405  1.0000
  C   C34       1.0  0.67755  0.23369  0.62944  1.0000
  C   C35       1.0  0.32213  0.95197  0.55594  1.0000
  C   C36       1.0  0.60425  0.04810  0.37055  1.0000
  C   C37       1.0  0.78007  0.35981  0.29725  1.0000
  C   C38       1.0  0.21985  0.51734  0.58006  1.0000
  C   C39       1.0  0.93742  0.64018  0.42025  1.0000
  C   C40       1.0  0.06268  0.48263  0.70250  1.0000
  C   C41       1.0  0.48283  0.70275  0.06257  1.0000
  C   C42       1.0  0.63981  0.41995  0.93732  1.0000
  C   C43       1.0  0.51719  0.57974  0.21993  1.0000
  C   C44       1.0  0.36021  0.29749  0.78015  1.0000
  C   C45       1.0  0.41995  0.93729  0.63980  1.0000
  C   C46       1.0  0.70275  0.06256  0.48282  1.0000
  C   C47       1.0  0.29750  0.78013  0.36018  1.0000
  C   C48       1.0  0.57975  0.21993  0.51718  1.0000
  O   O1        1.0  0.98785  0.38210  0.13803  1.0000
  O   O2        1.0  0.01181  0.14977  0.39378  1.0000
  O   O3        1.0  0.75611  0.61783  0.60587  1.0000
  O   O4        1.0  0.24422  0.85037  0.86224  1.0000
  O   O5        1.0  0.84976  0.86172  0.24389  1.0000
  O   O6        1.0  0.61802  0.60615  0.75578  1.0000
  O   O7        1.0  0.15019  0.39425  0.01215  1.0000
  O   O8        1.0  0.38197  0.13797  0.98820  1.0000
  O   O9        1.0  0.60622  0.75599  0.61802  1.0000
  O   O10       1.0  0.86197  0.24406  0.84981  1.0000
  O   O11       1.0  0.13776  0.98813  0.38198  1.0000
  O   O12       1.0  0.39413  0.01196  0.15024  1.0000
  O   O13       1.0  0.80589  0.19901  0.08584  1.0000
  O   O14       1.0  0.19389  0.27999  0.39332  1.0000
  O   O15       1.0  0.88688  0.80110  0.60693  1.0000
  O   O16       1.0  0.11330  0.71991  0.91385  1.0000
  O   O17       1.0  0.72005  0.91422  0.11312  1.0000
  O   O18       1.0  0.80056  0.60661  0.88671  1.0000
  O   O19       1.0  0.27995  0.39312  0.19411  1.0000
  O   O20       1.0  0.19943  0.08611  0.80611  1.0000
  O   O21       1.0  0.60669  0.88668  0.80057  1.0000
  O   O22       1.0  0.91416  0.11317  0.72005  1.0000
  O   O23       1.0  0.08615  0.80605  0.19944  1.0000
  O   O24       1.0  0.39307  0.19416  0.27995  1.0000
