data_image0
_chemical_formula_structural       Ag8H40C32N32O32
_chemical_formula_sum              "Ag8 H40 C32 N32 O32"
_cell_length_a       8.93352
_cell_length_b       11.9198
_cell_length_c       14.1971
_cell_angle_alpha    90
_cell_angle_beta     90
_cell_angle_gamma    90

_space_group_name_H-M_alt    "P 1"
_space_group_IT_number       1

loop_
  _space_group_symop_operation_xyz
  'x, y, z'

loop_
  _atom_site_type_symbol
  _atom_site_label
  _atom_site_symmetry_multiplicity
  _atom_site_fract_x
  _atom_site_fract_y
  _atom_site_fract_z
  _atom_site_occupancy
  Ag  Ag1       1.0  0.82132  0.82184  0.48440  1.0000
  Ag  Ag2       1.0  0.17868  0.67816  0.98440  1.0000
  Ag  Ag3       1.0  0.32132  0.17816  0.01560  1.0000
  Ag  Ag4       1.0  0.67868  0.32183  0.51560  1.0000
  Ag  Ag5       1.0  0.17868  0.17816  0.51560  1.0000
  Ag  Ag6       1.0  0.82132  0.32183  0.01560  1.0000
  Ag  Ag7       1.0  0.67868  0.82184  0.98440  1.0000
  Ag  Ag8       1.0  0.32132  0.67816  0.48440  1.0000
  H   H1        1.0  0.08408  0.48696  0.31231  1.0000
  H   H2        1.0  0.91592  0.01304  0.81231  1.0000
  H   H3        1.0  0.58407  0.51304  0.18769  1.0000
  H   H4        1.0  0.41592  0.98696  0.68769  1.0000
  H   H5        1.0  0.91592  0.51304  0.68769  1.0000
  H   H6        1.0  0.08408  0.98696  0.18769  1.0000
  H   H7        1.0  0.41592  0.48696  0.81231  1.0000
  H   H8        1.0  0.58407  0.01304  0.31231  1.0000
  H   H9        1.0  0.92004  0.28626  0.39029  1.0000
  H   H10       1.0  0.07996  0.21374  0.89029  1.0000
  H   H11       1.0  0.42004  0.71374  0.10971  1.0000
  H   H12       1.0  0.57996  0.78626  0.60971  1.0000
  H   H13       1.0  0.07996  0.71374  0.60971  1.0000
  H   H14       1.0  0.92004  0.78626  0.10971  1.0000
  H   H15       1.0  0.57996  0.28626  0.89029  1.0000
  H   H16       1.0  0.42004  0.21374  0.39029  1.0000
  H   H17       1.0  0.74689  0.57404  0.47167  1.0000
  H   H18       1.0  0.25311  0.92596  0.97167  1.0000
  H   H19       1.0  0.24689  0.42596  0.02833  1.0000
  H   H20       1.0  0.75311  0.07404  0.52833  1.0000
  H   H21       1.0  0.25311  0.42596  0.52833  1.0000
  H   H22       1.0  0.74689  0.07404  0.02833  1.0000
  H   H23       1.0  0.75311  0.57404  0.97167  1.0000
  H   H24       1.0  0.24689  0.92596  0.47167  1.0000
  H   H25       1.0  0.07955  0.84053  0.32781  1.0000
  H   H26       1.0  0.92045  0.65947  0.82781  1.0000
  H   H27       1.0  0.57955  0.15948  0.17219  1.0000
  H   H28       1.0  0.42045  0.34053  0.67219  1.0000
  H   H29       1.0  0.92045  0.15947  0.67219  1.0000
  H   H30       1.0  0.07955  0.34052  0.17219  1.0000
  H   H31       1.0  0.42045  0.84053  0.82781  1.0000
  H   H32       1.0  0.57955  0.65947  0.32781  1.0000
  H   H33       1.0  0.22366  0.65649  0.24846  1.0000
  H   H34       1.0  0.77634  0.84351  0.74846  1.0000
  H   H35       1.0  0.72366  0.34351  0.25154  1.0000
  H   H36       1.0  0.27634  0.15649  0.75154  1.0000
  H   H37       1.0  0.77634  0.34351  0.75154  1.0000
  H   H38       1.0  0.22366  0.15649  0.25154  1.0000
  H   H39       1.0  0.27634  0.65649  0.74846  1.0000
  H   H40       1.0  0.72366  0.84351  0.24846  1.0000
  C   C1        1.0  0.05546  0.75202  0.33524  1.0000
  C   C2        1.0  0.94454  0.74798  0.83524  1.0000
  C   C3        1.0  0.55546  0.24798  0.16476  1.0000
  C   C4        1.0  0.44454  0.25202  0.66476  1.0000
  C   C5        1.0  0.94454  0.24798  0.66476  1.0000
  C   C6        1.0  0.05546  0.25202  0.16476  1.0000
  C   C7        1.0  0.44454  0.75202  0.83524  1.0000
  C   C8        1.0  0.55546  0.74798  0.33524  1.0000
  C   C9        1.0  0.12739  0.66126  0.29451  1.0000
  C   C10       1.0  0.87261  0.83874  0.79451  1.0000
  C   C11       1.0  0.62739  0.33874  0.20549  1.0000
  C   C12       1.0  0.37261  0.16126  0.70549  1.0000
  C   C13       1.0  0.87261  0.33874  0.70549  1.0000
  C   C14       1.0  0.12739  0.16126  0.20549  1.0000
  C   C15       1.0  0.37261  0.66126  0.79451  1.0000
  C   C16       1.0  0.62739  0.83874  0.29451  1.0000
  C   C17       1.0  0.94029  0.60070  0.38408  1.0000
  C   C18       1.0  0.05970  0.89930  0.88409  1.0000
  C   C19       1.0  0.44029  0.39930  0.11592  1.0000
  C   C20       1.0  0.55970  0.10070  0.61592  1.0000
  C   C21       1.0  0.05971  0.39930  0.61592  1.0000
  C   C22       1.0  0.94029  0.10070  0.11591  1.0000
  C   C23       1.0  0.55971  0.60070  0.88409  1.0000
  C   C24       1.0  0.44029  0.89930  0.38408  1.0000
  C   C25       1.0  0.83322  0.53113  0.43112  1.0000
  C   C26       1.0  0.16678  0.96887  0.93112  1.0000
  C   C27       1.0  0.33322  0.46887  0.06889  1.0000
  C   C28       1.0  0.66678  0.03113  0.56889  1.0000
  C   C29       1.0  0.16678  0.46887  0.56889  1.0000
  C   C30       1.0  0.83322  0.03113  0.06888  1.0000
  C   C31       1.0  0.66678  0.53113  0.93112  1.0000
  C   C32       1.0  0.33322  0.96887  0.43111  1.0000
  N   N1        1.0  0.94098  0.71401  0.39074  1.0000
  N   N2        1.0  0.05901  0.78599  0.89074  1.0000
  N   N3        1.0  0.44098  0.28599  0.10926  1.0000
  N   N4        1.0  0.55901  0.21401  0.60926  1.0000
  N   N5        1.0  0.05901  0.28599  0.60926  1.0000
  N   N6        1.0  0.94098  0.21401  0.10926  1.0000
  N   N7        1.0  0.55902  0.71401  0.89074  1.0000
  N   N8        1.0  0.44098  0.78599  0.39074  1.0000
  N   N9        1.0  0.05388  0.56819  0.32568  1.0000
  N   N10       1.0  0.94612  0.93181  0.82568  1.0000
  N   N11       1.0  0.55388  0.43181  0.17432  1.0000
  N   N12       1.0  0.44612  0.06819  0.67432  1.0000
  N   N13       1.0  0.94612  0.43181  0.67432  1.0000
  N   N14       1.0  0.05388  0.06819  0.17432  1.0000
  N   N15       1.0  0.44612  0.56819  0.82568  1.0000
  N   N16       1.0  0.55388  0.93181  0.32568  1.0000
  N   N17       1.0  0.82568  0.42215  0.43123  1.0000
  N   N18       1.0  0.17432  0.07785  0.93123  1.0000
  N   N19       1.0  0.32568  0.57785  0.06877  1.0000
  N   N20       1.0  0.67432  0.92215  0.56877  1.0000
  N   N21       1.0  0.17432  0.57785  0.56877  1.0000
  N   N22       1.0  0.82568  0.92215  0.06877  1.0000
  N   N23       1.0  0.67432  0.42215  0.93123  1.0000
  N   N24       1.0  0.32568  0.07785  0.43123  1.0000
  N   N25       1.0  0.13673  0.90901  0.63637  1.0000
  N   N26       1.0  0.86327  0.59099  0.13637  1.0000
  N   N27       1.0  0.63673  0.09099  0.86363  1.0000
  N   N28       1.0  0.36327  0.40901  0.36363  1.0000
  N   N29       1.0  0.86327  0.09098  0.36363  1.0000
  N   N30       1.0  0.13673  0.40901  0.86363  1.0000
  N   N31       1.0  0.36327  0.90901  0.13637  1.0000
  N   N32       1.0  0.63673  0.59099  0.63637  1.0000
  O   O1        1.0  0.93305  0.37019  0.37682  1.0000
  O   O2        1.0  0.06695  0.12981  0.87682  1.0000
  O   O3        1.0  0.43306  0.62981  0.12318  1.0000
  O   O4        1.0  0.56695  0.87019  0.62318  1.0000
  O   O5        1.0  0.06694  0.62981  0.62318  1.0000
  O   O6        1.0  0.93305  0.87019  0.12318  1.0000
  O   O7        1.0  0.56695  0.37019  0.87682  1.0000
  O   O8        1.0  0.43306  0.12981  0.37682  1.0000
  O   O9        1.0  0.23498  0.87718  0.69399  1.0000
  O   O10       1.0  0.76502  0.62282  0.19399  1.0000
  O   O11       1.0  0.73498  0.12282  0.80601  1.0000
  O   O12       1.0  0.26502  0.37718  0.30601  1.0000
  O   O13       1.0  0.76502  0.12282  0.30601  1.0000
  O   O14       1.0  0.23498  0.37718  0.80601  1.0000
  O   O15       1.0  0.26502  0.87718  0.19399  1.0000
  O   O16       1.0  0.73498  0.62282  0.69399  1.0000
  O   O17       1.0  0.08931  0.00783  0.63386  1.0000
  O   O18       1.0  0.91069  0.49217  0.13386  1.0000
  O   O19       1.0  0.58931  0.99216  0.86614  1.0000
  O   O20       1.0  0.41069  0.50784  0.36614  1.0000
  O   O21       1.0  0.91069  0.99216  0.36614  1.0000
  O   O22       1.0  0.08931  0.50784  0.86614  1.0000
  O   O23       1.0  0.41069  0.00783  0.13386  1.0000
  O   O24       1.0  0.58931  0.49217  0.63386  1.0000
  O   O25       1.0  0.08413  0.83699  0.57585  1.0000
  O   O26       1.0  0.91587  0.66301  0.07585  1.0000
  O   O27       1.0  0.58412  0.16301  0.92415  1.0000
  O   O28       1.0  0.41587  0.33699  0.42415  1.0000
  O   O29       1.0  0.91588  0.16301  0.42415  1.0000
  O   O30       1.0  0.08412  0.33699  0.92415  1.0000
  O   O31       1.0  0.41587  0.83699  0.07585  1.0000
  O   O32       1.0  0.58413  0.66301  0.57585  1.0000
