data_image0
_chemical_formula_structural       Ag4H28C20N12Cl4O16
_chemical_formula_sum              "Ag4 H28 C20 N12 Cl4 O16"
_cell_length_a       9.0735
_cell_length_b       10.7608
_cell_length_c       11.384
_cell_angle_alpha    87.1699
_cell_angle_beta     66.5357
_cell_angle_gamma    65.0461

_space_group_name_H-M_alt    "P 1"
_space_group_IT_number       1

loop_
  _space_group_symop_operation_xyz
  'x, y, z'

loop_
  _atom_site_type_symbol
  _atom_site_label
  _atom_site_symmetry_multiplicity
  _atom_site_fract_x
  _atom_site_fract_y
  _atom_site_fract_z
  _atom_site_occupancy
  Ag  Ag1       1.0  0.39068  0.75007  0.75000  1.0000
  Ag  Ag2       1.0  0.60932  0.24993  0.25000  1.0000
  Ag  Ag3       1.0  0.50000  0.00000  0.50000  1.0000
  Ag  Ag4       1.0  0.50000  0.50000  1.00000  1.0000
  H   H1        1.0  0.98279  0.84381  0.86078  1.0000
  H   H2        1.0  0.18770  0.65629  0.63905  1.0000
  H   H3        1.0  0.01721  0.15619  0.13922  1.0000
  H   H4        1.0  0.81230  0.34371  0.36094  1.0000
  H   H5        1.0  0.82548  0.83009  0.01066  1.0000
  H   H6        1.0  0.16640  0.67005  0.48919  1.0000
  H   H7        1.0  0.17452  0.16990  0.98934  1.0000
  H   H8        1.0  0.83360  0.32995  0.51081  1.0000
  H   H9        1.0  0.02586  0.68161  0.91838  1.0000
  H   H10       1.0  0.12585  0.81855  0.58158  1.0000
  H   H11       1.0  0.97414  0.31839  0.08162  1.0000
  H   H12       1.0  0.87415  0.18145  0.41842  1.0000
  H   H13       1.0  0.41141  0.83755  0.01987  1.0000
  H   H14       1.0  0.76899  0.66255  0.48008  1.0000
  H   H15       1.0  0.58859  0.16245  0.98013  1.0000
  H   H16       1.0  0.23101  0.33745  0.51992  1.0000
  H   H17       1.0  0.15176  0.90195  0.24135  1.0000
  H   H18       1.0  0.79508  0.59803  0.25862  1.0000
  H   H19       1.0  0.84824  0.09805  0.75866  1.0000
  H   H20       1.0  0.20491  0.40197  0.74137  1.0000
  H   H21       1.0  0.73313  0.89479  0.21892  1.0000
  H   H22       1.0  0.34682  0.60521  0.28109  1.0000
  H   H23       1.0  0.26687  0.10522  0.78108  1.0000
  H   H24       1.0  0.65318  0.39479  0.71891  1.0000
  H   H25       1.0  0.84048  0.96262  0.50558  1.0000
  H   H26       1.0  0.80858  0.53730  0.99446  1.0000
  H   H27       1.0  0.15952  0.03738  0.49442  1.0000
  H   H28       1.0  0.19142  0.46270  0.00554  1.0000
  C   C1        1.0  0.28412  0.83780  0.03937  1.0000
  C   C2        1.0  0.66142  0.66233  0.46059  1.0000
  C   C3        1.0  0.71588  0.16220  0.96063  1.0000
  C   C4        1.0  0.33858  0.33767  0.53941  1.0000
  C   C5        1.0  0.06333  0.82278  0.01572  1.0000
  C   C6        1.0  0.40192  0.67743  0.48420  1.0000
  C   C7        1.0  0.93667  0.17721  0.98428  1.0000
  C   C8        1.0  0.59808  0.32257  0.51580  1.0000
  C   C9        1.0  0.00673  0.86307  0.14705  1.0000
  C   C10       1.0  0.51690  0.63700  0.35290  1.0000
  C   C11       1.0  0.99327  0.13693  0.85296  1.0000
  C   C12       1.0  0.48309  0.36300  0.64709  1.0000
  C   C13       1.0  0.83393  0.89634  0.24760  1.0000
  C   C14       1.0  0.47784  0.60362  0.25241  1.0000
  C   C15       1.0  0.16607  0.10366  0.75240  1.0000
  C   C16       1.0  0.52216  0.39638  0.74759  1.0000
  C   C17       1.0  0.96825  0.79368  0.94853  1.0000
  C   C18       1.0  0.21061  0.70651  0.55134  1.0000
  C   C19       1.0  0.03175  0.20632  0.05147  1.0000
  C   C20       1.0  0.78939  0.29349  0.44866  1.0000
  N   N1        1.0  0.23558  0.80827  0.95114  1.0000
  N   N2        1.0  0.49510  0.69197  0.54880  1.0000
  N   N3        1.0  0.76442  0.19173  0.04886  1.0000
  N   N4        1.0  0.50490  0.30803  0.45120  1.0000
  N   N5        1.0  0.15001  0.87060  0.15803  1.0000
  N   N6        1.0  0.67869  0.62946  0.34194  1.0000
  N   N7        1.0  0.84999  0.12940  0.84197  1.0000
  N   N8        1.0  0.32131  0.37054  0.65806  1.0000
  N   N9        1.0  0.77554  0.93238  0.37083  1.0000
  N   N10       1.0  0.57870  0.56750  0.12919  1.0000
  N   N11       1.0  0.22446  0.06762  0.62917  1.0000
  N   N12       1.0  0.42130  0.43250  0.87081  1.0000
  Cl  Cl1       1.0  0.66234  0.94571  0.75545  1.0000
  Cl  Cl2       1.0  0.86356  0.55441  0.74457  1.0000
  Cl  Cl3       1.0  0.33766  0.05429  0.24455  1.0000
  Cl  Cl4       1.0  0.13645  0.44559  0.25543  1.0000
  O   O1        1.0  0.90119  0.93567  0.40874  1.0000
  O   O2        1.0  0.74549  0.56421  0.09131  1.0000
  O   O3        1.0  0.09881  0.06433  0.59126  1.0000
  O   O4        1.0  0.25451  0.43579  0.90869  1.0000
  O   O5        1.0  0.77418  0.01312  0.66213  1.0000
  O   O6        1.0  0.94955  0.48710  0.83795  1.0000
  O   O7        1.0  0.22582  0.98688  0.33787  1.0000
  O   O8        1.0  0.05045  0.51289  0.16205  1.0000
  O   O9        1.0  0.62668  0.86948  0.67130  1.0000
  O   O10       1.0  0.66749  0.63048  0.82869  1.0000
  O   O11       1.0  0.37332  0.13052  0.32871  1.0000
  O   O12       1.0  0.33251  0.36952  0.17131  1.0000
  O   O13       1.0  0.49056  0.06032  0.84355  1.0000
  O   O14       1.0  0.89473  0.43975  0.65642  1.0000
  O   O15       1.0  0.50944  0.93968  0.15645  1.0000
  O   O16       1.0  0.10529  0.56025  0.34358  1.0000
