data_image0
_chemical_formula_structural       Cu4H48C64Cl8O24
_chemical_formula_sum              "Cu4 H48 C64 Cl8 O24"
_cell_length_a       5.04339
_cell_length_b       11.5125
_cell_length_c       29.1078
_cell_angle_alpha    99.0448
_cell_angle_beta     90
_cell_angle_gamma    90

_space_group_name_H-M_alt    "P 1"
_space_group_IT_number       1

loop_
  _space_group_symop_operation_xyz
  'x, y, z'

loop_
  _atom_site_type_symbol
  _atom_site_label
  _atom_site_symmetry_multiplicity
  _atom_site_fract_x
  _atom_site_fract_y
  _atom_site_fract_z
  _atom_site_occupancy
  Cu  Cu1       1.0  0.71356  0.00921  0.02283  1.0000
  Cu  Cu2       1.0  0.21356  0.49079  0.47718  1.0000
  Cu  Cu3       1.0  0.28641  0.99079  0.97718  1.0000
  Cu  Cu4       1.0  0.78641  0.50921  0.52282  1.0000
  H   H1        1.0  0.02014  0.53914  0.17577  1.0000
  H   H2        1.0  0.52013  0.96087  0.32423  1.0000
  H   H3        1.0  0.97985  0.46086  0.82423  1.0000
  H   H4        1.0  0.47987  0.03914  0.67577  1.0000
  H   H5        1.0  0.71757  0.41433  0.21552  1.0000
  H   H6        1.0  0.21757  0.08567  0.28448  1.0000
  H   H7        1.0  0.28241  0.58567  0.78448  1.0000
  H   H8        1.0  0.78242  0.91433  0.71551  1.0000
  H   H9        1.0  0.36648  0.29577  0.16988  1.0000
  H   H10       1.0  0.86647  0.20423  0.33012  1.0000
  H   H11       1.0  0.63352  0.70423  0.83012  1.0000
  H   H12       1.0  0.13353  0.79577  0.66988  1.0000
  H   H13       1.0  0.32265  0.29722  0.08556  1.0000
  H   H14       1.0  0.82263  0.20278  0.41445  1.0000
  H   H15       1.0  0.67737  0.70277  0.91444  1.0000
  H   H16       1.0  0.17738  0.79723  0.58555  1.0000
  H   H17       1.0  0.47122  0.37934  0.97300  1.0000
  H   H18       1.0  0.97122  0.12066  0.52701  1.0000
  H   H19       1.0  0.52881  0.62066  0.02700  1.0000
  H   H20       1.0  0.02880  0.87933  0.47299  1.0000
  H   H21       1.0  0.25194  0.37579  0.02010  1.0000
  H   H22       1.0  0.75193  0.12421  0.47990  1.0000
  H   H23       1.0  0.74809  0.62422  0.97989  1.0000
  H   H24       1.0  0.24809  0.87579  0.52010  1.0000
  H   H25       1.0  0.89958  0.92072  0.25174  1.0000
  H   H26       1.0  0.39959  0.57926  0.24826  1.0000
  H   H27       1.0  0.10042  0.07926  0.74826  1.0000
  H   H28       1.0  0.60040  0.42075  0.75174  1.0000
  H   H29       1.0  0.80383  0.71287  0.21764  1.0000
  H   H30       1.0  0.30387  0.78712  0.28236  1.0000
  H   H31       1.0  0.19616  0.28712  0.78236  1.0000
  H   H32       1.0  0.69612  0.21289  0.71764  1.0000
  H   H33       1.0  0.45636  0.66951  0.15572  1.0000
  H   H34       1.0  0.95638  0.83049  0.34428  1.0000
  H   H35       1.0  0.54364  0.33049  0.84428  1.0000
  H   H36       1.0  0.04360  0.16951  0.65572  1.0000
  H   H37       1.0  0.20259  0.83022  0.13039  1.0000
  H   H38       1.0  0.70259  0.66979  0.36961  1.0000
  H   H39       1.0  0.79742  0.16978  0.86961  1.0000
  H   H40       1.0  0.29741  0.33021  0.63039  1.0000
  H   H41       1.0  0.96260  0.97710  0.12523  1.0000
  H   H42       1.0  0.46260  0.52291  0.37477  1.0000
  H   H43       1.0  0.03738  0.02290  0.87477  1.0000
  H   H44       1.0  0.53739  0.47710  0.62523  1.0000
  H   H45       1.0  0.99249  0.13064  0.12759  1.0000
  H   H46       1.0  0.49248  0.36937  0.37241  1.0000
  H   H47       1.0  0.00751  0.86936  0.87242  1.0000
  H   H48       1.0  0.50751  0.63064  0.62759  1.0000
  C   C1        1.0  0.64996  0.41687  0.08227  1.0000
  C   C2        1.0  0.14995  0.08313  0.41773  1.0000
  C   C3        1.0  0.35005  0.58312  0.91773  1.0000
  C   C4        1.0  0.85007  0.91688  0.58226  1.0000
  C   C5        1.0  0.84100  0.48733  0.10880  1.0000
  C   C6        1.0  0.34099  0.01267  0.39120  1.0000
  C   C7        1.0  0.15901  0.51266  0.89120  1.0000
  C   C8        1.0  0.65902  0.98734  0.60880  1.0000
  C   C9        1.0  0.86641  0.48593  0.15637  1.0000
  C   C10       1.0  0.36640  0.01407  0.34363  1.0000
  C   C11       1.0  0.13360  0.51406  0.84363  1.0000
  C   C12       1.0  0.63362  0.98594  0.65637  1.0000
  C   C13       1.0  0.69616  0.41659  0.17845  1.0000
  C   C14       1.0  0.19615  0.08341  0.32155  1.0000
  C   C15       1.0  0.30384  0.58341  0.82155  1.0000
  C   C16       1.0  0.80386  0.91659  0.67845  1.0000
  C   C17       1.0  0.50025  0.34967  0.15277  1.0000
  C   C18       1.0  0.00023  0.15033  0.34724  1.0000
  C   C19       1.0  0.49976  0.65033  0.84723  1.0000
  C   C20       1.0  0.99977  0.84967  0.65276  1.0000
  C   C21       1.0  0.47687  0.34974  0.10507  1.0000
  C   C22       1.0  0.97685  0.15026  0.39494  1.0000
  C   C23       1.0  0.52315  0.65026  0.89494  1.0000
  C   C24       1.0  0.02317  0.84974  0.60506  1.0000
  C   C25       1.0  0.45436  0.35350  0.00753  1.0000
  C   C26       1.0  0.95435  0.14650  0.49247  1.0000
  C   C27       1.0  0.54567  0.64650  0.99247  1.0000
  C   C28       1.0  0.04566  0.85350  0.50753  1.0000
  C   C29       1.0  0.48805  0.22017  0.00241  1.0000
  C   C30       1.0  0.98804  0.27983  0.49759  1.0000
  C   C31       1.0  0.51194  0.77983  0.99759  1.0000
  C   C32       1.0  0.01196  0.72017  0.50241  1.0000
  C   C33       1.0  0.40450  0.96818  0.17666  1.0000
  C   C34       1.0  0.90450  0.53182  0.32334  1.0000
  C   C35       1.0  0.59551  0.03181  0.82334  1.0000
  C   C36       1.0  0.09551  0.46819  0.67666  1.0000
  C   C37       1.0  0.60550  0.99176  0.21055  1.0000
  C   C38       1.0  0.10550  0.50823  0.28945  1.0000
  C   C39       1.0  0.39451  0.00823  0.78945  1.0000
  C   C40       1.0  0.89450  0.49177  0.71055  1.0000
  C   C41       1.0  0.74603  0.90008  0.22538  1.0000
  C   C42       1.0  0.24605  0.59991  0.27462  1.0000
  C   C43       1.0  0.25397  0.09991  0.77462  1.0000
  C   C44       1.0  0.75395  0.40010  0.72538  1.0000
  C   C45       1.0  0.69182  0.78372  0.20598  1.0000
  C   C46       1.0  0.19185  0.71627  0.29402  1.0000
  C   C47       1.0  0.30818  0.21627  0.79402  1.0000
  C   C48       1.0  0.80815  0.28374  0.70598  1.0000
  C   C49       1.0  0.49773  0.75987  0.17163  1.0000
  C   C50       1.0  0.99774  0.74012  0.32837  1.0000
  C   C51       1.0  0.50227  0.24012  0.82837  1.0000
  C   C52       1.0  0.00224  0.25988  0.67163  1.0000
  C   C53       1.0  0.35438  0.85122  0.15702  1.0000
  C   C54       1.0  0.85439  0.64878  0.34298  1.0000
  C   C55       1.0  0.64563  0.14878  0.84298  1.0000
  C   C56       1.0  0.14561  0.35122  0.65702  1.0000
  C   C57       1.0  0.10729  0.04894  0.12594  1.0000
  C   C58       1.0  0.60728  0.45106  0.37407  1.0000
  C   C59       1.0  0.89270  0.95106  0.87407  1.0000
  C   C60       1.0  0.39271  0.54894  0.62593  1.0000
  C   C61       1.0  0.26712  0.03065  0.08065  1.0000
  C   C62       1.0  0.76711  0.46935  0.41935  1.0000
  C   C63       1.0  0.73286  0.96935  0.91936  1.0000
  C   C64       1.0  0.23287  0.53065  0.58065  1.0000
  Cl  Cl1       1.0  0.04125  0.57859  0.08169  1.0000
  Cl  Cl2       1.0  0.54124  0.92141  0.41831  1.0000
  Cl  Cl3       1.0  0.95878  0.42139  0.91831  1.0000
  Cl  Cl4       1.0  0.45878  0.07860  0.58169  1.0000
  Cl  Cl5       1.0  0.68135  0.13616  0.23285  1.0000
  Cl  Cl6       1.0  0.18134  0.36383  0.26716  1.0000
  Cl  Cl7       1.0  0.31866  0.86383  0.76715  1.0000
  Cl  Cl8       1.0  0.81866  0.63618  0.73284  1.0000
  O   O1        1.0  0.64846  0.42005  0.03553  1.0000
  O   O2        1.0  0.14845  0.07995  0.46448  1.0000
  O   O3        1.0  0.35156  0.57995  0.96448  1.0000
  O   O4        1.0  0.85156  0.92004  0.53552  1.0000
  O   O5        1.0  0.68687  0.18001  0.02141  1.0000
  O   O6        1.0  0.18685  0.31998  0.47859  1.0000
  O   O7        1.0  0.31312  0.81999  0.97859  1.0000
  O   O8        1.0  0.81313  0.68001  0.52140  1.0000
  O   O9        1.0  0.69725  0.83707  0.02055  1.0000
  O   O10       1.0  0.19727  0.66294  0.47945  1.0000
  O   O11       1.0  0.30273  0.16294  0.97946  1.0000
  O   O12       1.0  0.80273  0.33706  0.52055  1.0000
  O   O13       1.0  0.26977  0.06364  0.16605  1.0000
  O   O14       1.0  0.76976  0.43637  0.33395  1.0000
  O   O15       1.0  0.73023  0.93636  0.83395  1.0000
  O   O16       1.0  0.23023  0.56363  0.66605  1.0000
  O   O17       1.0  0.51653  0.03128  0.08306  1.0000
  O   O18       1.0  0.01652  0.46872  0.41695  1.0000
  O   O19       1.0  0.48345  0.96873  0.91695  1.0000
  O   O20       1.0  0.98346  0.53128  0.58305  1.0000
  O   O21       1.0  0.86882  0.98252  0.95692  1.0000
  O   O22       1.0  0.36882  0.51748  0.54308  1.0000
  O   O23       1.0  0.13116  0.01748  0.04309  1.0000
  O   O24       1.0  0.63116  0.48252  0.45692  1.0000
