data_image0
_chemical_formula_structural       Cu4H16C28N12
_chemical_formula_sum              "Cu4 H16 C28 N12"
_cell_length_a       5.94952
_cell_length_b       8.25917
_cell_length_c       13.706
_cell_angle_alpha    90.0015
_cell_angle_beta     90.0007
_cell_angle_gamma    90.0011

_space_group_name_H-M_alt    "P 1"
_space_group_IT_number       1

loop_
  _space_group_symop_operation_xyz
  'x, y, z'

loop_
  _atom_site_type_symbol
  _atom_site_label
  _atom_site_symmetry_multiplicity
  _atom_site_fract_x
  _atom_site_fract_y
  _atom_site_fract_z
  _atom_site_occupancy
  Cu  Cu1       1.0  0.23975  0.38370  0.75451  1.0000
  Cu  Cu2       1.0  0.73973  0.11630  0.24549  1.0000
  Cu  Cu3       1.0  0.76026  0.88368  0.74548  1.0000
  Cu  Cu4       1.0  0.26026  0.61630  0.25452  1.0000
  H   H1        1.0  0.67776  0.25907  0.68234  1.0000
  H   H2        1.0  0.17780  0.24091  0.31767  1.0000
  H   H3        1.0  0.32217  0.75907  0.81768  1.0000
  H   H4        1.0  0.82221  0.74096  0.18233  1.0000
  H   H5        1.0  0.95404  0.31757  0.55184  1.0000
  H   H6        1.0  0.45405  0.18240  0.44818  1.0000
  H   H7        1.0  0.04594  0.81761  0.94819  1.0000
  H   H8        1.0  0.54597  0.68244  0.05182  1.0000
  H   H9        1.0  0.47525  0.66076  0.43176  1.0000
  H   H10       1.0  0.97520  0.83922  0.56823  1.0000
  H   H11       1.0  0.52483  0.16078  0.06823  1.0000
  H   H12       1.0  0.02481  0.33924  0.93177  1.0000
  H   H13       1.0  0.22282  0.59255  0.57298  1.0000
  H   H14       1.0  0.72280  0.90745  0.42701  1.0000
  H   H15       1.0  0.77720  0.09253  0.92701  1.0000
  H   H16       1.0  0.27720  0.40749  0.07299  1.0000
  C   C1        1.0  0.07975  0.18720  0.75651  1.0000
  C   C2        1.0  0.57974  0.31278  0.24349  1.0000
  C   C3        1.0  0.92021  0.68716  0.74349  1.0000
  C   C4        1.0  0.42022  0.81280  0.25652  1.0000
  C   C5        1.0  0.63835  0.34713  0.62580  1.0000
  C   C6        1.0  0.13837  0.15285  0.37420  1.0000
  C   C7        1.0  0.36161  0.84714  0.87421  1.0000
  C   C8        1.0  0.86164  0.65289  0.12579  1.0000
  C   C9        1.0  0.79262  0.37948  0.55243  1.0000
  C   C10       1.0  0.29263  0.12049  0.44757  1.0000
  C   C11       1.0  0.20737  0.87951  0.94757  1.0000
  C   C12       1.0  0.70739  0.62053  0.05242  1.0000
  C   C13       1.0  0.73685  0.49547  0.48136  1.0000
  C   C14       1.0  0.23684  0.00450  0.51864  1.0000
  C   C15       1.0  0.26316  0.99551  0.01865  1.0000
  C   C16       1.0  0.76317  0.50452  0.98135  1.0000
  C   C17       1.0  0.52675  0.57321  0.48690  1.0000
  C   C18       1.0  0.02673  0.92677  0.51310  1.0000
  C   C19       1.0  0.47328  0.07323  0.01310  1.0000
  C   C20       1.0  0.97327  0.42680  0.98690  1.0000
  C   C21       1.0  0.38523  0.53336  0.56367  1.0000
  C   C22       1.0  0.88522  0.96663  0.43632  1.0000
  C   C23       1.0  0.61478  0.03335  0.93633  1.0000
  C   C24       1.0  0.11479  0.46667  0.06367  1.0000
  C   C25       1.0  0.89483  0.53559  0.40780  1.0000
  C   C26       1.0  0.39481  0.96438  0.59221  1.0000
  C   C27       1.0  0.10519  0.03564  0.09221  1.0000
  C   C28       1.0  0.60519  0.46440  0.90779  1.0000
  N   N1        1.0  0.96127  0.07310  0.75368  1.0000
  N   N2        1.0  0.46121  0.42688  0.24632  1.0000
  N   N3        1.0  0.03874  0.57310  0.74630  1.0000
  N   N4        1.0  0.53877  0.92688  0.25369  1.0000
  N   N5        1.0  0.43813  0.42258  0.63213  1.0000
  N   N6        1.0  0.93814  0.07741  0.36786  1.0000
  N   N7        1.0  0.56184  0.92258  0.86787  1.0000
  N   N8        1.0  0.06187  0.57744  0.13213  1.0000
  N   N9        1.0  0.03473  0.56945  0.35149  1.0000
  N   N10       1.0  0.53471  0.93053  0.64852  1.0000
  N   N11       1.0  0.96527  0.06948  0.14851  1.0000
  N   N12       1.0  0.46527  0.43055  0.85149  1.0000
