data_image0
_chemical_formula_structural       Ag4H48C64N20O12
_chemical_formula_sum              "Ag4 H48 C64 N20 O12"
_cell_length_a       8.53899
_cell_length_b       8.66072
_cell_length_c       21.8779
_cell_angle_alpha    96.8868
_cell_angle_beta     90
_cell_angle_gamma    90

_space_group_name_H-M_alt    "P 1"
_space_group_IT_number       1

loop_
  _space_group_symop_operation_xyz
  'x, y, z'

loop_
  _atom_site_type_symbol
  _atom_site_label
  _atom_site_symmetry_multiplicity
  _atom_site_fract_x
  _atom_site_fract_y
  _atom_site_fract_z
  _atom_site_occupancy
  Ag  Ag1       1.0  0.08024  0.65439  0.69747  1.0000
  Ag  Ag2       1.0  0.58024  0.34561  0.80253  1.0000
  Ag  Ag3       1.0  0.91976  0.34561  0.30253  1.0000
  Ag  Ag4       1.0  0.41976  0.65439  0.19747  1.0000
  H   H1        1.0  0.82190  0.87353  0.50461  1.0000
  H   H2        1.0  0.32190  0.12647  0.99539  1.0000
  H   H3        1.0  0.17810  0.12647  0.49539  1.0000
  H   H4        1.0  0.67810  0.87353  0.00461  1.0000
  H   H5        1.0  0.69016  0.63076  0.45668  1.0000
  H   H6        1.0  0.19016  0.36924  0.04332  1.0000
  H   H7        1.0  0.30984  0.36924  0.54332  1.0000
  H   H8        1.0  0.80984  0.63076  0.95668  1.0000
  H   H9        1.0  0.70668  0.38987  0.51115  1.0000
  H   H10       1.0  0.20668  0.61013  0.98885  1.0000
  H   H11       1.0  0.29332  0.61013  0.48885  1.0000
  H   H12       1.0  0.79332  0.38987  0.01115  1.0000
  H   H13       1.0  0.85499  0.40428  0.60990  1.0000
  H   H14       1.0  0.35499  0.59572  0.89010  1.0000
  H   H15       1.0  0.14501  0.59572  0.39010  1.0000
  H   H16       1.0  0.64501  0.40428  0.10990  1.0000
  H   H17       1.0  0.92630  0.10286  0.55962  1.0000
  H   H18       1.0  0.42630  0.89714  0.94038  1.0000
  H   H19       1.0  0.07371  0.89714  0.44038  1.0000
  H   H20       1.0  0.57370  0.10286  0.05962  1.0000
  H   H21       1.0  0.13444  0.25753  0.64279  1.0000
  H   H22       1.0  0.63444  0.74247  0.85721  1.0000
  H   H23       1.0  0.86556  0.74247  0.35721  1.0000
  H   H24       1.0  0.36556  0.25753  0.14279  1.0000
  H   H25       1.0  0.32740  0.16578  0.71977  1.0000
  H   H26       1.0  0.82740  0.83422  0.78023  1.0000
  H   H27       1.0  0.67260  0.83422  0.28023  1.0000
  H   H28       1.0  0.17260  0.16578  0.21977  1.0000
  H   H29       1.0  0.34135  0.96229  0.72261  1.0000
  H   H30       1.0  0.84135  0.03771  0.77739  1.0000
  H   H31       1.0  0.65865  0.03771  0.27739  1.0000
  H   H32       1.0  0.15865  0.96229  0.22261  1.0000
  H   H33       1.0  0.21410  0.83757  0.80113  1.0000
  H   H34       1.0  0.71410  0.16243  0.69887  1.0000
  H   H35       1.0  0.78590  0.16243  0.19887  1.0000
  H   H36       1.0  0.28590  0.83757  0.30113  1.0000
  H   H37       1.0  0.05491  0.85487  0.89651  1.0000
  H   H38       1.0  0.55491  0.14513  0.60349  1.0000
  H   H39       1.0  0.94509  0.14513  0.10350  1.0000
  H   H40       1.0  0.44509  0.85487  0.39650  1.0000
  H   H41       1.0  0.95860  0.33839  0.88064  1.0000
  H   H42       1.0  0.45860  0.66160  0.61936  1.0000
  H   H43       1.0  0.04140  0.66161  0.11936  1.0000
  H   H44       1.0  0.54140  0.33839  0.38064  1.0000
  H   H45       1.0  0.11942  0.32048  0.78545  1.0000
  H   H46       1.0  0.61942  0.67952  0.71455  1.0000
  H   H47       1.0  0.88058  0.67952  0.21455  1.0000
  H   H48       1.0  0.38058  0.32048  0.28545  1.0000
  C   C1        1.0  0.91305  0.76368  0.58093  1.0000
  C   C2        1.0  0.41305  0.23632  0.91907  1.0000
  C   C3        1.0  0.08695  0.23632  0.41907  1.0000
  C   C4        1.0  0.58695  0.76368  0.08093  1.0000
  C   C5        1.0  0.82882  0.76660  0.52607  1.0000
  C   C6        1.0  0.32882  0.23340  0.97393  1.0000
  C   C7        1.0  0.17118  0.23340  0.47393  1.0000
  C   C8        1.0  0.67117  0.76660  0.02607  1.0000
  C   C9        1.0  0.75391  0.63190  0.49995  1.0000
  C   C10       1.0  0.25390  0.36810  0.00005  1.0000
  C   C11       1.0  0.24610  0.36810  0.50005  1.0000
  C   C12       1.0  0.74610  0.63190  0.99995  1.0000
  C   C13       1.0  0.76267  0.49832  0.52971  1.0000
  C   C14       1.0  0.26267  0.50169  0.97029  1.0000
  C   C15       1.0  0.23733  0.50168  0.47029  1.0000
  C   C16       1.0  0.73733  0.49832  0.02971  1.0000
  C   C17       1.0  0.84735  0.50503  0.58445  1.0000
  C   C18       1.0  0.34735  0.49497  0.91555  1.0000
  C   C19       1.0  0.15266  0.49497  0.41555  1.0000
  C   C20       1.0  0.65265  0.50503  0.08445  1.0000
  C   C21       1.0  0.99563  0.90169  0.60987  1.0000
  C   C22       1.0  0.49563  0.09831  0.89013  1.0000
  C   C23       1.0  0.00437  0.09831  0.39013  1.0000
  C   C24       1.0  0.50437  0.90169  0.10987  1.0000
  C   C25       1.0  0.99400  0.05643  0.59521  1.0000
  C   C26       1.0  0.49400  0.94357  0.90479  1.0000
  C   C27       1.0  0.00600  0.94357  0.40479  1.0000
  C   C28       1.0  0.50600  0.05643  0.09521  1.0000
  C   C29       1.0  0.09585  0.13706  0.63685  1.0000
  C   C30       1.0  0.59586  0.86295  0.86315  1.0000
  C   C31       1.0  0.90415  0.86294  0.36315  1.0000
  C   C32       1.0  0.40415  0.13706  0.13685  1.0000
  C   C33       1.0  0.25990  0.06083  0.72562  1.0000
  C   C34       1.0  0.75990  0.93917  0.77438  1.0000
  C   C35       1.0  0.74010  0.93917  0.27438  1.0000
  C   C36       1.0  0.24010  0.06083  0.22562  1.0000
  C   C37       1.0  0.17358  0.07644  0.78624  1.0000
  C   C38       1.0  0.67357  0.92356  0.71376  1.0000
  C   C39       1.0  0.82642  0.92356  0.21376  1.0000
  C   C40       1.0  0.32642  0.07644  0.28624  1.0000
  C   C41       1.0  0.15757  0.94709  0.81841  1.0000
  C   C42       1.0  0.65757  0.05291  0.68159  1.0000
  C   C43       1.0  0.84243  0.05291  0.18159  1.0000
  C   C44       1.0  0.34243  0.94709  0.31841  1.0000
  C   C45       1.0  0.06882  0.95604  0.87202  1.0000
  C   C46       1.0  0.56882  0.04396  0.62798  1.0000
  C   C47       1.0  0.93118  0.04396  0.12798  1.0000
  C   C48       1.0  0.43118  0.95604  0.37202  1.0000
  C   C49       1.0  0.99588  0.09723  0.89396  1.0000
  C   C50       1.0  0.49587  0.90277  0.60604  1.0000
  C   C51       1.0  0.00413  0.90277  0.10604  1.0000
  C   C52       1.0  0.50412  0.09723  0.39396  1.0000
  C   C53       1.0  0.01481  0.22933  0.86293  1.0000
  C   C54       1.0  0.51481  0.77067  0.63707  1.0000
  C   C55       1.0  0.98519  0.77067  0.13707  1.0000
  C   C56       1.0  0.48519  0.22933  0.36293  1.0000
  C   C57       1.0  0.10396  0.21810  0.80940  1.0000
  C   C58       1.0  0.60396  0.78190  0.69060  1.0000
  C   C59       1.0  0.89604  0.78190  0.19060  1.0000
  C   C60       1.0  0.39604  0.21810  0.30940  1.0000
  C   C61       1.0  0.89991  0.10740  0.94746  1.0000
  C   C62       1.0  0.39991  0.89260  0.55255  1.0000
  C   C63       1.0  0.10008  0.89260  0.05255  1.0000
  C   C64       1.0  0.60009  0.10740  0.44746  1.0000
  N   N1        1.0  0.92193  0.63356  0.60945  1.0000
  N   N2        1.0  0.42193  0.36645  0.89055  1.0000
  N   N3        1.0  0.07807  0.36644  0.39055  1.0000
  N   N4        1.0  0.57807  0.63356  0.10945  1.0000
  N   N5        1.0  0.15281  0.03301  0.67329  1.0000
  N   N6        1.0  0.65281  0.96700  0.82671  1.0000
  N   N7        1.0  0.84719  0.96700  0.32671  1.0000
  N   N8        1.0  0.34719  0.03300  0.17329  1.0000
  N   N9        1.0  0.09242  0.88995  0.65786  1.0000
  N   N10       1.0  0.59242  0.11005  0.84214  1.0000
  N   N11       1.0  0.90758  0.11004  0.34214  1.0000
  N   N12       1.0  0.40758  0.88995  0.15786  1.0000
  N   N13       1.0  0.81851  0.11733  0.99071  1.0000
  N   N14       1.0  0.31851  0.88267  0.50929  1.0000
  N   N15       1.0  0.18149  0.88267  0.00929  1.0000
  N   N16       1.0  0.68149  0.11733  0.49071  1.0000
  N   N17       1.0  0.37152  0.46617  0.70334  1.0000
  N   N18       1.0  0.87152  0.53383  0.79666  1.0000
  N   N19       1.0  0.62848  0.53383  0.29666  1.0000
  N   N20       1.0  0.12848  0.46617  0.20334  1.0000
  O   O1        1.0  0.29098  0.46614  0.65429  1.0000
  O   O2        1.0  0.79098  0.53386  0.84571  1.0000
  O   O3        1.0  0.70902  0.53386  0.34571  1.0000
  O   O4        1.0  0.20902  0.46614  0.15429  1.0000
  O   O5        1.0  0.33231  0.55146  0.75184  1.0000
  O   O6        1.0  0.83231  0.44854  0.74816  1.0000
  O   O7        1.0  0.66769  0.44854  0.24816  1.0000
  O   O8        1.0  0.16769  0.55146  0.25184  1.0000
  O   O9        1.0  0.49139  0.37804  0.70256  1.0000
  O   O10       1.0  0.99140  0.62196  0.79744  1.0000
  O   O11       1.0  0.50860  0.62196  0.29744  1.0000
  O   O12       1.0  0.00861  0.37804  0.20256  1.0000
