data_image0
_chemical_formula_structural       Mn2H32C32N16F8
_chemical_formula_sum              "Mn2 H32 C32 N16 F8"
_cell_length_a       7.72943
_cell_length_b       11.1585
_cell_length_c       11.1483
_cell_angle_alpha    90.9068
_cell_angle_beta     79.3297
_cell_angle_gamma    79.41

_space_group_name_H-M_alt    "P 1"
_space_group_IT_number       1

loop_
  _space_group_symop_operation_xyz
  'x, y, z'

loop_
  _atom_site_type_symbol
  _atom_site_label
  _atom_site_symmetry_multiplicity
  _atom_site_fract_x
  _atom_site_fract_y
  _atom_site_fract_z
  _atom_site_occupancy
  Mn  Mn1       1.0  0.00000  0.50000  1.00000  1.0000
  Mn  Mn2       1.0  0.49999  0.00000  0.50000  1.0000
  H   H1        1.0  0.75521  0.47882  0.19434  1.0000
  H   H2        1.0  0.74544  0.80532  0.52005  1.0000
  H   H3        1.0  0.24480  0.52118  0.80566  1.0000
  H   H4        1.0  0.25456  0.19468  0.47995  1.0000
  H   H5        1.0  0.88064  0.34325  0.14584  1.0000
  H   H6        1.0  0.62075  0.85329  0.65630  1.0000
  H   H7        1.0  0.11936  0.65674  0.85416  1.0000
  H   H8        1.0  0.37924  0.14671  0.34370  1.0000
  H   H9        1.0  0.33194  0.45400  0.02514  1.0000
  H   H10       1.0  0.16586  0.97444  0.54632  1.0000
  H   H11       1.0  0.66807  0.54600  0.97486  1.0000
  H   H12       1.0  0.83414  0.02556  0.45367  1.0000
  H   H13       1.0  0.22730  0.57614  0.11254  1.0000
  H   H14       1.0  0.27278  0.88787  0.42367  1.0000
  H   H15       1.0  0.77271  0.42386  0.88745  1.0000
  H   H16       1.0  0.72722  0.11213  0.57633  1.0000
  H   H17       1.0  0.96950  0.38574  0.33086  1.0000
  H   H18       1.0  0.52952  0.66963  0.61370  1.0000
  H   H19       1.0  0.03051  0.61425  0.66913  1.0000
  H   H20       1.0  0.47048  0.33036  0.38630  1.0000
  H   H21       1.0  0.96161  0.53990  0.29109  1.0000
  H   H22       1.0  0.53810  0.70969  0.45948  1.0000
  H   H23       1.0  0.03840  0.46010  0.70891  1.0000
  H   H24       1.0  0.46190  0.29031  0.54052  1.0000
  H   H25       1.0  0.28110  0.42861  0.25460  1.0000
  H   H26       1.0  0.21875  0.74599  0.57128  1.0000
  H   H27       1.0  0.71891  0.57139  0.74539  1.0000
  H   H28       1.0  0.78125  0.25401  0.42872  1.0000
  H   H29       1.0  0.22769  0.31813  0.15758  1.0000
  H   H30       1.0  0.27217  0.84284  0.68176  1.0000
  H   H31       1.0  0.77232  0.68187  0.84242  1.0000
  H   H32       1.0  0.72783  0.15716  0.31823  1.0000
  C   C1        1.0  0.24872  0.11458  0.88537  1.0000
  C   C2        1.0  0.75127  0.88541  0.11462  1.0000
  C   C3        1.0  0.15123  0.04401  0.09784  1.0000
  C   C4        1.0  0.34983  0.90254  0.95544  1.0000
  C   C5        1.0  0.84876  0.95599  0.90216  1.0000
  C   C6        1.0  0.65015  0.09747  0.04457  1.0000
  C   C7        1.0  0.25067  0.83726  0.16221  1.0000
  C   C8        1.0  0.74933  0.16276  0.83780  1.0000
  C   C9        1.0  0.25013  0.02279  0.97718  1.0000
  C   C10       1.0  0.74986  0.97721  0.02282  1.0000
  C   C11       1.0  0.15566  0.95752  0.18549  1.0000
  C   C12       1.0  0.34580  0.81460  0.04174  1.0000
  C   C13       1.0  0.84433  0.04250  0.81452  1.0000
  C   C14       1.0  0.65421  0.18541  0.95828  1.0000
  C   C15       1.0  0.25055  0.74511  0.25428  1.0000
  C   C16       1.0  0.74946  0.25491  0.74574  1.0000
  C   C17       1.0  0.16220  0.23546  0.91425  1.0000
  C   C18       1.0  0.33334  0.08613  0.76375  1.0000
  C   C19       1.0  0.83779  0.76454  0.08574  1.0000
  C   C20       1.0  0.66666  0.91386  0.23624  1.0000
  C   C21       1.0  0.10030  0.74408  0.34579  1.0000
  C   C22       1.0  0.40114  0.65421  0.25524  1.0000
  C   C23       1.0  0.89970  0.25593  0.65422  1.0000
  C   C24       1.0  0.59886  0.34580  0.74478  1.0000
  C   C25       1.0  0.99634  0.44486  0.25410  1.0000
  C   C26       1.0  0.50341  0.74654  0.55463  1.0000
  C   C27       1.0  0.00366  0.55514  0.74589  1.0000
  C   C28       1.0  0.49659  0.25346  0.44537  1.0000
  C   C29       1.0  0.19206  0.41390  0.19170  1.0000
  C   C30       1.0  0.30776  0.80900  0.58581  1.0000
  C   C31       1.0  0.80794  0.58610  0.80829  1.0000
  C   C32       1.0  0.69224  0.19100  0.41419  1.0000
  N   N1        1.0  0.09008  0.33831  0.93950  1.0000
  N   N2        1.0  0.40332  0.06236  0.66011  1.0000
  N   N3        1.0  0.90994  0.66169  0.06049  1.0000
  N   N4        1.0  0.59668  0.93763  0.33988  1.0000
  N   N5        1.0  0.88484  0.43311  0.16110  1.0000
  N   N6        1.0  0.61613  0.83868  0.56626  1.0000
  N   N7        1.0  0.11516  0.56689  0.83889  1.0000
  N   N8        1.0  0.38387  0.16132  0.43374  1.0000
  N   N9        1.0  0.21594  0.49056  0.08442  1.0000
  N   N10       1.0  0.28285  0.91638  0.50950  1.0000
  N   N11       1.0  0.78407  0.50944  0.91557  1.0000
  N   N12       1.0  0.71715  0.08362  0.49050  1.0000
  N   N13       1.0  0.97662  0.74272  0.42496  1.0000
  N   N14       1.0  0.52545  0.57572  0.25663  1.0000
  N   N15       1.0  0.02336  0.25728  0.57504  1.0000
  N   N16       1.0  0.47456  0.42427  0.74338  1.0000
  F   F1        1.0  0.06320  0.99398  0.30116  1.0000
  F   F2        1.0  0.43862  0.69928  0.00489  1.0000
  F   F3        1.0  0.93680  0.00604  0.69885  1.0000
  F   F4        1.0  0.56138  0.30072  0.99513  1.0000
  F   F5        1.0  0.04580  0.15559  0.13476  1.0000
  F   F6        1.0  0.45617  0.86644  0.84377  1.0000
  F   F7        1.0  0.95419  0.84441  0.86524  1.0000
  F   F8        1.0  0.54382  0.13355  0.15624  1.0000
