data_image0
_chemical_formula_structural       Zn2H38C50N6O12
_chemical_formula_sum              "Zn2 H38 C50 N6 O12"
_cell_length_a       8.62956
_cell_length_b       10.1743
_cell_length_c       14.0421
_cell_angle_alpha    72.749
_cell_angle_beta     72.3046
_cell_angle_gamma    89.2656

_space_group_name_H-M_alt    "P 1"
_space_group_IT_number       1

loop_
  _space_group_symop_operation_xyz
  'x, y, z'

loop_
  _atom_site_type_symbol
  _atom_site_label
  _atom_site_symmetry_multiplicity
  _atom_site_fract_x
  _atom_site_fract_y
  _atom_site_fract_z
  _atom_site_occupancy
  Zn  Zn1       1.0  0.53453  0.73260  0.50835  1.0000
  Zn  Zn2       1.0  0.46547  0.26740  0.49165  1.0000
  H   H1        1.0  0.63770  0.97276  0.54934  1.0000
  H   H2        1.0  0.36230  0.02724  0.45066  1.0000
  H   H3        1.0  0.62906  0.83518  0.64264  1.0000
  H   H4        1.0  0.37094  0.16482  0.35736  1.0000
  H   H5        1.0  0.04243  0.36332  0.65872  1.0000
  H   H6        1.0  0.95757  0.63668  0.34128  1.0000
  H   H7        1.0  0.74994  0.68275  0.74504  1.0000
  H   H8        1.0  0.25006  0.31725  0.25496  1.0000
  H   H9        1.0  0.94473  0.85911  0.59756  1.0000
  H   H10       1.0  0.05527  0.14090  0.40244  1.0000
  H   H11       1.0  0.74693  0.53901  0.89509  1.0000
  H   H12       1.0  0.25307  0.46099  0.10491  1.0000
  H   H13       1.0  0.53925  0.37967  0.04825  1.0000
  H   H14       1.0  0.46074  0.62032  0.95175  1.0000
  H   H15       1.0  0.59810  0.08671  0.87159  1.0000
  H   H16       1.0  0.40190  0.91330  0.12841  1.0000
  H   H17       1.0  0.79394  0.26176  0.72178  1.0000
  H   H18       1.0  0.20606  0.73825  0.27822  1.0000
  H   H19       1.0  0.30474  0.83100  0.66943  1.0000
  H   H20       1.0  0.69526  0.16901  0.33058  1.0000
  H   H21       1.0  0.10801  0.74355  0.84887  1.0000
  H   H22       1.0  0.89199  0.25645  0.15113  1.0000
  H   H23       1.0  0.28492  0.33984  0.86318  1.0000
  H   H24       1.0  0.71508  0.66016  0.13682  1.0000
  H   H25       1.0  0.47438  0.44666  0.67972  1.0000
  H   H26       1.0  0.52562  0.55334  0.32028  1.0000
  H   H27       1.0  0.06492  0.35638  0.00709  1.0000
  H   H28       1.0  0.93508  0.64362  0.99291  1.0000
  H   H29       1.0  0.49777  0.84018  0.28931  1.0000
  H   H30       1.0  0.50222  0.15982  0.71069  1.0000
  H   H31       1.0  0.67888  0.93214  0.10460  1.0000
  H   H32       1.0  0.32112  0.06786  0.89540  1.0000
  H   H33       1.0  0.07394  0.96924  0.22871  1.0000
  H   H34       1.0  0.92605  0.03077  0.77129  1.0000
  H   H35       1.0  0.87726  0.87011  0.40709  1.0000
  H   H36       1.0  0.12274  0.12989  0.59291  1.0000
  H   H37       1.0  0.13692  0.03454  0.04125  1.0000
  H   H38       1.0  0.86308  0.96546  0.95875  1.0000
  C   C1        1.0  0.22194  0.82797  0.46223  1.0000
  C   C2        1.0  0.77806  0.17203  0.53777  1.0000
  C   C3        1.0  0.28168  0.52484  0.49872  1.0000
  C   C4        1.0  0.71832  0.47516  0.50128  1.0000
  C   C5        1.0  0.10619  0.71194  0.54661  1.0000
  C   C6        1.0  0.89381  0.28806  0.45339  1.0000
  C   C7        1.0  0.13105  0.57117  0.56375  1.0000
  C   C8        1.0  0.86895  0.42883  0.43625  1.0000
  C   C9        1.0  0.01876  0.47148  0.64646  1.0000
  C   C10       1.0  0.98124  0.52852  0.35353  1.0000
  C   C11       1.0  0.88401  0.51135  0.71286  1.0000
  C   C12       1.0  0.11600  0.48865  0.28714  1.0000
  C   C13       1.0  0.85732  0.65135  0.69471  1.0000
  C   C14       1.0  0.14268  0.34865  0.30529  1.0000
  C   C15       1.0  0.96737  0.75035  0.61184  1.0000
  C   C16       1.0  0.03263  0.24965  0.38816  1.0000
  C   C17       1.0  0.70323  0.44043  0.89305  1.0000
  C   C18       1.0  0.29677  0.55957  0.10695  1.0000
  C   C19       1.0  0.58921  0.35141  0.97661  1.0000
  C   C20       1.0  0.41079  0.64858  0.02339  1.0000
  C   C21       1.0  0.53000  0.22181  0.97148  1.0000
  C   C22       1.0  0.47000  0.77819  0.02851  1.0000
  C   C23       1.0  0.62168  0.18869  0.87732  1.0000
  C   C24       1.0  0.37832  0.81131  0.12268  1.0000
  C   C25       1.0  0.73359  0.28261  0.79554  1.0000
  C   C26       1.0  0.26641  0.71739  0.20446  1.0000
  C   C27       1.0  0.29660  0.72316  0.71616  1.0000
  C   C28       1.0  0.70341  0.27685  0.28384  1.0000
  C   C29       1.0  0.18654  0.67273  0.81607  1.0000
  C   C30       1.0  0.81346  0.32727  0.18393  1.0000
  C   C31       1.0  0.17642  0.53130  0.87148  1.0000
  C   C32       1.0  0.82359  0.46870  0.12852  1.0000
  C   C33       1.0  0.28578  0.44954  0.82301  1.0000
  C   C34       1.0  0.71422  0.55046  0.17699  1.0000
  C   C35       1.0  0.39264  0.50781  0.72221  1.0000
  C   C36       1.0  0.60736  0.49219  0.27779  1.0000
  C   C37       1.0  0.05772  0.46705  0.97357  1.0000
  C   C38       1.0  0.94228  0.53295  0.02643  1.0000
  C   C39       1.0  0.62688  0.86894  0.27170  1.0000
  C   C40       1.0  0.37312  0.13106  0.72830  1.0000
  C   C41       1.0  0.72908  0.92035  0.16889  1.0000
  C   C42       1.0  0.27091  0.07965  0.83111  1.0000
  C   C43       1.0  0.89582  0.95525  0.14938  1.0000
  C   C44       1.0  0.10417  0.04475  0.85062  1.0000
  C   C45       1.0  0.94761  0.94161  0.23749  1.0000
  C   C46       1.0  0.05238  0.05840  0.76250  1.0000
  C   C47       1.0  0.83783  0.88715  0.33804  1.0000
  C   C48       1.0  0.16217  0.11285  0.66196  1.0000
  C   C49       1.0  0.01495  0.00056  0.04453  1.0000
  C   C50       1.0  0.98504  0.99944  0.95547  1.0000
  N   N1        1.0  0.77272  0.41052  0.80076  1.0000
  N   N2        1.0  0.22728  0.58948  0.19924  1.0000
  N   N3        1.0  0.39631  0.64206  0.66880  1.0000
  N   N4        1.0  0.60369  0.35794  0.33120  1.0000
  N   N5        1.0  0.68011  0.84946  0.35543  1.0000
  N   N6        1.0  0.31989  0.15053  0.64457  1.0000
  O   O1        1.0  0.34009  0.87042  0.48829  1.0000
  O   O2        1.0  0.65991  0.12958  0.51171  1.0000
  O   O3        1.0  0.19147  0.88362  0.37873  1.0000
  O   O4        1.0  0.80854  0.11638  0.62127  1.0000
  O   O5        1.0  0.40487  0.61300  0.44751  1.0000
  O   O6        1.0  0.59513  0.38700  0.55249  1.0000
  O   O7        1.0  0.27642  0.40000  0.49899  1.0000
  O   O8        1.0  0.72358  0.60000  0.50101  1.0000
  O   O9        1.0  0.40843  0.14708  0.04150  1.0000
  O   O10       1.0  0.59157  0.85291  0.95849  1.0000
  O   O11       1.0  0.63961  0.86761  0.56853  1.0000
  O   O12       1.0  0.36039  0.13239  0.43147  1.0000
