data_image0
_chemical_formula_structural       Zn2H32C64N16F8
_chemical_formula_sum              "Zn2 H32 C64 N16 F8"
_cell_length_a       8.21746
_cell_length_b       13.9644
_cell_length_c       14.16
_cell_angle_alpha    64.3145
_cell_angle_beta     88.7948
_cell_angle_gamma    88.1068

_space_group_name_H-M_alt    "P 1"
_space_group_IT_number       1

loop_
  _space_group_symop_operation_xyz
  'x, y, z'

loop_
  _atom_site_type_symbol
  _atom_site_label
  _atom_site_symmetry_multiplicity
  _atom_site_fract_x
  _atom_site_fract_y
  _atom_site_fract_z
  _atom_site_occupancy
  Zn  Zn1       1.0  0.77283  0.74642  0.25158  1.0000
  Zn  Zn2       1.0  0.22717  0.25358  0.74842  1.0000
  H   H1        1.0  0.43490  0.77334  0.34005  1.0000
  H   H2        1.0  0.56509  0.22666  0.65995  1.0000
  H   H3        1.0  0.47109  0.71591  0.12701  1.0000
  H   H4        1.0  0.52891  0.28409  0.87299  1.0000
  H   H5        1.0  0.11091  0.82881  0.27568  1.0000
  H   H6        1.0  0.88909  0.17119  0.72432  1.0000
  H   H7        1.0  0.44672  0.40098  0.39673  1.0000
  H   H8        1.0  0.55328  0.59902  0.60328  1.0000
  H   H9        1.0  0.91680  0.82683  0.86799  1.0000
  H   H10       1.0  0.08320  0.17317  0.13201  1.0000
  H   H11       1.0  0.08233  0.61365  0.22006  1.0000
  H   H12       1.0  0.91767  0.38634  0.77995  1.0000
  H   H13       1.0  0.34574  0.92347  0.15997  1.0000
  H   H14       1.0  0.65426  0.07653  0.84003  1.0000
  H   H15       1.0  0.65738  0.77011  0.82129  1.0000
  H   H16       1.0  0.34262  0.22989  0.17871  1.0000
  H   H17       1.0  0.08997  0.91263  0.90190  1.0000
  H   H18       1.0  0.91003  0.08737  0.09810  1.0000
  H   H19       1.0  0.90757  0.30392  0.28018  1.0000
  H   H20       1.0  0.09243  0.69608  0.71982  1.0000
  H   H21       1.0  0.64234  0.35641  0.33260  1.0000
  H   H22       1.0  0.35766  0.64359  0.66740  1.0000
  H   H23       1.0  0.33014  0.96828  0.96701  1.0000
  H   H24       1.0  0.66985  0.03172  0.03299  1.0000
  H   H25       1.0  0.20153  0.47041  0.45465  1.0000
  H   H26       1.0  0.79848  0.52959  0.54535  1.0000
  H   H27       1.0  0.19181  0.66183  0.42561  1.0000
  H   H28       1.0  0.80819  0.33817  0.57439  1.0000
  H   H29       1.0  0.42741  0.71582  0.95177  1.0000
  H   H30       1.0  0.57259  0.28418  0.04823  1.0000
  H   H31       1.0  0.13729  0.43283  0.22645  1.0000
  H   H32       1.0  0.86271  0.56717  0.77356  1.0000
  C   C1        1.0  0.64552  0.96054  0.26185  1.0000
  C   C2        1.0  0.35448  0.03946  0.73815  1.0000
  C   C3        1.0  0.91991  0.90376  0.51082  1.0000
  C   C4        1.0  0.08008  0.09624  0.48918  1.0000
  C   C5        1.0  0.97493  0.83966  0.05451  1.0000
  C   C6        1.0  0.02507  0.16034  0.94549  1.0000
  C   C7        1.0  0.00084  0.97187  0.41901  1.0000
  C   C8        1.0  0.99916  0.02813  0.58099  1.0000
  C   C9        1.0  0.63792  0.04081  0.29467  1.0000
  C   C10       1.0  0.36208  0.95919  0.70533  1.0000
  C   C11       1.0  0.72528  0.75687  0.60314  1.0000
  C   C12       1.0  0.27472  0.24313  0.39686  1.0000
  C   C13       1.0  0.72174  0.13337  0.23184  1.0000
  C   C14       1.0  0.27826  0.86664  0.76816  1.0000
  C   C15       1.0  0.61115  0.07793  0.45349  1.0000
  C   C16       1.0  0.38886  0.92207  0.54651  1.0000
  C   C17       1.0  0.83821  0.80814  0.52221  1.0000
  C   C18       1.0  0.16179  0.19186  0.47779  1.0000
  C   C19       1.0  0.86328  0.76311  0.45310  1.0000
  C   C20       1.0  0.13673  0.23689  0.54690  1.0000
  C   C21       1.0  0.82742  0.80443  0.02126  1.0000
  C   C22       1.0  0.17258  0.19557  0.97874  1.0000
  C   C23       1.0  0.43150  0.69031  0.35460  1.0000
  C   C24       1.0  0.56849  0.30969  0.64540  1.0000
  C   C25       1.0  0.56635  0.74070  0.06692  1.0000
  C   C26       1.0  0.43366  0.25930  0.93308  1.0000
  C   C27       1.0  0.11280  0.84821  0.19250  1.0000
  C   C28       1.0  0.88720  0.15179  0.80750  1.0000
  C   C29       1.0  0.57118  0.54990  0.33932  1.0000
  C   C30       1.0  0.42881  0.45010  0.66068  1.0000
  C   C31       1.0  0.55097  0.05438  0.55305  1.0000
  C   C32       1.0  0.44903  0.94562  0.44695  1.0000
  C   C33       1.0  0.44084  0.48289  0.38595  1.0000
  C   C34       1.0  0.55916  0.51711  0.61405  1.0000
  C   C35       1.0  0.81459  0.80430  0.92283  1.0000
  C   C36       1.0  0.18541  0.19570  0.07717  1.0000
  C   C37       1.0  0.98849  0.55389  0.24552  1.0000
  C   C38       1.0  0.01151  0.44611  0.75449  1.0000
  C   C39       1.0  0.56502  0.02327  0.39564  1.0000
  C   C40       1.0  0.43498  0.97673  0.60436  1.0000
  C   C41       1.0  0.92343  0.93693  0.59121  1.0000
  C   C42       1.0  0.07657  0.06307  0.40879  1.0000
  C   C43       1.0  0.72378  0.51275  0.30650  1.0000
  C   C44       1.0  0.27622  0.48725  0.69350  1.0000
  C   C45       1.0  0.24190  0.90145  0.12762  1.0000
  C   C46       1.0  0.75810  0.09855  0.87238  1.0000
  C   C47       1.0  0.67029  0.77151  0.89717  1.0000
  C   C48       1.0  0.32971  0.22849  0.10283  1.0000
  C   C49       1.0  0.09902  0.89422  0.98442  1.0000
  C   C50       1.0  0.90098  0.10578  0.01558  1.0000
  C   C51       1.0  0.89187  0.38182  0.27992  1.0000
  C   C52       1.0  0.10813  0.61818  0.72008  1.0000
  C   C53       1.0  0.74266  0.41130  0.30963  1.0000
  C   C54       1.0  0.25734  0.58870  0.69037  1.0000
  C   C55       1.0  0.23380  0.92501  0.02144  1.0000
  C   C56       1.0  0.76619  0.07499  0.97856  1.0000
  C   C57       1.0  0.30295  0.52237  0.41743  1.0000
  C   C58       1.0  0.69704  0.47763  0.58257  1.0000
  C   C59       1.0  0.29777  0.62811  0.40206  1.0000
  C   C60       1.0  0.70223  0.37189  0.59794  1.0000
  C   C61       1.0  0.54293  0.73974  0.97018  1.0000
  C   C62       1.0  0.45707  0.26026  0.02982  1.0000
  C   C63       1.0  0.01808  0.45389  0.24817  1.0000
  C   C64       1.0  0.98192  0.54611  0.75183  1.0000
  N   N1        1.0  0.98298  0.81819  0.15712  1.0000
  N   N2        1.0  0.01702  0.18181  0.84288  1.0000
  N   N3        1.0  0.88361  0.72230  0.39568  1.0000
  N   N4        1.0  0.11640  0.27770  0.60431  1.0000
  N   N5        1.0  0.70479  0.77167  0.09225  1.0000
  N   N6        1.0  0.29522  0.22833  0.90775  1.0000
  N   N7        1.0  0.79281  0.20942  0.17621  1.0000
  N   N8        1.0  0.20719  0.79058  0.82378  1.0000
  N   N9        1.0  0.84543  0.58288  0.27357  1.0000
  N   N10       1.0  0.15457  0.41711  0.72643  1.0000
  N   N11       1.0  0.56432  0.65249  0.32392  1.0000
  N   N12       1.0  0.43568  0.34751  0.67608  1.0000
  N   N13       1.0  0.65156  0.89266  0.23294  1.0000
  N   N14       1.0  0.34844  0.10735  0.76706  1.0000
  N   N15       1.0  0.62997  0.71188  0.66972  1.0000
  N   N16       1.0  0.37003  0.28811  0.33028  1.0000
  F   F1        1.0  0.72382  0.15471  0.41380  1.0000
  F   F2        1.0  0.27618  0.84530  0.58619  1.0000
  F   F3        1.0  0.00637  0.94965  0.33426  1.0000
  F   F4        1.0  0.99363  0.05036  0.66574  1.0000
  F   F5        1.0  0.85204  0.87708  0.68519  1.0000
  F   F6        1.0  0.14796  0.12292  0.31481  1.0000
  F   F7        1.0  0.61340  0.10908  0.60347  1.0000
  F   F8        1.0  0.38661  0.89092  0.39653  1.0000
