data_image0
_chemical_formula_structural       Ag16H8C40O32
_chemical_formula_sum              "Ag16 H8 C40 O32"
_cell_length_a       6.38481
_cell_length_b       11.8327
_cell_length_c       14.5723
_cell_angle_alpha    89.9996
_cell_angle_beta     89.999
_cell_angle_gamma    89.9998

_space_group_name_H-M_alt    "P 1"
_space_group_IT_number       1

loop_
  _space_group_symop_operation_xyz
  'x, y, z'

loop_
  _atom_site_type_symbol
  _atom_site_label
  _atom_site_symmetry_multiplicity
  _atom_site_fract_x
  _atom_site_fract_y
  _atom_site_fract_z
  _atom_site_occupancy
  Ag  Ag1       1.0  0.11437  0.94739  0.53144  1.0000
  Ag  Ag2       1.0  0.88563  0.44740  0.46856  1.0000
  Ag  Ag3       1.0  0.61435  0.44739  0.96855  1.0000
  Ag  Ag4       1.0  0.38564  0.94739  0.03145  1.0000
  Ag  Ag5       1.0  0.41347  0.65496  0.50205  1.0000
  Ag  Ag6       1.0  0.58654  0.15496  0.49796  1.0000
  Ag  Ag7       1.0  0.91346  0.15495  0.99795  1.0000
  Ag  Ag8       1.0  0.08654  0.65495  0.00205  1.0000
  Ag  Ag9       1.0  0.46739  0.47777  0.34668  1.0000
  Ag  Ag10      1.0  0.53261  0.97778  0.65332  1.0000
  Ag  Ag11      1.0  0.96739  0.97778  0.15332  1.0000
  Ag  Ag12      1.0  0.03261  0.47778  0.84668  1.0000
  Ag  Ag13      1.0  0.49669  0.55001  0.16193  1.0000
  Ag  Ag14      1.0  0.50330  0.05002  0.83807  1.0000
  Ag  Ag15      1.0  0.99669  0.05002  0.33807  1.0000
  Ag  Ag16      1.0  0.00331  0.55002  0.66193  1.0000
  H   H1        1.0  0.55475  0.80338  0.14022  1.0000
  H   H2        1.0  0.44526  0.30338  0.85978  1.0000
  H   H3        1.0  0.05473  0.30338  0.35977  1.0000
  H   H4        1.0  0.94525  0.80339  0.64023  1.0000
  H   H5        1.0  0.88710  0.69423  0.14315  1.0000
  H   H6        1.0  0.11291  0.19423  0.85686  1.0000
  H   H7        1.0  0.38709  0.19424  0.35685  1.0000
  H   H8        1.0  0.61290  0.69425  0.64314  1.0000
  C   C1        1.0  0.56060  0.84114  0.28440  1.0000
  C   C2        1.0  0.43940  0.34113  0.71560  1.0000
  C   C3        1.0  0.06058  0.34112  0.21560  1.0000
  C   C4        1.0  0.93940  0.84113  0.78440  1.0000
  C   C5        1.0  0.63965  0.79203  0.20420  1.0000
  C   C6        1.0  0.36036  0.29202  0.79580  1.0000
  C   C7        1.0  0.13964  0.29203  0.29579  1.0000
  C   C8        1.0  0.86035  0.79204  0.70420  1.0000
  C   C9        1.0  0.82173  0.72819  0.20627  1.0000
  C   C10       1.0  0.17830  0.22819  0.79373  1.0000
  C   C11       1.0  0.32172  0.22818  0.29372  1.0000
  C   C12       1.0  0.67828  0.72819  0.70627  1.0000
  C   C13       1.0  0.92207  0.70379  0.28935  1.0000
  C   C14       1.0  0.07793  0.20378  0.71066  1.0000
  C   C15       1.0  0.42206  0.20378  0.21065  1.0000
  C   C16       1.0  0.57794  0.70379  0.78934  1.0000
  C   C17       1.0  0.83687  0.74591  0.37148  1.0000
  C   C18       1.0  0.16315  0.24589  0.62853  1.0000
  C   C19       1.0  0.33685  0.24589  0.12852  1.0000
  C   C20       1.0  0.66314  0.74590  0.87147  1.0000
  C   C21       1.0  0.66425  0.82058  0.36812  1.0000
  C   C22       1.0  0.33575  0.32057  0.63188  1.0000
  C   C23       1.0  0.16422  0.32056  0.13187  1.0000
  C   C24       1.0  0.83577  0.82057  0.86812  1.0000
  C   C25       1.0  0.11941  0.63517  0.28448  1.0000
  C   C26       1.0  0.88060  0.13517  0.71553  1.0000
  C   C27       1.0  0.61941  0.13517  0.21552  1.0000
  C   C28       1.0  0.38059  0.63517  0.78448  1.0000
  C   C29       1.0  0.92053  0.71064  0.46404  1.0000
  C   C30       1.0  0.07949  0.21064  0.53596  1.0000
  C   C31       1.0  0.42053  0.21063  0.03596  1.0000
  C   C32       1.0  0.57948  0.71063  0.96404  1.0000
  C   C33       1.0  0.61449  0.88652  0.45382  1.0000
  C   C34       1.0  0.38551  0.38652  0.54618  1.0000
  C   C35       1.0  0.11449  0.38652  0.04617  1.0000
  C   C36       1.0  0.88550  0.88651  0.95383  1.0000
  C   C37       1.0  0.36238  0.90873  0.27750  1.0000
  C   C38       1.0  0.63762  0.40873  0.72250  1.0000
  C   C39       1.0  0.86238  0.40873  0.22249  1.0000
  C   C40       1.0  0.13761  0.90873  0.77751  1.0000
  O   O1        1.0  0.21038  0.63467  0.20722  1.0000
  O   O2        1.0  0.78963  0.13467  0.79278  1.0000
  O   O3        1.0  0.71038  0.13467  0.29278  1.0000
  O   O4        1.0  0.28962  0.63467  0.70722  1.0000
  O   O5        1.0  0.17937  0.58338  0.35704  1.0000
  O   O6        1.0  0.82063  0.08338  0.64296  1.0000
  O   O7        1.0  0.67935  0.08337  0.14295  1.0000
  O   O8        1.0  0.32065  0.58338  0.85705  1.0000
  O   O9        1.0  0.07153  0.76279  0.50101  1.0000
  O   O10       1.0  0.92851  0.26278  0.49899  1.0000
  O   O11       1.0  0.57152  0.26279  0.99899  1.0000
  O   O12       1.0  0.42850  0.76278  0.00101  1.0000
  O   O13       1.0  0.82455  0.62852  0.50308  1.0000
  O   O14       1.0  0.17546  0.12852  0.49692  1.0000
  O   O15       1.0  0.32455  0.12852  0.99690  1.0000
  O   O16       1.0  0.67547  0.62851  0.00309  1.0000
  O   O17       1.0  0.50871  0.84193  0.51853  1.0000
  O   O18       1.0  0.49129  0.34192  0.48147  1.0000
  O   O19       1.0  0.00873  0.34191  0.98146  1.0000
  O   O20       1.0  0.99127  0.84192  0.01853  1.0000
  O   O21       1.0  0.70186  0.98291  0.45880  1.0000
  O   O22       1.0  0.29813  0.48290  0.54121  1.0000
  O   O23       1.0  0.20187  0.48288  0.04120  1.0000
  O   O24       1.0  0.79812  0.98289  0.95880  1.0000
  O   O25       1.0  0.28532  0.94862  0.35111  1.0000
  O   O26       1.0  0.71467  0.44861  0.64889  1.0000
  O   O27       1.0  0.78530  0.44859  0.14888  1.0000
  O   O28       1.0  0.21467  0.94861  0.85111  1.0000
  O   O29       1.0  0.28220  0.91907  0.19759  1.0000
  O   O30       1.0  0.71780  0.41907  0.80241  1.0000
  O   O31       1.0  0.78221  0.41907  0.30241  1.0000
  O   O32       1.0  0.21779  0.91907  0.69759  1.0000
