data_image0
_chemical_formula_structural       Ba2NiH14C6O16
_chemical_formula_sum              "Ba2 Ni1 H14 C6 O16"
_cell_length_a       6.89161
_cell_length_b       7.17652
_cell_length_c       8.85234
_cell_angle_alpha    82.1547
_cell_angle_beta     71.1769
_cell_angle_gamma    80.2444

_space_group_name_H-M_alt    "P 1"
_space_group_IT_number       1

loop_
  _space_group_symop_operation_xyz
  'x, y, z'

loop_
  _atom_site_type_symbol
  _atom_site_label
  _atom_site_symmetry_multiplicity
  _atom_site_fract_x
  _atom_site_fract_y
  _atom_site_fract_z
  _atom_site_occupancy
  Ba  Ba1       1.0  0.09406  0.73398  0.35498  1.0000
  Ba  Ba2       1.0  0.90594  0.26603  0.64502  1.0000
  Ni  Ni1       1.0  1.00000  1.00000  0.00000  1.0000
  H   H1        1.0  0.59548  0.89094  0.06566  1.0000
  H   H2        1.0  0.40452  0.10907  0.93434  1.0000
  H   H3        1.0  0.01386  0.36901  0.09184  1.0000
  H   H4        1.0  0.98614  0.63099  0.90816  1.0000
  H   H5        1.0  0.47456  0.38051  0.11105  1.0000
  H   H6        1.0  0.52544  0.61949  0.88895  1.0000
  H   H7        1.0  0.34785  0.05319  0.42224  1.0000
  H   H8        1.0  0.65215  0.94681  0.57776  1.0000
  H   H9        1.0  0.30109  0.92785  0.58987  1.0000
  H   H10       1.0  0.69891  0.07215  0.41013  1.0000
  H   H11       1.0  0.39020  0.34741  0.42046  1.0000
  H   H12       1.0  0.60980  0.65260  0.57954  1.0000
  H   H13       1.0  0.35529  0.40244  0.59470  1.0000
  H   H14       1.0  0.64471  0.59756  0.40530  1.0000
  C   C1        1.0  0.65177  0.79775  0.15770  1.0000
  C   C2        1.0  0.34823  0.20225  0.84230  1.0000
  C   C3        1.0  0.05116  0.27527  0.19195  1.0000
  C   C4        1.0  0.94884  0.72474  0.80805  1.0000
  C   C5        1.0  0.59319  0.26468  0.13427  1.0000
  C   C6        1.0  0.40681  0.73532  0.86573  1.0000
  O   O1        1.0  0.83354  0.81206  0.15964  1.0000
  O   O2        1.0  0.16646  0.18794  0.84036  1.0000
  O   O3        1.0  0.53591  0.68546  0.25129  1.0000
  O   O4        1.0  0.46409  0.31453  0.74870  1.0000
  O   O5        1.0  0.07295  0.35015  0.30464  1.0000
  O   O6        1.0  0.92705  0.64985  0.69537  1.0000
  O   O7        1.0  0.07023  0.09600  0.18215  1.0000
  O   O8        1.0  0.92977  0.90400  0.81785  1.0000
  O   O9        1.0  0.74290  0.21708  0.01204  1.0000
  O   O10       1.0  0.25710  0.78292  0.98796  1.0000
  O   O11       1.0  0.56427  0.19500  0.27857  1.0000
  O   O12       1.0  0.43573  0.80499  0.72143  1.0000
  O   O13       1.0  0.24274  0.98418  0.50225  1.0000
  O   O14       1.0  0.75726  0.01582  0.49775  1.0000
  O   O15       1.0  0.29041  0.42043  0.50723  1.0000
  O   O16       1.0  0.70959  0.57957  0.49277  1.0000
