data_image0
_chemical_formula_structural       Ba2CoH14C6O16
_chemical_formula_sum              "Ba2 Co1 H14 C6 O16"
_cell_length_a       6.90041
_cell_length_b       7.14144
_cell_length_c       8.73846
_cell_angle_alpha    82.3913
_cell_angle_beta     71.2491
_cell_angle_gamma    81.3388

_space_group_name_H-M_alt    "P 1"
_space_group_IT_number       1

loop_
  _space_group_symop_operation_xyz
  'x, y, z'

loop_
  _atom_site_type_symbol
  _atom_site_label
  _atom_site_symmetry_multiplicity
  _atom_site_fract_x
  _atom_site_fract_y
  _atom_site_fract_z
  _atom_site_occupancy
  Ba  Ba1       1.0  0.09735  0.73499  0.35211  1.0000
  Ba  Ba2       1.0  0.90265  0.26501  0.64789  1.0000
  Co  Co1       1.0  1.00000  1.00000  0.00000  1.0000
  H   H1        1.0  0.59496  0.89981  0.06478  1.0000
  H   H2        1.0  0.40504  0.10019  0.93522  1.0000
  H   H3        1.0  0.01229  0.37076  0.08564  1.0000
  H   H4        1.0  0.98771  0.62924  0.91436  1.0000
  H   H5        1.0  0.46735  0.38732  0.11418  1.0000
  H   H6        1.0  0.53265  0.61268  0.88581  1.0000
  H   H7        1.0  0.34894  0.05723  0.42405  1.0000
  H   H8        1.0  0.65106  0.94277  0.57595  1.0000
  H   H9        1.0  0.30124  0.92684  0.59133  1.0000
  H   H10       1.0  0.69876  0.07316  0.40867  1.0000
  H   H11       1.0  0.38538  0.34989  0.42070  1.0000
  H   H12       1.0  0.61463  0.65011  0.57930  1.0000
  H   H13       1.0  0.35010  0.40519  0.59678  1.0000
  H   H14       1.0  0.64990  0.59480  0.40321  1.0000
  C   C1        1.0  0.65279  0.80559  0.15557  1.0000
  C   C2        1.0  0.34721  0.19441  0.84443  1.0000
  C   C3        1.0  0.04728  0.27597  0.18661  1.0000
  C   C4        1.0  0.95272  0.72403  0.81339  1.0000
  C   C5        1.0  0.58606  0.27197  0.13476  1.0000
  C   C6        1.0  0.41394  0.72803  0.86524  1.0000
  O   O1        1.0  0.83606  0.82224  0.15502  1.0000
  O   O2        1.0  0.16394  0.17777  0.84498  1.0000
  O   O3        1.0  0.54004  0.68982  0.25087  1.0000
  O   O4        1.0  0.45995  0.31019  0.74913  1.0000
  O   O5        1.0  0.07098  0.34681  0.30226  1.0000
  O   O6        1.0  0.92902  0.65319  0.69775  1.0000
  O   O7        1.0  0.06231  0.09591  0.17487  1.0000
  O   O8        1.0  0.93769  0.90409  0.82513  1.0000
  O   O9        1.0  0.73379  0.22625  0.01081  1.0000
  O   O10       1.0  0.26621  0.77376  0.98918  1.0000
  O   O11       1.0  0.55819  0.19970  0.28083  1.0000
  O   O12       1.0  0.44180  0.80030  0.71917  1.0000
  O   O13       1.0  0.24301  0.98606  0.50373  1.0000
  O   O14       1.0  0.75699  0.01394  0.49626  1.0000
  O   O15       1.0  0.28623  0.42394  0.50779  1.0000
  O   O16       1.0  0.71377  0.57606  0.49221  1.0000
