data_image0
_chemical_formula_structural       Ba2ZnH14C6O16
_chemical_formula_sum              "Ba2 Zn1 H14 C6 O16"
_cell_length_a       6.88898
_cell_length_b       7.19108
_cell_length_c       8.95994
_cell_angle_alpha    82.2113
_cell_angle_beta     71.3521
_cell_angle_gamma    79.9369

_space_group_name_H-M_alt    "P 1"
_space_group_IT_number       1

loop_
  _space_group_symop_operation_xyz
  'x, y, z'

loop_
  _atom_site_type_symbol
  _atom_site_label
  _atom_site_symmetry_multiplicity
  _atom_site_fract_x
  _atom_site_fract_y
  _atom_site_fract_z
  _atom_site_occupancy
  Ba  Ba1       1.0  0.09269  0.73302  0.35824  1.0000
  Ba  Ba2       1.0  0.90731  0.26698  0.64176  1.0000
  Zn  Zn1       1.0  1.00000  1.00000  0.00000  1.0000
  H   H1        1.0  0.59221  0.88667  0.07278  1.0000
  H   H2        1.0  0.40779  0.11333  0.92722  1.0000
  H   H3        1.0  0.03135  0.36652  0.09213  1.0000
  H   H4        1.0  0.96865  0.63348  0.90787  1.0000
  H   H5        1.0  0.47336  0.38491  0.11488  1.0000
  H   H6        1.0  0.52665  0.61509  0.88512  1.0000
  H   H7        1.0  0.34899  0.05130  0.42476  1.0000
  H   H8        1.0  0.65100  0.94870  0.57524  1.0000
  H   H9        1.0  0.30242  0.92674  0.59020  1.0000
  H   H10       1.0  0.69758  0.07326  0.40980  1.0000
  H   H11       1.0  0.39128  0.34814  0.42027  1.0000
  H   H12       1.0  0.60872  0.65186  0.57973  1.0000
  H   H13       1.0  0.35700  0.40266  0.59267  1.0000
  H   H14       1.0  0.64300  0.59734  0.40733  1.0000
  C   C1        1.0  0.64982  0.79312  0.16324  1.0000
  C   C2        1.0  0.35018  0.20688  0.83677  1.0000
  C   C3        1.0  0.05948  0.27359  0.19495  1.0000
  C   C4        1.0  0.94052  0.72640  0.80505  1.0000
  C   C5        1.0  0.59170  0.26715  0.13615  1.0000
  C   C6        1.0  0.40830  0.73285  0.86385  1.0000
  O   O1        1.0  0.83290  0.80432  0.16358  1.0000
  O   O2        1.0  0.16710  0.19567  0.83642  1.0000
  O   O3        1.0  0.53234  0.68387  0.25659  1.0000
  O   O4        1.0  0.46766  0.31613  0.74341  1.0000
  O   O5        1.0  0.07163  0.35047  0.30879  1.0000
  O   O6        1.0  0.92836  0.64952  0.69121  1.0000
  O   O7        1.0  0.07835  0.09467  0.18594  1.0000
  O   O8        1.0  0.92165  0.90533  0.81406  1.0000
  O   O9        1.0  0.73926  0.21808  0.01465  1.0000
  O   O10       1.0  0.26074  0.78193  0.98534  1.0000
  O   O11       1.0  0.56480  0.19671  0.27798  1.0000
  O   O12       1.0  0.43521  0.80329  0.72202  1.0000
  O   O13       1.0  0.24399  0.98334  0.50361  1.0000
  O   O14       1.0  0.75601  0.01666  0.49639  1.0000
  O   O15       1.0  0.29100  0.41991  0.50664  1.0000
  O   O16       1.0  0.70900  0.58009  0.49336  1.0000
