data_image0
_chemical_formula_structural       Cu3H44C24S2I8N8
_chemical_formula_sum              "Cu3 H44 C24 S2 I8 N8"
_cell_length_a       7.73892
_cell_length_b       9.7172
_cell_length_c       15.5319
_cell_angle_alpha    75.8473
_cell_angle_beta     84.177
_cell_angle_gamma    69.3737

_space_group_name_H-M_alt    "P 1"
_space_group_IT_number       1

loop_
  _space_group_symop_operation_xyz
  'x, y, z'

loop_
  _atom_site_type_symbol
  _atom_site_label
  _atom_site_symmetry_multiplicity
  _atom_site_fract_x
  _atom_site_fract_y
  _atom_site_fract_z
  _atom_site_occupancy
  Cu  Cu1       1.0  0.50000  0.00000  0.00000  1.0000
  Cu  Cu2       1.0  0.86872  0.04903  0.06337  1.0000
  Cu  Cu3       1.0  0.13128  0.95097  0.93663  1.0000
  H   H1        1.0  0.39254  0.88564  0.39617  1.0000
  H   H2        1.0  0.60745  0.11437  0.60383  1.0000
  H   H3        1.0  0.24565  0.85973  0.32387  1.0000
  H   H4        1.0  0.75435  0.14027  0.67613  1.0000
  H   H5        1.0  0.15213  0.12269  0.26232  1.0000
  H   H6        1.0  0.84787  0.87731  0.73768  1.0000
  H   H7        1.0  0.32203  0.13837  0.32607  1.0000
  H   H8        1.0  0.67797  0.86163  0.67392  1.0000
  H   H9        1.0  0.34441  0.52009  0.04421  1.0000
  H   H10       1.0  0.65560  0.47991  0.95579  1.0000
  H   H11       1.0  0.11663  0.51648  0.04681  1.0000
  H   H12       1.0  0.88337  0.48352  0.95319  1.0000
  H   H13       1.0  0.20635  0.34621  0.95031  1.0000
  H   H14       1.0  0.79366  0.65379  0.04969  1.0000
  H   H15       1.0  0.43140  0.35676  0.94145  1.0000
  H   H16       1.0  0.56861  0.64323  0.05855  1.0000
  H   H17       1.0  0.55012  0.63189  0.24390  1.0000
  H   H18       1.0  0.44988  0.36811  0.75610  1.0000
  H   H19       1.0  0.75518  0.65565  0.26808  1.0000
  H   H20       1.0  0.24482  0.34435  0.73193  1.0000
  H   H21       1.0  0.44926  0.61927  0.40488  1.0000
  H   H22       1.0  0.55073  0.38073  0.59512  1.0000
  H   H23       1.0  0.65977  0.63509  0.42814  1.0000
  H   H24       1.0  0.34022  0.36491  0.57186  1.0000
  H   H25       1.0  0.62033  0.38100  0.35288  1.0000
  H   H26       1.0  0.37966  0.61900  0.64713  1.0000
  H   H27       1.0  0.67678  0.36298  0.46371  1.0000
  H   H28       1.0  0.32320  0.63702  0.53629  1.0000
  H   H29       1.0  0.83332  0.39243  0.37657  1.0000
  H   H30       1.0  0.16667  0.60757  0.62343  1.0000
  H   H31       1.0  0.38503  0.48255  0.19302  1.0000
  H   H32       1.0  0.61497  0.51745  0.80698  1.0000
  H   H33       1.0  0.40719  0.30733  0.26527  1.0000
  H   H34       1.0  0.59281  0.69268  0.73472  1.0000
  H   H35       1.0  0.04006  0.56155  0.20698  1.0000
  H   H36       1.0  0.95995  0.43845  0.79302  1.0000
  H   H37       1.0  0.05920  0.38911  0.28306  1.0000
  H   H38       1.0  0.94080  0.61088  0.71694  1.0000
  H   H39       1.0  0.24126  0.45725  0.38557  1.0000
  H   H40       1.0  0.75873  0.54276  0.61443  1.0000
  H   H41       1.0  0.01714  0.59238  0.36575  1.0000
  H   H42       1.0  0.98285  0.40762  0.63425  1.0000
  H   H43       1.0  0.20869  0.63228  0.30756  1.0000
  H   H44       1.0  0.79131  0.36772  0.69243  1.0000
  C   C1        1.0  0.54135  0.93724  0.20130  1.0000
  C   C2        1.0  0.45864  0.06277  0.79869  1.0000
  C   C3        1.0  0.35478  0.90666  0.32672  1.0000
  C   C4        1.0  0.64522  0.09334  0.67328  1.0000
  C   C5        1.0  0.29708  0.07484  0.28218  1.0000
  C   C6        1.0  0.70292  0.92516  0.71782  1.0000
  C   C7        1.0  0.37429  0.19866  0.12898  1.0000
  C   C8        1.0  0.62571  0.80134  0.87102  1.0000
  C   C9        1.0  0.26279  0.44487  0.05293  1.0000
  C   C10       1.0  0.73722  0.55513  0.94707  1.0000
  C   C11       1.0  0.32255  0.33693  0.98895  1.0000
  C   C12       1.0  0.67745  0.66306  0.01105  1.0000
  C   C13       1.0  0.61008  0.67543  0.28856  1.0000
  C   C14       1.0  0.38992  0.32457  0.71144  1.0000
  C   C15       1.0  0.59541  0.59367  0.38454  1.0000
  C   C16       1.0  0.40458  0.40633  0.61546  1.0000
  C   C17       1.0  0.68605  0.42380  0.39489  1.0000
  C   C18       1.0  0.31394  0.57620  0.60512  1.0000
  C   C19       1.0  0.31464  0.39889  0.21677  1.0000
  C   C20       1.0  0.68536  0.60111  0.78323  1.0000
  C   C21       1.0  0.12837  0.47305  0.25881  1.0000
  C   C22       1.0  0.87163  0.52694  0.74119  1.0000
  C   C23       1.0  0.14989  0.54208  0.33357  1.0000
  C   C24       1.0  0.85011  0.45792  0.66642  1.0000
  S   S1        1.0  0.70643  0.88911  0.12236  1.0000
  S   S2        1.0  0.29356  0.11088  0.87765  1.0000
  I   I1        1.0  0.19995  0.84509  0.10631  1.0000
  I   I2        1.0  0.80005  0.15490  0.89368  1.0000
  I   I3        1.0  0.81934  0.26024  0.14856  1.0000
  I   I4        1.0  0.18068  0.73976  0.85143  1.0000
  I   I5        1.0  0.81295  0.04851  0.32665  1.0000
  I   I6        1.0  0.18703  0.95150  0.67335  1.0000
  I   I7        1.0  0.81252  0.83969  0.49212  1.0000
  I   I8        1.0  0.18750  0.16032  0.50787  1.0000
  N   N1        1.0  0.41798  0.07868  0.20196  1.0000
  N   N2        1.0  0.58202  0.92130  0.79804  1.0000
  N   N3        1.0  0.51604  0.83843  0.27358  1.0000
  N   N4        1.0  0.48396  0.16156  0.72644  1.0000
  N   N5        1.0  0.29851  0.34180  0.14060  1.0000
  N   N6        1.0  0.70150  0.65820  0.85940  1.0000
  N   N7        1.0  0.39111  0.18386  0.04638  1.0000
  N   N8        1.0  0.60889  0.81613  0.95363  1.0000
