data_image0
_chemical_formula_structural       Cu4H48C24S4I4N8
_chemical_formula_sum              "Cu4 H48 C24 S4 I4 N8"
_cell_length_a       5.50575
_cell_length_b       13.1703
_cell_length_c       13.4996
_cell_angle_alpha    89.9995
_cell_angle_beta     89.9996
_cell_angle_gamma    98.5716

_space_group_name_H-M_alt    "P 1"
_space_group_IT_number       1

loop_
  _space_group_symop_operation_xyz
  'x, y, z'

loop_
  _atom_site_type_symbol
  _atom_site_label
  _atom_site_symmetry_multiplicity
  _atom_site_fract_x
  _atom_site_fract_y
  _atom_site_fract_z
  _atom_site_occupancy
  Cu  Cu1       1.0  0.75788  0.49673  0.49233  1.0000
  Cu  Cu2       1.0  0.74214  0.00327  0.99234  1.0000
  Cu  Cu3       1.0  0.24214  0.50328  0.50766  1.0000
  Cu  Cu4       1.0  0.25787  0.99673  0.00767  1.0000
  H   H1        1.0  0.30791  0.56947  0.71749  1.0000
  H   H2        1.0  0.19208  0.93053  0.21750  1.0000
  H   H3        1.0  0.69210  0.43054  0.28251  1.0000
  H   H4        1.0  0.80790  0.06947  0.78251  1.0000
  H   H5        1.0  0.56607  0.59312  0.87905  1.0000
  H   H6        1.0  0.93390  0.90686  0.37904  1.0000
  H   H7        1.0  0.43393  0.40688  0.12095  1.0000
  H   H8        1.0  0.06606  0.09313  0.62096  1.0000
  H   H9        1.0  0.44609  0.71017  0.85743  1.0000
  H   H10       1.0  0.05388  0.78982  0.35744  1.0000
  H   H11       1.0  0.55391  0.28983  0.14256  1.0000
  H   H12       1.0  0.94609  0.21017  0.64256  1.0000
  H   H13       1.0  0.96705  0.67023  0.82514  1.0000
  H   H14       1.0  0.53294  0.82975  0.32513  1.0000
  H   H15       1.0  0.03295  0.32977  0.17486  1.0000
  H   H16       1.0  0.46704  0.17024  0.67487  1.0000
  H   H17       1.0  0.85270  0.79027  0.83219  1.0000
  H   H18       1.0  0.64730  0.70972  0.33218  1.0000
  H   H19       1.0  0.14731  0.20973  0.16781  1.0000
  H   H20       1.0  0.35267  0.29028  0.66781  1.0000
  H   H21       1.0  0.02957  0.71646  0.56583  1.0000
  H   H22       1.0  0.47042  0.78355  0.06582  1.0000
  H   H23       1.0  0.97044  0.28355  0.43418  1.0000
  H   H24       1.0  0.52956  0.21646  0.93417  1.0000
  H   H25       1.0  0.19128  0.74954  0.67739  1.0000
  H   H26       1.0  0.30873  0.75046  0.17739  1.0000
  H   H27       1.0  0.80874  0.25047  0.32261  1.0000
  H   H28       1.0  0.69125  0.24954  0.82261  1.0000
  H   H29       1.0  0.87587  0.88535  0.56659  1.0000
  H   H30       1.0  0.62412  0.61466  0.06658  1.0000
  H   H31       1.0  0.12414  0.11465  0.43341  1.0000
  H   H32       1.0  0.37588  0.38535  0.93341  1.0000
  H   H33       1.0  0.01892  0.91633  0.68263  1.0000
  H   H34       1.0  0.48111  0.58367  0.18262  1.0000
  H   H35       1.0  0.98110  0.08367  0.31737  1.0000
  H   H36       1.0  0.51890  0.41633  0.81738  1.0000
  H   H37       1.0  0.43323  0.90965  0.60946  1.0000
  H   H38       1.0  0.06679  0.59035  0.10945  1.0000
  H   H39       1.0  0.56678  0.09035  0.39054  1.0000
  H   H40       1.0  0.93322  0.40965  0.89054  1.0000
  H   H41       1.0  0.28588  0.99821  0.54180  1.0000
  H   H42       1.0  0.21414  0.50180  0.04178  1.0000
  H   H43       1.0  0.71414  0.00180  0.45821  1.0000
  H   H44       1.0  0.78587  0.49820  0.95821  1.0000
  H   H45       1.0  0.30009  0.87433  0.49246  1.0000
  H   H46       1.0  0.19989  0.62568  0.99245  1.0000
  H   H47       1.0  0.69991  0.12567  0.50754  1.0000
  H   H48       1.0  0.80011  0.37432  0.00754  1.0000
  C   C1        1.0  0.61431  0.65737  0.65575  1.0000
  C   C2        1.0  0.88569  0.84262  0.15574  1.0000
  C   C3        1.0  0.38570  0.34264  0.34426  1.0000
  C   C4        1.0  0.11430  0.15737  0.84426  1.0000
  C   C5        1.0  0.56137  0.65630  0.82662  1.0000
  C   C6        1.0  0.93861  0.84369  0.32661  1.0000
  C   C7        1.0  0.43864  0.34370  0.17339  1.0000
  C   C8        1.0  0.06137  0.15630  0.67339  1.0000
  C   C9        1.0  0.81950  0.71260  0.80070  1.0000
  C   C10       1.0  0.68050  0.78738  0.30069  1.0000
  C   C11       1.0  0.18051  0.28740  0.19931  1.0000
  C   C12       1.0  0.31948  0.21261  0.69931  1.0000
  C   C13       1.0  0.02708  0.76079  0.63478  1.0000
  C   C14       1.0  0.47293  0.73921  0.13478  1.0000
  C   C15       1.0  0.97294  0.23921  0.36522  1.0000
  C   C16       1.0  0.52706  0.26079  0.86522  1.0000
  C   C17       1.0  0.03551  0.87492  0.61263  1.0000
  C   C18       1.0  0.46450  0.62509  0.11262  1.0000
  C   C19       1.0  0.96450  0.12509  0.38737  1.0000
  C   C20       1.0  0.53551  0.37491  0.88737  1.0000
  C   C21       1.0  0.27605  0.91678  0.56102  1.0000
  C   C22       1.0  0.22395  0.58322  0.06101  1.0000
  C   C23       1.0  0.72396  0.08323  0.43898  1.0000
  C   C24       1.0  0.77605  0.41677  0.93898  1.0000
  S   S1        1.0  0.55261  0.63866  0.53236  1.0000
  S   S2        1.0  0.94741  0.86135  0.03236  1.0000
  S   S3        1.0  0.44741  0.36135  0.46764  1.0000
  S   S4        1.0  0.05259  0.13866  0.96764  1.0000
  I   I1        1.0  0.95547  0.43973  0.65913  1.0000
  I   I2        1.0  0.54453  0.06027  0.15913  1.0000
  I   I3        1.0  0.04455  0.56027  0.34087  1.0000
  I   I4        1.0  0.45546  0.93973  0.84087  1.0000
  N   N1        1.0  0.46863  0.61804  0.73014  1.0000
  N   N2        1.0  0.03139  0.88196  0.23014  1.0000
  N   N3        1.0  0.53138  0.38197  0.26986  1.0000
  N   N4        1.0  0.96860  0.11803  0.76986  1.0000
  N   N5        1.0  0.81524  0.71625  0.69201  1.0000
  N   N6        1.0  0.68478  0.78375  0.19200  1.0000
  N   N7        1.0  0.18477  0.28375  0.30800  1.0000
  N   N8        1.0  0.31521  0.21625  0.80800  1.0000
