data_image0
_chemical_formula_structural       Cd2H24C32S4N12
_chemical_formula_sum              "Cd2 H24 C32 S4 N12"
_cell_length_a       5.41286
_cell_length_b       9.01348
_cell_length_c       18.9949
_cell_angle_alpha    92.0566
_cell_angle_beta     90.0068
_cell_angle_gamma    107.43

_space_group_name_H-M_alt    "P 1"
_space_group_IT_number       1

loop_
  _space_group_symop_operation_xyz
  'x, y, z'

loop_
  _atom_site_type_symbol
  _atom_site_label
  _atom_site_symmetry_multiplicity
  _atom_site_fract_x
  _atom_site_fract_y
  _atom_site_fract_z
  _atom_site_occupancy
  Cd  Cd1       1.0  0.99998  0.00001  0.50000  1.0000
  Cd  Cd2       1.0  0.00001  1.00000  0.00000  1.0000
  H   H1        1.0  0.20137  0.96584  0.69481  1.0000
  H   H2        1.0  0.76343  0.96593  0.19488  1.0000
  H   H3        1.0  0.79864  0.03416  0.30519  1.0000
  H   H4        1.0  0.23660  0.03406  0.80512  1.0000
  H   H5        1.0  0.26014  0.49787  0.70481  1.0000
  H   H6        1.0  0.23726  0.49812  0.20467  1.0000
  H   H7        1.0  0.73985  0.50213  0.29519  1.0000
  H   H8        1.0  0.76273  0.50188  0.79533  1.0000
  H   H9        1.0  0.88306  0.40502  0.62225  1.0000
  H   H10       1.0  0.52176  0.40515  0.12221  1.0000
  H   H11       1.0  0.11693  0.59499  0.37774  1.0000
  H   H12       1.0  0.47822  0.59485  0.87778  1.0000
  H   H13       1.0  0.66000  0.58737  0.57910  1.0000
  H   H14       1.0  0.92695  0.58743  0.07913  1.0000
  H   H15       1.0  0.34000  0.41263  0.42090  1.0000
  H   H16       1.0  0.07303  0.41256  0.92087  1.0000
  H   H17       1.0  0.60656  0.84502  0.59396  1.0000
  H   H18       1.0  0.23775  0.84480  0.09417  1.0000
  H   H19       1.0  0.39343  0.15498  0.40605  1.0000
  H   H20       1.0  0.76227  0.15519  0.90583  1.0000
  H   H21       1.0  0.81372  0.99070  0.64127  1.0000
  H   H22       1.0  0.17626  0.99060  0.14144  1.0000
  H   H23       1.0  0.18627  0.00930  0.35874  1.0000
  H   H24       1.0  0.82375  0.00939  0.85856  1.0000
  C   C1        1.0  0.42108  0.80522  0.46654  1.0000
  C   C2        1.0  0.38503  0.80520  0.96689  1.0000
  C   C3        1.0  0.57887  0.19479  0.53346  1.0000
  C   C4        1.0  0.61499  0.19479  0.03311  1.0000
  C   C5        1.0  0.91399  0.78812  0.63533  1.0000
  C   C6        1.0  0.87350  0.78819  0.13541  1.0000
  C   C7        1.0  0.08601  0.21188  0.36466  1.0000
  C   C8        1.0  0.12652  0.21180  0.86459  1.0000
  C   C9        1.0  0.12931  0.84242  0.68026  1.0000
  C   C10       1.0  0.71231  0.84252  0.18029  1.0000
  C   C11       1.0  0.87070  0.15759  0.31974  1.0000
  C   C12       1.0  0.28771  0.15747  0.81972  1.0000
  C   C13       1.0  0.25113  0.73715  0.70570  1.0000
  C   C14       1.0  0.48527  0.73735  0.20564  1.0000
  C   C15       1.0  0.74888  0.26285  0.29429  1.0000
  C   C16       1.0  0.51474  0.26265  0.79436  1.0000
  C   C17       1.0  0.16408  0.57837  0.68494  1.0000
  C   C18       1.0  0.41377  0.57856  0.18485  1.0000
  C   C19       1.0  0.83592  0.42163  0.31506  1.0000
  C   C20       1.0  0.58622  0.42144  0.81515  1.0000
  C   C21       1.0  0.95253  0.52728  0.63894  1.0000
  C   C22       1.0  0.57436  0.52741  0.13890  1.0000
  C   C23       1.0  0.04746  0.47272  0.36106  1.0000
  C   C24       1.0  0.42562  0.47258  0.86110  1.0000
  C   C25       1.0  0.82643  0.62992  0.61474  1.0000
  C   C26       1.0  0.80305  0.63000  0.11477  1.0000
  C   C27       1.0  0.17357  0.37009  0.38526  1.0000
  C   C28       1.0  0.19694  0.37000  0.88522  1.0000
  C   C29       1.0  0.46342  0.79218  0.75387  1.0000
  C   C30       1.0  0.32803  0.79244  0.25381  1.0000
  C   C31       1.0  0.53660  0.20783  0.24612  1.0000
  C   C32       1.0  0.67199  0.20757  0.74619  1.0000
  S   S1        1.0  0.65519  0.76382  0.42416  1.0000
  S   S2        1.0  0.10960  0.76347  0.92453  1.0000
  S   S3        1.0  0.34478  0.23619  0.57584  1.0000
  S   S4        1.0  0.89042  0.23651  0.07548  1.0000
  N   N1        1.0  0.25655  0.83616  0.49985  1.0000
  N   N2        1.0  0.58054  0.83637  0.00021  1.0000
  N   N3        1.0  0.74342  0.16386  0.50015  1.0000
  N   N4        1.0  0.41949  0.16362  0.99979  1.0000
  N   N5        1.0  0.79631  0.89443  0.60839  1.0000
  N   N6        1.0  0.09748  0.89439  0.10854  1.0000
  N   N7        1.0  0.20368  0.10558  0.39161  1.0000
  N   N8        1.0  0.90253  0.10560  0.89146  1.0000
  N   N9        1.0  0.63722  0.83789  0.79338  1.0000
  N   N10       1.0  0.19997  0.83819  0.29334  1.0000
  N   N11       1.0  0.36278  0.16211  0.20662  1.0000
  N   N12       1.0  0.80005  0.16182  0.70666  1.0000
