data_image0
_chemical_formula_structural       Cd2H24C32S4N12
_chemical_formula_sum              "Cd2 H24 C32 S4 N12"
_cell_length_a       5.72869
_cell_length_b       7.37482
_cell_length_c       20.4244
_cell_angle_alpha    94.9139
_cell_angle_beta     90.001
_cell_angle_gamma    90.0012

_space_group_name_H-M_alt    "P 1"
_space_group_IT_number       1

loop_
  _space_group_symop_operation_xyz
  'x, y, z'

loop_
  _atom_site_type_symbol
  _atom_site_label
  _atom_site_symmetry_multiplicity
  _atom_site_fract_x
  _atom_site_fract_y
  _atom_site_fract_z
  _atom_site_occupancy
  Cd  Cd1       1.0  0.00001  1.00000  1.00000  1.0000
  Cd  Cd2       1.0  0.50000  0.50000  0.50000  1.0000
  H   H1        1.0  0.40015  0.88383  0.62481  1.0000
  H   H2        1.0  0.09984  0.38384  0.12481  1.0000
  H   H3        1.0  0.59986  0.11616  0.37519  1.0000
  H   H4        1.0  0.90016  0.61617  0.87520  1.0000
  H   H5        1.0  0.15463  0.84771  0.72203  1.0000
  H   H6        1.0  0.34534  0.34776  0.22203  1.0000
  H   H7        1.0  0.84536  0.15228  0.27797  1.0000
  H   H8        1.0  0.65464  0.65226  0.77797  1.0000
  H   H9        1.0  0.68951  0.10371  0.84807  1.0000
  H   H10       1.0  0.81051  0.60371  0.34807  1.0000
  H   H11       1.0  0.31048  0.89631  0.15194  1.0000
  H   H12       1.0  0.18950  0.39630  0.65194  1.0000
  H   H13       1.0  0.93319  0.14450  0.75082  1.0000
  H   H14       1.0  0.56683  0.64449  0.25082  1.0000
  H   H15       1.0  0.06681  0.85550  0.24918  1.0000
  H   H16       1.0  0.43318  0.35552  0.74919  1.0000
  H   H17       1.0  0.97973  0.09452  0.63111  1.0000
  H   H18       1.0  0.52026  0.59455  0.13113  1.0000
  H   H19       1.0  0.02027  0.90547  0.36888  1.0000
  H   H20       1.0  0.47972  0.40546  0.86889  1.0000
  H   H21       1.0  0.76815  0.98646  0.58166  1.0000
  H   H22       1.0  0.73182  0.48649  0.08167  1.0000
  H   H23       1.0  0.23185  0.01353  0.41834  1.0000
  H   H24       1.0  0.26816  0.51351  0.91834  1.0000
  C   C1        1.0  0.49715  0.23176  0.00305  1.0000
  C   C2        1.0  0.00285  0.73175  0.50304  1.0000
  C   C3        1.0  0.50288  0.76825  0.99693  1.0000
  C   C4        1.0  0.99711  0.26824  0.49693  1.0000
  C   C5        1.0  0.68366  0.01966  0.68051  1.0000
  C   C6        1.0  0.81633  0.51967  0.18051  1.0000
  C   C7        1.0  0.31635  0.98033  0.31949  1.0000
  C   C8        1.0  0.18367  0.48032  0.81949  1.0000
  C   C9        1.0  0.46120  0.93495  0.67352  1.0000
  C   C10       1.0  0.03880  0.43496  0.17352  1.0000
  C   C11       1.0  0.53881  0.06504  0.32648  1.0000
  C   C12       1.0  0.96120  0.56503  0.82648  1.0000
  C   C13       1.0  0.32411  0.91403  0.72789  1.0000
  C   C14       1.0  0.17587  0.41407  0.22789  1.0000
  C   C15       1.0  0.67588  0.08595  0.27211  1.0000
  C   C16       1.0  0.82413  0.58594  0.77211  1.0000
  C   C17       1.0  0.40266  0.97763  0.79144  1.0000
  C   C18       1.0  0.09735  0.47766  0.29144  1.0000
  C   C19       1.0  0.59733  0.02237  0.20857  1.0000
  C   C20       1.0  0.90267  0.52235  0.70857  1.0000
  C   C21       1.0  0.62562  0.05875  0.79901  1.0000
  C   C22       1.0  0.87440  0.55877  0.29901  1.0000
  C   C23       1.0  0.37438  0.94126  0.20099  1.0000
  C   C24       1.0  0.12562  0.44124  0.70099  1.0000
  C   C25       1.0  0.76245  0.08028  0.74463  1.0000
  C   C26       1.0  0.73755  0.58029  0.24463  1.0000
  C   C27       1.0  0.23754  0.91972  0.25538  1.0000
  C   C28       1.0  0.26246  0.41972  0.75538  1.0000
  C   C29       1.0  0.25739  0.97001  0.84654  1.0000
  C   C30       1.0  0.24259  0.47003  0.34654  1.0000
  C   C31       1.0  0.74259  0.02999  0.15346  1.0000
  C   C32       1.0  0.75740  0.52997  0.65346  1.0000
  S   S1        1.0  0.74495  0.30396  0.97501  1.0000
  S   S2        1.0  0.75507  0.80394  0.47500  1.0000
  S   S3        1.0  0.25508  0.69605  0.02498  1.0000
  S   S4        1.0  0.24493  0.19604  0.52498  1.0000
  N   N1        1.0  0.31827  0.18317  0.02455  1.0000
  N   N2        1.0  0.18174  0.68315  0.52454  1.0000
  N   N3        1.0  0.68173  0.81683  0.97543  1.0000
  N   N4        1.0  0.81826  0.31683  0.47544  1.0000
  N   N5        1.0  0.81695  0.04102  0.62712  1.0000
  N   N6        1.0  0.68303  0.54103  0.12712  1.0000
  N   N7        1.0  0.18306  0.95896  0.37289  1.0000
  N   N8        1.0  0.31696  0.45897  0.87289  1.0000
  N   N9        1.0  0.13450  0.96936  0.89214  1.0000
  N   N10       1.0  0.36552  0.46935  0.39214  1.0000
  N   N11       1.0  0.86548  0.03065  0.10786  1.0000
  N   N12       1.0  0.63453  0.53065  0.60786  1.0000
