data_image0
_chemical_formula_structural       Ho2H42C72N4O16
_chemical_formula_sum              "Ho2 H42 C72 N4 O16"
_cell_length_a       10.8358
_cell_length_b       12.1378
_cell_length_c       12.245
_cell_angle_alpha    94.0327
_cell_angle_beta     106.588
_cell_angle_gamma    101.411

_space_group_name_H-M_alt    "P 1"
_space_group_IT_number       1

loop_
  _space_group_symop_operation_xyz
  'x, y, z'

loop_
  _atom_site_type_symbol
  _atom_site_label
  _atom_site_symmetry_multiplicity
  _atom_site_fract_x
  _atom_site_fract_y
  _atom_site_fract_z
  _atom_site_occupancy
  Ho  Ho1       1.0  0.08846  0.80935  0.00054  1.0000
  Ho  Ho2       1.0  0.91154  0.19065  0.99946  1.0000
  H   H1        1.0  0.02396  0.80430  0.27518  1.0000
  H   H2        1.0  0.97604  0.19569  0.72482  1.0000
  H   H3        1.0  0.02154  0.77490  0.47425  1.0000
  H   H4        1.0  0.97846  0.22510  0.52575  1.0000
  H   H5        1.0  0.98562  0.14769  0.33455  1.0000
  H   H6        1.0  0.01438  0.85231  0.66545  1.0000
  H   H7        1.0  0.88239  0.52925  0.67188  1.0000
  H   H8        1.0  0.11762  0.47075  0.32812  1.0000
  H   H9        1.0  0.74761  0.39249  0.49791  1.0000
  H   H10       1.0  0.25239  0.60751  0.50209  1.0000
  H   H11       1.0  0.27406  0.70921  0.69245  1.0000
  H   H12       1.0  0.72595  0.29079  0.30755  1.0000
  H   H13       1.0  0.60198  0.67614  0.89439  1.0000
  H   H14       1.0  0.39802  0.32386  0.10561  1.0000
  H   H15       1.0  0.36167  0.59444  0.81601  1.0000
  H   H16       1.0  0.63833  0.40555  0.18399  1.0000
  H   H17       1.0  0.83811  0.54634  0.17959  1.0000
  H   H18       1.0  0.16188  0.45365  0.82041  1.0000
  H   H19       1.0  0.27411  0.07250  0.01917  1.0000
  H   H20       1.0  0.72589  0.92750  0.98083  1.0000
  H   H21       1.0  0.50863  0.18660  0.08914  1.0000
  H   H22       1.0  0.49137  0.81340  0.91087  1.0000
  H   H23       1.0  0.68572  0.09956  0.20021  1.0000
  H   H24       1.0  0.31428  0.90045  0.79980  1.0000
  H   H25       1.0  0.74804  0.93003  0.29091  1.0000
  H   H26       1.0  0.25196  0.06998  0.70909  1.0000
  H   H27       1.0  0.68272  0.73091  0.32492  1.0000
  H   H28       1.0  0.31729  0.26909  0.67508  1.0000
  H   H29       1.0  0.50325  0.55516  0.30256  1.0000
  H   H30       1.0  0.49676  0.44484  0.69744  1.0000
  H   H31       1.0  0.26472  0.45887  0.22291  1.0000
  H   H32       1.0  0.73529  0.54113  0.77709  1.0000
  H   H33       1.0  0.10558  0.56289  0.10910  1.0000
  H   H34       1.0  0.89443  0.43711  0.89090  1.0000
  H   H35       1.0  0.22047  0.22299  0.17706  1.0000
  H   H36       1.0  0.77952  0.77699  0.82294  1.0000
  H   H37       1.0  0.28218  0.00920  0.31564  1.0000
  H   H38       1.0  0.71782  0.99081  0.68436  1.0000
  H   H39       1.0  0.29524  0.81909  0.37326  1.0000
  H   H40       1.0  0.70476  0.18093  0.62674  1.0000
  H   H41       1.0  0.58165  0.30232  0.50011  1.0000
  H   H42       1.0  0.41834  0.69769  0.49989  1.0000
  C   C1        1.0  0.00818  0.99577  0.17586  1.0000
  C   C2        1.0  0.99182  0.00423  0.82414  1.0000
  C   C3        1.0  0.00532  0.97867  0.29468  1.0000
  C   C4        1.0  0.99468  0.02133  0.70532  1.0000
  C   C5        1.0  0.01638  0.87258  0.33398  1.0000
  C   C6        1.0  0.98362  0.12742  0.66601  1.0000
  C   C7        1.0  0.01440  0.85646  0.44364  1.0000
  C   C8        1.0  0.98560  0.14354  0.55636  1.0000
  C   C9        1.0  0.00494  0.94614  0.51973  1.0000
  C   C10       1.0  0.99506  0.05386  0.48027  1.0000
  C   C11       1.0  0.99394  0.06694  0.36628  1.0000
  C   C12       1.0  0.00606  0.93306  0.63372  1.0000
  C   C13       1.0  0.09322  0.67957  0.81036  1.0000
  C   C14       1.0  0.90679  0.32043  0.18964  1.0000
  C   C15       1.0  0.07883  0.62316  0.69366  1.0000
  C   C16       1.0  0.92118  0.37684  0.30634  1.0000
  C   C17       1.0  0.96226  0.54606  0.63347  1.0000
  C   C18       1.0  0.03775  0.45393  0.36653  1.0000
  C   C19       1.0  0.94638  0.48880  0.52405  1.0000
  C   C20       1.0  0.05362  0.51119  0.47596  1.0000
  C   C21       1.0  0.82847  0.40877  0.46084  1.0000
  C   C22       1.0  0.17153  0.59123  0.53916  1.0000
  C   C23       1.0  0.18386  0.64691  0.64487  1.0000
  C   C24       1.0  0.81614  0.35309  0.35513  1.0000
  C   C25       1.0  0.85269  0.69592  0.02964  1.0000
  C   C26       1.0  0.14731  0.30408  0.97036  1.0000
  C   C27       1.0  0.73057  0.62033  0.03721  1.0000
  C   C28       1.0  0.26942  0.37966  0.96279  1.0000
  C   C29       1.0  0.60898  0.61944  0.95986  1.0000
  C   C30       1.0  0.39102  0.38056  0.04014  1.0000
  C   C31       1.0  0.49437  0.53980  0.95924  1.0000
  C   C32       1.0  0.50563  0.46020  0.04075  1.0000
  C   C33       1.0  0.36901  0.53478  0.87871  1.0000
  C   C34       1.0  0.63099  0.46521  0.12129  1.0000
  C   C35       1.0  0.74108  0.54315  0.11956  1.0000
  C   C36       1.0  0.25891  0.45685  0.88044  1.0000
  C   C37       1.0  0.35390  0.03575  0.06715  1.0000
  C   C38       1.0  0.64610  0.96425  0.93285  1.0000
  C   C39       1.0  0.48496  0.10012  0.10822  1.0000
  C   C40       1.0  0.51504  0.89988  0.89178  1.0000
  C   C41       1.0  0.58312  0.05155  0.17034  1.0000
  C   C42       1.0  0.41688  0.94846  0.82966  1.0000
  C   C43       1.0  0.54974  0.93841  0.19181  1.0000
  C   C44       1.0  0.45026  0.06159  0.80819  1.0000
  C   C45       1.0  0.64554  0.88265  0.25664  1.0000
  C   C46       1.0  0.35446  0.11735  0.74336  1.0000
  C   C47       1.0  0.60943  0.77300  0.27531  1.0000
  C   C48       1.0  0.39058  0.22700  0.72469  1.0000
  C   C49       1.0  0.47467  0.71099  0.23138  1.0000
  C   C50       1.0  0.52533  0.28901  0.76862  1.0000
  C   C51       1.0  0.43219  0.59910  0.25259  1.0000
  C   C52       1.0  0.56781  0.40090  0.74740  1.0000
  C   C53       1.0  0.29998  0.54550  0.20901  1.0000
  C   C54       1.0  0.70003  0.45449  0.79099  1.0000
  C   C55       1.0  0.21050  0.60333  0.14400  1.0000
  C   C56       1.0  0.78951  0.39667  0.85600  1.0000
  C   C57       1.0  0.37712  0.76346  0.16560  1.0000
  C   C58       1.0  0.62288  0.23654  0.83440  1.0000
  C   C59       1.0  0.41519  0.87904  0.14552  1.0000
  C   C60       1.0  0.58481  0.12096  0.85448  1.0000
  C   C61       1.0  0.36736  0.23598  0.31794  1.0000
  C   C62       1.0  0.63264  0.76404  0.68205  1.0000
  C   C63       1.0  0.42642  0.16207  0.40014  1.0000
  C   C64       1.0  0.57357  0.83794  0.59986  1.0000
  C   C65       1.0  0.37332  0.04637  0.38468  1.0000
  C   C66       1.0  0.62668  0.95364  0.61532  1.0000
  C   C67       1.0  0.43874  0.97535  0.45582  1.0000
  C   C68       1.0  0.56126  0.02466  0.54418  1.0000
  C   C69       1.0  0.38792  0.85614  0.44093  1.0000
  C   C70       1.0  0.61208  0.14387  0.55907  1.0000
  C   C71       1.0  0.54556  0.21076  0.48927  1.0000
  C   C72       1.0  0.45444  0.78924  0.51073  1.0000
  N   N1        1.0  0.31964  0.92805  0.08398  1.0000
  N   N2        1.0  0.68036  0.07195  0.91602  1.0000
  N   N3        1.0  0.24706  0.70935  0.12282  1.0000
  N   N4        1.0  0.75294  0.29065  0.87718  1.0000
  O   O1        1.0  0.07028  0.93678  0.13126  1.0000
  O   O2        1.0  0.92972  0.06322  0.86874  1.0000
  O   O3        1.0  0.94883  0.06790  0.12690  1.0000
  O   O4        1.0  0.05117  0.93210  0.87310  1.0000
  O   O5        1.0  0.99705  0.65508  0.85266  1.0000
  O   O6        1.0  0.00295  0.34492  0.14734  1.0000
  O   O7        1.0  0.19903  0.75259  0.86605  1.0000
  O   O8        1.0  0.80098  0.24741  0.13396  1.0000
  O   O9        1.0  0.96509  0.68578  0.09264  1.0000
  O   O10       1.0  0.03491  0.31422  0.90737  1.0000
  O   O11       1.0  0.84717  0.76974  0.95899  1.0000
  O   O12       1.0  0.15283  0.23026  0.04100  1.0000
  O   O13       1.0  0.24735  0.18455  0.24774  1.0000
  O   O14       1.0  0.75264  0.81544  0.75226  1.0000
  O   O15       1.0  0.42604  0.33275  0.31286  1.0000
  O   O16       1.0  0.57393  0.66725  0.68712  1.0000
