data_image0
_chemical_formula_structural       Tb2H42C72N4O16
_chemical_formula_sum              "Tb2 H42 C72 N4 O16"
_cell_length_a       10.7855
_cell_length_b       12.1648
_cell_length_c       12.3369
_cell_angle_alpha    94.2083
_cell_angle_beta     106.3
_cell_angle_gamma    100.938

_space_group_name_H-M_alt    "P 1"
_space_group_IT_number       1

loop_
  _space_group_symop_operation_xyz
  'x, y, z'

loop_
  _atom_site_type_symbol
  _atom_site_label
  _atom_site_symmetry_multiplicity
  _atom_site_fract_x
  _atom_site_fract_y
  _atom_site_fract_z
  _atom_site_occupancy
  Tb  Tb1       1.0  0.08834  0.80926  0.99880  1.0000
  Tb  Tb2       1.0  0.91166  0.19074  0.00120  1.0000
  H   H1        1.0  0.27811  0.07058  0.01956  1.0000
  H   H2        1.0  0.72189  0.92942  0.98044  1.0000
  H   H3        1.0  0.51256  0.18337  0.09365  1.0000
  H   H4        1.0  0.48744  0.81663  0.90635  1.0000
  H   H5        1.0  0.68823  0.09405  0.20395  1.0000
  H   H6        1.0  0.31177  0.90595  0.79605  1.0000
  H   H7        1.0  0.74945  0.92325  0.29036  1.0000
  H   H8        1.0  0.25055  0.07675  0.70964  1.0000
  H   H9        1.0  0.68259  0.72472  0.32255  1.0000
  H   H10       1.0  0.31741  0.27527  0.67745  1.0000
  H   H11       1.0  0.50203  0.55171  0.30001  1.0000
  H   H12       1.0  0.49797  0.44829  0.69999  1.0000
  H   H13       1.0  0.26288  0.45777  0.22087  1.0000
  H   H14       1.0  0.73712  0.54223  0.77913  1.0000
  H   H15       1.0  0.10506  0.56323  0.10778  1.0000
  H   H16       1.0  0.89494  0.43677  0.89222  1.0000
  H   H17       1.0  0.27228  0.70970  0.68892  1.0000
  H   H18       1.0  0.72772  0.29030  0.31108  1.0000
  H   H19       1.0  0.24988  0.61089  0.49861  1.0000
  H   H20       1.0  0.75011  0.38911  0.50139  1.0000
  H   H21       1.0  0.88383  0.52604  0.67305  1.0000
  H   H22       1.0  0.11617  0.47396  0.32695  1.0000
  H   H23       1.0  0.83921  0.54375  0.17507  1.0000
  H   H24       1.0  0.16079  0.45625  0.82493  1.0000
  H   H25       1.0  0.64091  0.40118  0.17749  1.0000
  H   H26       1.0  0.35909  0.59882  0.82251  1.0000
  H   H27       1.0  0.59989  0.67971  0.89942  1.0000
  H   H28       1.0  0.40011  0.32029  0.10058  1.0000
  H   H29       1.0  0.03147  0.80638  0.27829  1.0000
  H   H30       1.0  0.96853  0.19362  0.72171  1.0000
  H   H31       1.0  0.02883  0.77717  0.47568  1.0000
  H   H32       1.0  0.97117  0.22283  0.52432  1.0000
  H   H33       1.0  0.98209  0.14639  0.33522  1.0000
  H   H34       1.0  0.01792  0.85361  0.66478  1.0000
  H   H35       1.0  0.22429  0.21957  0.17291  1.0000
  H   H36       1.0  0.77571  0.78043  0.82709  1.0000
  H   H37       1.0  0.57696  0.30105  0.49862  1.0000
  H   H38       1.0  0.42304  0.69895  0.50137  1.0000
  H   H39       1.0  0.69888  0.18177  0.62828  1.0000
  H   H40       1.0  0.30112  0.81823  0.37172  1.0000
  H   H41       1.0  0.28671  0.00660  0.31217  1.0000
  H   H42       1.0  0.71329  0.99340  0.68783  1.0000
  C   C1        1.0  0.35733  0.03322  0.06772  1.0000
  C   C2        1.0  0.64267  0.96678  0.93228  1.0000
  C   C3        1.0  0.48823  0.09669  0.11071  1.0000
  C   C4        1.0  0.51177  0.90331  0.88929  1.0000
  C   C5        1.0  0.58559  0.04699  0.17234  1.0000
  C   C6        1.0  0.41441  0.95301  0.82766  1.0000
  C   C7        1.0  0.55155  0.93374  0.19168  1.0000
  C   C8        1.0  0.44845  0.06626  0.80832  1.0000
  C   C9        1.0  0.64678  0.87694  0.25574  1.0000
  C   C10       1.0  0.35322  0.12306  0.74426  1.0000
  C   C11       1.0  0.60983  0.76766  0.27350  1.0000
  C   C12       1.0  0.39017  0.23234  0.72650  1.0000
  C   C13       1.0  0.47475  0.70719  0.22948  1.0000
  C   C14       1.0  0.52525  0.29281  0.77052  1.0000
  C   C15       1.0  0.43132  0.59600  0.25035  1.0000
  C   C16       1.0  0.56868  0.40400  0.74965  1.0000
  C   C17       1.0  0.29890  0.54374  0.20699  1.0000
  C   C18       1.0  0.70110  0.45626  0.79301  1.0000
  C   C19       1.0  0.21021  0.60232  0.14237  1.0000
  C   C20       1.0  0.78979  0.39768  0.85764  1.0000
  C   C21       1.0  0.37794  0.76048  0.16397  1.0000
  C   C22       1.0  0.62206  0.23952  0.83603  1.0000
  C   C23       1.0  0.41698  0.87560  0.14450  1.0000
  C   C24       1.0  0.58302  0.12440  0.85550  1.0000
  C   C25       1.0  0.09275  0.67822  0.80825  1.0000
  C   C26       1.0  0.90725  0.32178  0.19175  1.0000
  C   C27       1.0  0.07857  0.62187  0.69232  1.0000
  C   C28       1.0  0.92143  0.37813  0.30768  1.0000
  C   C29       1.0  0.18272  0.64710  0.64244  1.0000
  C   C30       1.0  0.81728  0.35290  0.35756  1.0000
  C   C31       1.0  0.17004  0.59278  0.53683  1.0000
  C   C32       1.0  0.82997  0.40722  0.46317  1.0000
  C   C33       1.0  0.96297  0.54407  0.63378  1.0000
  C   C34       1.0  0.03703  0.45593  0.36622  1.0000
  C   C35       1.0  0.05300  0.51223  0.47523  1.0000
  C   C36       1.0  0.94700  0.48777  0.52477  1.0000
  C   C37       1.0  0.85148  0.69674  0.03034  1.0000
  C   C38       1.0  0.14852  0.30326  0.96966  1.0000
  C   C39       1.0  0.72979  0.62067  0.03748  1.0000
  C   C40       1.0  0.27021  0.37933  0.96252  1.0000
  C   C41       1.0  0.74169  0.54147  0.11676  1.0000
  C   C42       1.0  0.25831  0.45853  0.88324  1.0000
  C   C43       1.0  0.63229  0.46270  0.11747  1.0000
  C   C44       1.0  0.36771  0.53730  0.88253  1.0000
  C   C45       1.0  0.60762  0.62110  0.96234  1.0000
  C   C46       1.0  0.39238  0.37890  0.03766  1.0000
  C   C47       1.0  0.50635  0.45915  0.03917  1.0000
  C   C48       1.0  0.49365  0.54084  0.96083  1.0000
  C   C49       1.0  0.00948  0.99549  0.17812  1.0000
  C   C50       1.0  0.99052  0.00451  0.82188  1.0000
  C   C51       1.0  0.00739  0.97907  0.29646  1.0000
  C   C52       1.0  0.99261  0.02093  0.70354  1.0000
  C   C53       1.0  0.02144  0.87401  0.33615  1.0000
  C   C54       1.0  0.97856  0.12599  0.66385  1.0000
  C   C55       1.0  0.01930  0.85798  0.44494  1.0000
  C   C56       1.0  0.98070  0.14202  0.55506  1.0000
  C   C57       1.0  0.99286  0.06636  0.36704  1.0000
  C   C58       1.0  0.00714  0.93364  0.63296  1.0000
  C   C59       1.0  0.00647  0.94667  0.51987  1.0000
  C   C60       1.0  0.99353  0.05333  0.48013  1.0000
  C   C61       1.0  0.36802  0.23307  0.31483  1.0000
  C   C62       1.0  0.63198  0.76693  0.68517  1.0000
  C   C63       1.0  0.42647  0.16006  0.39764  1.0000
  C   C64       1.0  0.57354  0.83994  0.60236  1.0000
  C   C65       1.0  0.54260  0.20973  0.48815  1.0000
  C   C66       1.0  0.45740  0.79027  0.51185  1.0000
  C   C67       1.0  0.60841  0.14403  0.55958  1.0000
  C   C68       1.0  0.39158  0.85597  0.44042  1.0000
  C   C69       1.0  0.37553  0.04462  0.38224  1.0000
  C   C70       1.0  0.62446  0.95538  0.61776  1.0000
  C   C71       1.0  0.55976  0.02514  0.54496  1.0000
  C   C72       1.0  0.44024  0.97486  0.45504  1.0000
  N   N1        1.0  0.32241  0.92567  0.08310  1.0000
  N   N2        1.0  0.67759  0.07433  0.91690  1.0000
  N   N3        1.0  0.24775  0.70762  0.12126  1.0000
  N   N4        1.0  0.75225  0.29238  0.87874  1.0000
  O   O1        1.0  0.19858  0.75074  0.86274  1.0000
  O   O2        1.0  0.80143  0.24926  0.13726  1.0000
  O   O3        1.0  0.99648  0.65414  0.85069  1.0000
  O   O4        1.0  0.00352  0.34586  0.14931  1.0000
  O   O5        1.0  0.96421  0.68590  0.09179  1.0000
  O   O6        1.0  0.03579  0.31410  0.90821  1.0000
  O   O7        1.0  0.84506  0.77126  0.96123  1.0000
  O   O8        1.0  0.15494  0.22874  0.03877  1.0000
  O   O9        1.0  0.07198  0.93646  0.13338  1.0000
  O   O10       1.0  0.92801  0.06354  0.86662  1.0000
  O   O11       1.0  0.94874  0.06683  0.12923  1.0000
  O   O12       1.0  0.05126  0.93317  0.87077  1.0000
  O   O13       1.0  0.25106  0.17993  0.24201  1.0000
  O   O14       1.0  0.74894  0.82007  0.75799  1.0000
  O   O15       1.0  0.42455  0.33058  0.31185  1.0000
  O   O16       1.0  0.57545  0.66942  0.68815  1.0000
