data_image0
_chemical_formula_structural       Zn8H64C32O16
_chemical_formula_sum              "Zn8 H64 C32 O16"
_cell_length_a       9.08247
_cell_length_b       9.20337
_cell_length_c       13.4868
_cell_angle_alpha    90
_cell_angle_beta     90
_cell_angle_gamma    90

_space_group_name_H-M_alt    "P 1"
_space_group_IT_number       1

loop_
  _space_group_symop_operation_xyz
  'x, y, z'

loop_
  _atom_site_type_symbol
  _atom_site_label
  _atom_site_symmetry_multiplicity
  _atom_site_fract_x
  _atom_site_fract_y
  _atom_site_fract_z
  _atom_site_occupancy
  Zn  Zn1       1.0  0.46662  0.59372  0.15517  1.0000
  Zn  Zn2       1.0  0.53338  0.09372  0.84483  1.0000
  Zn  Zn3       1.0  0.53338  0.59371  0.65517  1.0000
  Zn  Zn4       1.0  0.46662  0.09371  0.34483  1.0000
  Zn  Zn5       1.0  0.76195  0.79125  0.09672  1.0000
  Zn  Zn6       1.0  0.23804  0.29125  0.90328  1.0000
  Zn  Zn7       1.0  0.23805  0.79125  0.59672  1.0000
  Zn  Zn8       1.0  0.76195  0.29125  0.40328  1.0000
  H   H1        1.0  0.93674  0.54090  0.35950  1.0000
  H   H2        1.0  0.06326  0.04090  0.64050  1.0000
  H   H3        1.0  0.06326  0.54090  0.85950  1.0000
  H   H4        1.0  0.93674  0.04090  0.14050  1.0000
  H   H5        1.0  0.90665  0.70846  0.29461  1.0000
  H   H6        1.0  0.09334  0.20846  0.70539  1.0000
  H   H7        1.0  0.09335  0.70845  0.79460  1.0000
  H   H8        1.0  0.90665  0.20845  0.20539  1.0000
  H   H9        1.0  0.98839  0.55974  0.23290  1.0000
  H   H10       1.0  0.01161  0.05974  0.76709  1.0000
  H   H11       1.0  0.01161  0.55974  0.73290  1.0000
  H   H12       1.0  0.98839  0.05974  0.26710  1.0000
  H   H13       1.0  0.26389  0.87529  0.96388  1.0000
  H   H14       1.0  0.73611  0.37529  0.03613  1.0000
  H   H15       1.0  0.73613  0.87529  0.46388  1.0000
  H   H16       1.0  0.26388  0.37528  0.53612  1.0000
  H   H17       1.0  0.30685  0.68576  0.97128  1.0000
  H   H18       1.0  0.69315  0.18577  0.02874  1.0000
  H   H19       1.0  0.69317  0.68577  0.47127  1.0000
  H   H20       1.0  0.30684  0.18575  0.52872  1.0000
  H   H21       1.0  0.34821  0.78916  0.86131  1.0000
  H   H22       1.0  0.65177  0.28916  0.13870  1.0000
  H   H23       1.0  0.65180  0.78916  0.36131  1.0000
  H   H24       1.0  0.34822  0.28916  0.63868  1.0000
  H   H25       1.0  0.35810  0.76307  0.28103  1.0000
  H   H26       1.0  0.64190  0.26307  0.71898  1.0000
  H   H27       1.0  0.64190  0.76307  0.78102  1.0000
  H   H28       1.0  0.35810  0.26306  0.21898  1.0000
  H   H29       1.0  0.21665  0.67346  0.21664  1.0000
  H   H30       1.0  0.78335  0.17346  0.78336  1.0000
  H   H31       1.0  0.78335  0.67346  0.71664  1.0000
  H   H32       1.0  0.21666  0.17345  0.28336  1.0000
  H   H33       1.0  0.22143  0.59652  0.39787  1.0000
  H   H34       1.0  0.77857  0.09653  0.60213  1.0000
  H   H35       1.0  0.77858  0.59653  0.89787  1.0000
  H   H36       1.0  0.22143  0.09653  0.10213  1.0000
  H   H37       1.0  0.40513  0.53613  0.38353  1.0000
  H   H38       1.0  0.59486  0.03613  0.61648  1.0000
  H   H39       1.0  0.59487  0.53613  0.88353  1.0000
  H   H40       1.0  0.40514  0.03613  0.11647  1.0000
  H   H41       1.0  0.26155  0.44541  0.32080  1.0000
  H   H42       1.0  0.73845  0.94541  0.67920  1.0000
  H   H43       1.0  0.73846  0.44541  0.82080  1.0000
  H   H44       1.0  0.26155  0.94541  0.17920  1.0000
  H   H45       1.0  0.03537  0.83735  0.06937  1.0000
  H   H46       1.0  0.96463  0.33735  0.93064  1.0000
  H   H47       1.0  0.96463  0.83734  0.56937  1.0000
  H   H48       1.0  0.03537  0.33735  0.43063  1.0000
  H   H49       1.0  0.97493  0.68870  0.99900  1.0000
  H   H50       1.0  0.02507  0.18870  0.00101  1.0000
  H   H51       1.0  0.02507  0.68869  0.49900  1.0000
  H   H52       1.0  0.97493  0.18870  0.50100  1.0000
  H   H53       1.0  0.04286  0.90420  0.88928  1.0000
  H   H54       1.0  0.95714  0.40421  0.11072  1.0000
  H   H55       1.0  0.95713  0.90420  0.38928  1.0000
  H   H56       1.0  0.04287  0.40421  0.61072  1.0000
  H   H57       1.0  0.90198  0.00800  0.94532  1.0000
  H   H58       1.0  0.09802  0.50800  0.05469  1.0000
  H   H59       1.0  0.09801  0.00799  0.44532  1.0000
  H   H60       1.0  0.90198  0.50800  0.55468  1.0000
  H   H61       1.0  0.85521  0.85437  0.87429  1.0000
  H   H62       1.0  0.14479  0.35437  0.12572  1.0000
  H   H63       1.0  0.14478  0.85436  0.37428  1.0000
  H   H64       1.0  0.85521  0.35437  0.62571  1.0000
  C   C1        1.0  0.75718  0.53739  0.25444  1.0000
  C   C2        1.0  0.24281  0.03739  0.74555  1.0000
  C   C3        1.0  0.24281  0.53738  0.75444  1.0000
  C   C4        1.0  0.75718  0.03738  0.24555  1.0000
  C   C5        1.0  0.90556  0.58969  0.28864  1.0000
  C   C6        1.0  0.09444  0.08970  0.71136  1.0000
  C   C7        1.0  0.09443  0.58969  0.78863  1.0000
  C   C8        1.0  0.90556  0.08969  0.21136  1.0000
  C   C9        1.0  0.49192  0.83160  0.98250  1.0000
  C   C10       1.0  0.50808  0.33162  0.01751  1.0000
  C   C11       1.0  0.50810  0.83161  0.48250  1.0000
  C   C12       1.0  0.49191  0.33160  0.51749  1.0000
  C   C13       1.0  0.34344  0.79097  0.94263  1.0000
  C   C14       1.0  0.65655  0.29098  0.05738  1.0000
  C   C15       1.0  0.65657  0.79098  0.44263  1.0000
  C   C16       1.0  0.34344  0.29097  0.55736  1.0000
  C   C17       1.0  0.32213  0.65529  0.25508  1.0000
  C   C18       1.0  0.67787  0.15529  0.74493  1.0000
  C   C19       1.0  0.67788  0.65528  0.75507  1.0000
  C   C20       1.0  0.32212  0.15529  0.24492  1.0000
  C   C21       1.0  0.30115  0.55321  0.34367  1.0000
  C   C22       1.0  0.69885  0.05321  0.65633  1.0000
  C   C23       1.0  0.69885  0.55321  0.84367  1.0000
  C   C24       1.0  0.30115  0.05320  0.15633  1.0000
  C   C25       1.0  0.94577  0.80039  0.02035  1.0000
  C   C26       1.0  0.05423  0.30039  0.97966  1.0000
  C   C27       1.0  0.05423  0.80038  0.52035  1.0000
  C   C28       1.0  0.94577  0.30039  0.47966  1.0000
  C   C29       1.0  0.93599  0.89623  0.92783  1.0000
  C   C30       1.0  0.06401  0.39624  0.07217  1.0000
  C   C31       1.0  0.06401  0.89623  0.42783  1.0000
  C   C32       1.0  0.93599  0.39624  0.57217  1.0000
  O   O1        1.0  0.69510  0.60722  0.18271  1.0000
  O   O2        1.0  0.30490  0.10722  0.81729  1.0000
  O   O3        1.0  0.30490  0.60721  0.68271  1.0000
  O   O4        1.0  0.69510  0.10721  0.31729  1.0000
  O   O5        1.0  0.69367  0.42832  0.29225  1.0000
  O   O6        1.0  0.30632  0.92831  0.70775  1.0000
  O   O7        1.0  0.30632  0.42831  0.79225  1.0000
  O   O8        1.0  0.69367  0.92831  0.20775  1.0000
  O   O9        1.0  0.54902  0.75198  0.05099  1.0000
  O   O10       1.0  0.45098  0.25199  0.94901  1.0000
  O   O11       1.0  0.45099  0.75198  0.55099  1.0000
  O   O12       1.0  0.54902  0.25198  0.44900  1.0000
  O   O13       1.0  0.56151  0.94119  0.95046  1.0000
  O   O14       1.0  0.43849  0.44118  0.04955  1.0000
  O   O15       1.0  0.43851  0.94118  0.45046  1.0000
  O   O16       1.0  0.56150  0.44119  0.54954  1.0000
