data_image0
_chemical_formula_structural       Zn4H52C36N4O8
_chemical_formula_sum              "Zn4 H52 C36 N4 O8"
_cell_length_a       7.467
_cell_length_b       9.07901
_cell_length_c       16.0551
_cell_angle_alpha    90
_cell_angle_beta     90
_cell_angle_gamma    109.222

_space_group_name_H-M_alt    "P 1"
_space_group_IT_number       1

loop_
  _space_group_symop_operation_xyz
  'x, y, z'

loop_
  _atom_site_type_symbol
  _atom_site_label
  _atom_site_symmetry_multiplicity
  _atom_site_fract_x
  _atom_site_fract_y
  _atom_site_fract_z
  _atom_site_occupancy
  Zn  Zn1       1.0  0.51336  0.69487  0.80061  1.0000
  Zn  Zn2       1.0  0.48664  0.80514  0.30061  1.0000
  Zn  Zn3       1.0  0.48664  0.30514  0.19939  1.0000
  Zn  Zn4       1.0  0.51336  0.19487  0.69939  1.0000
  H   H1        1.0  0.15469  0.71446  0.85310  1.0000
  H   H2        1.0  0.84531  0.78554  0.35310  1.0000
  H   H3        1.0  0.84532  0.28554  0.14690  1.0000
  H   H4        1.0  0.15468  0.21446  0.64690  1.0000
  H   H5        1.0  0.03796  0.85905  0.85625  1.0000
  H   H6        1.0  0.96204  0.64094  0.35625  1.0000
  H   H7        1.0  0.96204  0.14095  0.14375  1.0000
  H   H8        1.0  0.03796  0.35906  0.64376  1.0000
  H   H9        1.0  0.23697  0.87763  0.92092  1.0000
  H   H10       1.0  0.76303  0.62237  0.42092  1.0000
  H   H11       1.0  0.76303  0.12237  0.07908  1.0000
  H   H12       1.0  0.23696  0.37763  0.57908  1.0000
  H   H13       1.0  0.58154  0.86580  0.63374  1.0000
  H   H14       1.0  0.41847  0.63420  0.13374  1.0000
  H   H15       1.0  0.41846  0.13419  0.36626  1.0000
  H   H16       1.0  0.58153  0.36580  0.86626  1.0000
  H   H17       1.0  0.81543  0.91791  0.51647  1.0000
  H   H18       1.0  0.18459  0.58209  0.01647  1.0000
  H   H19       1.0  0.18457  0.08208  0.48353  1.0000
  H   H20       1.0  0.81540  0.41791  0.98353  1.0000
  H   H21       1.0  0.09311  0.81879  0.52833  1.0000
  H   H22       1.0  0.90691  0.68121  0.02833  1.0000
  H   H23       1.0  0.90689  0.18120  0.47167  1.0000
  H   H24       1.0  0.09309  0.31880  0.97167  1.0000
  H   H25       1.0  0.11581  0.66407  0.65675  1.0000
  H   H26       1.0  0.88419  0.83593  0.15674  1.0000
  H   H27       1.0  0.88419  0.33592  0.34326  1.0000
  H   H28       1.0  0.11582  0.16408  0.84326  1.0000
  H   H29       1.0  0.86054  0.61203  0.76290  1.0000
  H   H30       1.0  0.13946  0.88797  0.26289  1.0000
  H   H31       1.0  0.13946  0.38797  0.23711  1.0000
  H   H32       1.0  0.86055  0.11203  0.73711  1.0000
  H   H33       1.0  0.48034  0.58891  0.95044  1.0000
  H   H34       1.0  0.51966  0.91109  0.45044  1.0000
  H   H35       1.0  0.51967  0.41109  0.04956  1.0000
  H   H36       1.0  0.48034  0.08890  0.54956  1.0000
  H   H37       1.0  0.71473  0.63676  0.91562  1.0000
  H   H38       1.0  0.28527  0.86324  0.41561  1.0000
  H   H39       1.0  0.28528  0.36324  0.08438  1.0000
  H   H40       1.0  0.71473  0.13676  0.58439  1.0000
  H   H41       1.0  0.68519  0.82229  0.03128  1.0000
  H   H42       1.0  0.31481  0.67771  0.53128  1.0000
  H   H43       1.0  0.31482  0.17771  0.96872  1.0000
  H   H44       1.0  0.68519  0.32229  0.46872  1.0000
  H   H45       1.0  0.53086  0.88333  0.96727  1.0000
  H   H46       1.0  0.46914  0.61668  0.46727  1.0000
  H   H47       1.0  0.46915  0.11668  0.03274  1.0000
  H   H48       1.0  0.53086  0.38332  0.53273  1.0000
  H   H49       1.0  0.76890  0.92366  0.93721  1.0000
  H   H50       1.0  0.23110  0.57634  0.43721  1.0000
  H   H51       1.0  0.23110  0.07634  0.06279  1.0000
  H   H52       1.0  0.76890  0.42365  0.56279  1.0000
  C   C1        1.0  0.31019  0.93353  0.79401  1.0000
  C   C2        1.0  0.68981  0.56647  0.29401  1.0000
  C   C3        1.0  0.68981  0.06647  0.20598  1.0000
  C   C4        1.0  0.31018  0.43353  0.70599  1.0000
  C   C5        1.0  0.17472  0.83917  0.85930  1.0000
  C   C6        1.0  0.82528  0.66083  0.35930  1.0000
  C   C7        1.0  0.82528  0.16083  0.14070  1.0000
  C   C8        1.0  0.17472  0.33917  0.64070  1.0000
  C   C9        1.0  0.70080  0.82177  0.63489  1.0000
  C   C10       1.0  0.29921  0.67824  0.13489  1.0000
  C   C11       1.0  0.29920  0.17823  0.36511  1.0000
  C   C12       1.0  0.70079  0.32176  0.86511  1.0000
  C   C13       1.0  0.83346  0.85209  0.57067  1.0000
  C   C14       1.0  0.16656  0.64791  0.07068  1.0000
  C   C15       1.0  0.16654  0.14790  0.42932  1.0000
  C   C16       1.0  0.83345  0.35209  0.92933  1.0000
  C   C17       1.0  0.98601  0.79624  0.57726  1.0000
  C   C18       1.0  0.01400  0.70376  0.07726  1.0000
  C   C19       1.0  0.01399  0.20375  0.42274  1.0000
  C   C20       1.0  0.98600  0.29624  0.92274  1.0000
  C   C21       1.0  0.99915  0.70960  0.64733  1.0000
  C   C22       1.0  0.00086  0.79040  0.14733  1.0000
  C   C23       1.0  0.00085  0.29040  0.35267  1.0000
  C   C24       1.0  0.99915  0.20960  0.85267  1.0000
  C   C25       1.0  0.85843  0.68163  0.70780  1.0000
  C   C26       1.0  0.14157  0.81837  0.20779  1.0000
  C   C27       1.0  0.14157  0.31836  0.29221  1.0000
  C   C28       1.0  0.85843  0.18163  0.79220  1.0000
  C   C29       1.0  0.59281  0.67992  0.91725  1.0000
  C   C30       1.0  0.40719  0.82009  0.41725  1.0000
  C   C31       1.0  0.40719  0.32009  0.08275  1.0000
  C   C32       1.0  0.59281  0.17991  0.58275  1.0000
  C   C33       1.0  0.64716  0.83408  0.96572  1.0000
  C   C34       1.0  0.35284  0.66592  0.46572  1.0000
  C   C35       1.0  0.35285  0.16592  0.03428  1.0000
  C   C36       1.0  0.64715  0.33408  0.53428  1.0000
  N   N1        1.0  0.71312  0.73795  0.70249  1.0000
  N   N2        1.0  0.28689  0.76205  0.20249  1.0000
  N   N3        1.0  0.28688  0.26204  0.29751  1.0000
  N   N4        1.0  0.71311  0.23795  0.79751  1.0000
  O   O1        1.0  0.44778  0.89190  0.76891  1.0000
  O   O2        1.0  0.55222  0.60810  0.26891  1.0000
  O   O3        1.0  0.55222  0.10810  0.23109  1.0000
  O   O4        1.0  0.44778  0.39190  0.73109  1.0000
  O   O5        1.0  0.28562  0.05848  0.76775  1.0000
  O   O6        1.0  0.71438  0.44152  0.26775  1.0000
  O   O7        1.0  0.71438  0.94152  0.23225  1.0000
  O   O8        1.0  0.28562  0.55848  0.73226  1.0000
