data_image0
_chemical_formula_structural       Zn2H20C8N4O20
_chemical_formula_sum              "Zn2 H20 C8 N4 O20"
_cell_length_a       7.18843
_cell_length_b       7.79164
_cell_length_c       9.84282
_cell_angle_alpha    90.8506
_cell_angle_beta     89.9728
_cell_angle_gamma    117.5

_space_group_name_H-M_alt    "P 1"
_space_group_IT_number       1

loop_
  _space_group_symop_operation_xyz
  'x, y, z'

loop_
  _atom_site_type_symbol
  _atom_site_label
  _atom_site_symmetry_multiplicity
  _atom_site_fract_x
  _atom_site_fract_y
  _atom_site_fract_z
  _atom_site_occupancy
  Zn  Zn1       1.0  0.81336  0.99998  0.74999  1.0000
  Zn  Zn2       1.0  0.18664  0.00002  0.25001  1.0000
  H   H1        1.0  0.47006  0.65264  0.73908  1.0000
  H   H2        1.0  0.81785  0.34748  0.76100  1.0000
  H   H3        1.0  0.52995  0.34736  0.26091  1.0000
  H   H4        1.0  0.18215  0.65252  0.23900  1.0000
  H   H5        1.0  0.88602  0.11831  0.48011  1.0000
  H   H6        1.0  0.76757  0.88169  0.02000  1.0000
  H   H7        1.0  0.11398  0.88169  0.51989  1.0000
  H   H8        1.0  0.23243  0.11831  0.98000  1.0000
  H   H9        1.0  0.31640  0.66455  0.52316  1.0000
  H   H10       1.0  0.65234  0.33547  0.97701  1.0000
  H   H11       1.0  0.68360  0.33546  0.47684  1.0000
  H   H12       1.0  0.34766  0.66452  0.02299  1.0000
  H   H13       1.0  0.57214  0.67773  0.51115  1.0000
  H   H14       1.0  0.89481  0.32219  0.98906  1.0000
  H   H15       1.0  0.42787  0.32227  0.48885  1.0000
  H   H16       1.0  0.10519  0.67780  0.01094  1.0000
  H   H17       1.0  0.58815  0.93802  0.37759  1.0000
  H   H18       1.0  0.64986  0.06183  0.12249  1.0000
  H   H19       1.0  0.41186  0.06198  0.62241  1.0000
  H   H20       1.0  0.35013  0.93816  0.87751  1.0000
  C   C1        1.0  0.48312  0.75122  0.54895  1.0000
  C   C2        1.0  0.73229  0.24877  0.95120  1.0000
  C   C3        1.0  0.51687  0.24878  0.45105  1.0000
  C   C4        1.0  0.26770  0.75123  0.04880  1.0000
  C   C5        1.0  0.57076  0.95137  0.48775  1.0000
  C   C6        1.0  0.61941  0.04858  0.01231  1.0000
  C   C7        1.0  0.42924  0.04863  0.51225  1.0000
  C   C8        1.0  0.38059  0.95141  0.98769  1.0000
  N   N1        1.0  0.92475  0.68783  0.72785  1.0000
  N   N2        1.0  0.23717  0.31216  0.77200  1.0000
  N   N3        1.0  0.07525  0.31217  0.27215  1.0000
  N   N4        1.0  0.76284  0.68783  0.22800  1.0000
  O   O1        1.0  0.50860  0.77918  0.69484  1.0000
  O   O2        1.0  0.73002  0.22092  0.80533  1.0000
  O   O3        1.0  0.49139  0.22082  0.30516  1.0000
  O   O4        1.0  0.26998  0.77908  0.19467  1.0000
  O   O5        1.0  0.77193  0.07353  0.54894  1.0000
  O   O6        1.0  0.69839  0.92643  0.95114  1.0000
  O   O7        1.0  0.22807  0.92647  0.45106  1.0000
  O   O8        1.0  0.30161  0.07357  0.04886  1.0000
  O   O9        1.0  0.95295  0.83645  0.65433  1.0000
  O   O10       1.0  0.11685  0.16331  0.84542  1.0000
  O   O11       1.0  0.04704  0.16354  0.34567  1.0000
  O   O12       1.0  0.88315  0.83669  0.15458  1.0000
  O   O13       1.0  0.86421  0.68112  0.84701  1.0000
  O   O14       1.0  0.18313  0.31914  0.65298  1.0000
  O   O15       1.0  0.13579  0.31888  0.15300  1.0000
  O   O16       1.0  0.81688  0.68086  0.34701  1.0000
  O   O17       1.0  0.95898  0.55820  0.67353  1.0000
  O   O18       1.0  0.40122  0.44178  0.82623  1.0000
  O   O19       1.0  0.04102  0.44180  0.32647  1.0000
  O   O20       1.0  0.59878  0.55822  0.17376  1.0000
