data_image0
_chemical_formula_structural       Cu6H50W2C60S6Br2N20O2
_chemical_formula_sum              "Cu6 H50 W2 C60 S6 Br2 N20 O2"
_cell_length_a       10.7864
_cell_length_b       12.4767
_cell_length_c       14.4255
_cell_angle_alpha    66.8373
_cell_angle_beta     75.8335
_cell_angle_gamma    79.1786

_space_group_name_H-M_alt    "P 1"
_space_group_IT_number       1

loop_
  _space_group_symop_operation_xyz
  'x, y, z'

loop_
  _atom_site_type_symbol
  _atom_site_label
  _atom_site_symmetry_multiplicity
  _atom_site_fract_x
  _atom_site_fract_y
  _atom_site_fract_z
  _atom_site_occupancy
  Cu  Cu1       1.0  0.07793  0.76124  0.02433  1.0000
  Cu  Cu2       1.0  0.92207  0.23876  0.97567  1.0000
  Cu  Cu3       1.0  0.09432  0.45979  0.22459  1.0000
  Cu  Cu4       1.0  0.90568  0.54021  0.77541  1.0000
  Cu  Cu5       1.0  0.06841  0.71129  0.30605  1.0000
  Cu  Cu6       1.0  0.93159  0.28871  0.69396  1.0000
  H   H1        1.0  0.84673  0.75434  0.49134  1.0000
  H   H2        1.0  0.15327  0.24566  0.50866  1.0000
  H   H3        1.0  0.57393  0.76224  0.31945  1.0000
  H   H4        1.0  0.42607  0.23776  0.68055  1.0000
  H   H5        1.0  0.43841  0.85993  0.39761  1.0000
  H   H6        1.0  0.56159  0.14007  0.60239  1.0000
  H   H7        1.0  0.02760  0.19792  0.37868  1.0000
  H   H8        1.0  0.97241  0.80207  0.62132  1.0000
  H   H9        1.0  0.32141  0.31214  0.11971  1.0000
  H   H10       1.0  0.67859  0.68786  0.88029  1.0000
  H   H11       1.0  0.84465  0.62363  0.03019  1.0000
  H   H12       1.0  0.15535  0.37637  0.96981  1.0000
  H   H13       1.0  0.85769  0.41038  0.14349  1.0000
  H   H14       1.0  0.14231  0.58962  0.85651  1.0000
  H   H15       1.0  0.67611  0.08507  0.02887  1.0000
  H   H16       1.0  0.32389  0.91493  0.97113  1.0000
  H   H17       1.0  0.31923  0.73253  0.85624  1.0000
  H   H18       1.0  0.68077  0.26747  0.14376  1.0000
  H   H19       1.0  0.59105  0.70704  0.08617  1.0000
  H   H20       1.0  0.40895  0.29296  0.91383  1.0000
  H   H21       1.0  0.46385  0.54586  0.32359  1.0000
  H   H22       1.0  0.53615  0.45414  0.67641  1.0000
  H   H23       1.0  0.82090  0.71062  0.22245  1.0000
  H   H24       1.0  0.17909  0.28938  0.77755  1.0000
  H   H25       1.0  0.84108  0.95388  0.04699  1.0000
  H   H26       1.0  0.15892  0.04612  0.95301  1.0000
  H   H27       1.0  0.50938  0.78813  0.74504  1.0000
  H   H28       1.0  0.49062  0.21187  0.25496  1.0000
  H   H29       1.0  0.50153  0.20624  0.09576  1.0000
  H   H30       1.0  0.49847  0.79376  0.90424  1.0000
  H   H31       1.0  0.71219  0.40927  0.54781  1.0000
  H   H32       1.0  0.28781  0.59073  0.45219  1.0000
  H   H33       1.0  0.60678  0.42993  0.24947  1.0000
  H   H34       1.0  0.39322  0.57007  0.75053  1.0000
  H   H35       1.0  0.00106  0.98912  0.81743  1.0000
  H   H36       1.0  0.99894  0.01088  0.18257  1.0000
  H   H37       1.0  0.86505  0.47423  0.40805  1.0000
  H   H38       1.0  0.13495  0.52577  0.59194  1.0000
  H   H39       1.0  0.15254  0.01655  0.62680  1.0000
  H   H40       1.0  0.84745  0.98345  0.37320  1.0000
  H   H41       1.0  0.45135  0.78895  0.17941  1.0000
  H   H42       1.0  0.54866  0.21105  0.82059  1.0000
  H   H43       1.0  0.27546  0.91040  0.24629  1.0000
  H   H44       1.0  0.72454  0.08960  0.75371  1.0000
  H   H45       1.0  0.17067  0.00153  0.34596  1.0000
  H   H46       1.0  0.82933  0.99847  0.65404  1.0000
  H   H47       1.0  0.25906  0.89964  0.52487  1.0000
  H   H48       1.0  0.74094  0.10037  0.47512  1.0000
  H   H49       1.0  0.68576  0.73341  0.62246  1.0000
  H   H50       1.0  0.31424  0.26660  0.37754  1.0000
  W   W1        1.0  0.23361  0.64040  0.16186  1.0000
  W   W2        1.0  0.76639  0.35960  0.83814  1.0000
  C   C1        1.0  0.80638  0.74858  0.43183  1.0000
  C   C2        1.0  0.19362  0.25142  0.56817  1.0000
  C   C3        1.0  0.66635  0.75472  0.33922  1.0000
  C   C4        1.0  0.33365  0.24528  0.66078  1.0000
  C   C5        1.0  0.57549  0.79519  0.50046  1.0000
  C   C6        1.0  0.42451  0.20481  0.49954  1.0000
  C   C7        1.0  0.45533  0.84357  0.47361  1.0000
  C   C8        1.0  0.54466  0.15643  0.52639  1.0000
  C   C9        1.0  0.11084  0.19194  0.31996  1.0000
  C   C10       1.0  0.88916  0.80806  0.68004  1.0000
  C   C11       1.0  0.26263  0.25526  0.18693  1.0000
  C   C12       1.0  0.73737  0.74474  0.81307  1.0000
  C   C13       1.0  0.37751  0.06607  0.17856  1.0000
  C   C14       1.0  0.62249  0.93393  0.82144  1.0000
  C   C15       1.0  0.80624  0.70526  0.04140  1.0000
  C   C16       1.0  0.19376  0.29473  0.95860  1.0000
  C   C17       1.0  0.82192  0.42679  0.21434  1.0000
  C   C18       1.0  0.17808  0.57321  0.78567  1.0000
  C   C19       1.0  0.59022  0.04538  0.07885  1.0000
  C   C20       1.0  0.40978  0.95462  0.92115  1.0000
  C   C21       1.0  0.57822  0.92708  0.10400  1.0000
  C   C22       1.0  0.42178  0.07292  0.89600  1.0000
  C   C23       1.0  0.60012  0.47591  0.42729  1.0000
  C   C24       1.0  0.39988  0.52409  0.57270  1.0000
  C   C25       1.0  0.37294  0.84870  0.64312  1.0000
  C   C26       1.0  0.62706  0.15130  0.35688  1.0000
  C   C27       1.0  0.25497  0.80812  0.82146  1.0000
  C   C28       1.0  0.74502  0.19188  0.17854  1.0000
  C   C29       1.0  0.68048  0.74525  0.06886  1.0000
  C   C30       1.0  0.31952  0.25475  0.93114  1.0000
  C   C31       1.0  0.47992  0.52432  0.40098  1.0000
  C   C32       1.0  0.52008  0.47568  0.59902  1.0000
  C   C33       1.0  0.78861  0.72931  0.29222  1.0000
  C   C34       1.0  0.21139  0.27069  0.70778  1.0000
  C   C35       1.0  0.80961  0.87639  0.04697  1.0000
  C   C36       1.0  0.19039  0.12361  0.95303  1.0000
  C   C37       1.0  0.49363  0.80240  0.66925  1.0000
  C   C38       1.0  0.50637  0.19760  0.33075  1.0000
  C   C39       1.0  0.49031  0.11429  0.11647  1.0000
  C   C40       1.0  0.50970  0.88571  0.88353  1.0000
  C   C41       1.0  0.62009  0.45136  0.52618  1.0000
  C   C42       1.0  0.37991  0.54865  0.47382  1.0000
  C   C43       1.0  0.69763  0.43555  0.26573  1.0000
  C   C44       1.0  0.30236  0.56445  0.73427  1.0000
  C   C45       1.0  0.09073  0.93987  0.79762  1.0000
  C   C46       1.0  0.90927  0.06013  0.20239  1.0000
  C   C47       1.0  0.83094  0.45853  0.35035  1.0000
  C   C48       1.0  0.16907  0.54147  0.64965  1.0000
  C   C49       1.0  0.16487  0.95454  0.70229  1.0000
  C   C50       1.0  0.83512  0.04546  0.29771  1.0000
  C   C51       1.0  0.46395  0.87972  0.16286  1.0000
  C   C52       1.0  0.53605  0.12028  0.83714  1.0000
  C   C53       1.0  0.36355  0.94907  0.19991  1.0000
  C   C54       1.0  0.63646  0.05094  0.80009  1.0000
  C   C55       1.0  0.18137  0.09445  0.30523  1.0000
  C   C56       1.0  0.81864  0.90555  0.69476  1.0000
  C   C57       1.0  0.35376  0.86867  0.54512  1.0000
  C   C58       1.0  0.64624  0.13133  0.45488  1.0000
  C   C59       1.0  0.59415  0.77369  0.59915  1.0000
  C   C60       1.0  0.40585  0.22631  0.40085  1.0000
  S   S1        1.0  0.16792  0.57161  0.05847  1.0000
  S   S2        1.0  0.83208  0.42839  0.94154  1.0000
  S   S3        1.0  0.16310  0.52602  0.32778  1.0000
  S   S4        1.0  0.83690  0.47398  0.67222  1.0000
  S   S5        1.0  0.13369  0.82472  0.13593  1.0000
  S   S6        1.0  0.86631  0.17528  0.86407  1.0000
  Br  Br1       1.0  0.11874  0.79046  0.42745  1.0000
  Br  Br2       1.0  0.88126  0.20954  0.57255  1.0000
  N   N1        1.0  0.87491  0.72660  0.35017  1.0000
  N   N2        1.0  0.12509  0.27340  0.64983  1.0000
  N   N3        1.0  0.67797  0.76695  0.42825  1.0000
  N   N4        1.0  0.32203  0.23305  0.57175  1.0000
  N   N5        1.0  0.16271  0.29123  0.24581  1.0000
  N   N6        1.0  0.83729  0.70877  0.75420  1.0000
  N   N7        1.0  0.27802  0.13545  0.22021  1.0000
  N   N8        1.0  0.72198  0.86455  0.77979  1.0000
  N   N9        1.0  0.14785  0.84806  0.87121  1.0000
  N   N10       1.0  0.85215  0.15194  0.12879  1.0000
  N   N11       1.0  0.68359  0.85488  0.07158  1.0000
  N   N12       1.0  0.31641  0.14512  0.92842  1.0000
  N   N13       1.0  0.90376  0.44285  0.26724  1.0000
  N   N14       1.0  0.09623  0.55715  0.73276  1.0000
  N   N15       1.0  0.70435  0.45513  0.35264  1.0000
  N   N16       1.0  0.29565  0.54487  0.64736  1.0000
  N   N17       1.0  0.26993  0.87053  0.71818  1.0000
  N   N18       1.0  0.73006  0.12947  0.28182  1.0000
  N   N19       1.0  0.88581  0.78708  0.02889  1.0000
  N   N20       1.0  0.11420  0.21292  0.97111  1.0000
  O   O1        1.0  0.40173  0.63914  0.13623  1.0000
  O   O2        1.0  0.59827  0.36086  0.86377  1.0000
