data_image0
_chemical_formula_structural       Cd2H28C28S4N12
_chemical_formula_sum              "Cd2 H28 C28 S4 N12"
_cell_length_a       9.91968
_cell_length_b       10.3432
_cell_length_c       10.4257
_cell_angle_alpha    63.9179
_cell_angle_beta     63.6275
_cell_angle_gamma    82.0418

_space_group_name_H-M_alt    "P 1"
_space_group_IT_number       1

loop_
  _space_group_symop_operation_xyz
  'x, y, z'

loop_
  _atom_site_type_symbol
  _atom_site_label
  _atom_site_symmetry_multiplicity
  _atom_site_fract_x
  _atom_site_fract_y
  _atom_site_fract_z
  _atom_site_occupancy
  Cd  Cd1       1.0  0.11767  0.28668  0.40172  1.0000
  Cd  Cd2       1.0  0.88233  0.71332  0.59828  1.0000
  H   H1        1.0  0.95917  0.64165  0.24486  1.0000
  H   H2        1.0  0.04082  0.35835  0.75514  1.0000
  H   H3        1.0  0.09840  0.81350  0.91918  1.0000
  H   H4        1.0  0.90160  0.18650  0.08082  1.0000
  H   H5        1.0  0.34186  0.80074  0.70108  1.0000
  H   H6        1.0  0.65814  0.19926  0.29892  1.0000
  H   H7        1.0  0.45464  0.65425  0.74983  1.0000
  H   H8        1.0  0.54536  0.34575  0.25017  1.0000
  H   H9        1.0  0.37318  0.65081  0.55513  1.0000
  H   H10       1.0  0.62682  0.34919  0.44487  1.0000
  H   H11       1.0  0.18119  0.63873  0.68964  1.0000
  H   H12       1.0  0.81882  0.36127  0.31036  1.0000
  H   H13       1.0  0.29870  0.49465  0.73610  1.0000
  H   H14       1.0  0.70130  0.50535  0.26390  1.0000
  H   H15       1.0  0.57463  0.32319  0.86339  1.0000
  H   H16       1.0  0.42537  0.67681  0.13661  1.0000
  H   H17       1.0  0.75547  0.13591  0.83454  1.0000
  H   H18       1.0  0.24454  0.86409  0.16546  1.0000
  H   H19       1.0  0.52261  0.86536  0.33448  1.0000
  H   H20       1.0  0.47739  0.13464  0.66553  1.0000
  H   H21       1.0  0.34169  0.05363  0.36378  1.0000
  H   H22       1.0  0.65831  0.94637  0.63623  1.0000
  H   H23       1.0  0.84509  0.90623  0.94245  1.0000
  H   H24       1.0  0.15491  0.09377  0.05755  1.0000
  H   H25       1.0  0.70058  0.77125  0.10040  1.0000
  H   H26       1.0  0.29942  0.22875  0.89960  1.0000
  H   H27       1.0  0.81689  0.84738  0.14188  1.0000
  H   H28       1.0  0.18311  0.15262  0.85812  1.0000
  C   C1        1.0  0.18750  0.55916  0.44381  1.0000
  C   C2        1.0  0.81250  0.44085  0.55619  1.0000
  C   C3        1.0  0.06115  0.93872  0.64779  1.0000
  C   C4        1.0  0.93885  0.06128  0.35221  1.0000
  C   C5        1.0  0.05437  0.62115  0.15275  1.0000
  C   C6        1.0  0.94563  0.37885  0.84725  1.0000
  C   C7        1.0  0.12190  0.70773  0.99067  1.0000
  C   C8        1.0  0.87810  0.29227  0.00933  1.0000
  C   C9        1.0  0.24140  0.50906  0.04728  1.0000
  C   C10       1.0  0.75859  0.49094  0.95271  1.0000
  C   C11       1.0  0.34152  0.68269  0.75741  1.0000
  C   C12       1.0  0.65848  0.31731  0.24259  1.0000
  C   C13       1.0  0.29481  0.61224  0.68094  1.0000
  C   C14       1.0  0.70519  0.38776  0.31906  1.0000
  C   C15       1.0  0.44580  0.19962  0.11535  1.0000
  C   C16       1.0  0.55420  0.80038  0.88465  1.0000
  C   C17       1.0  0.56337  0.22227  0.96573  1.0000
  C   C18       1.0  0.43663  0.77773  0.03427  1.0000
  C   C19       1.0  0.66412  0.11664  0.95075  1.0000
  C   C20       1.0  0.33588  0.88336  0.04925  1.0000
  C   C21       1.0  0.65115  0.98634  0.08245  1.0000
  C   C22       1.0  0.34885  0.01366  0.91755  1.0000
  C   C23       1.0  0.53392  0.96558  0.23105  1.0000
  C   C24       1.0  0.46607  0.03442  0.76895  1.0000
  C   C25       1.0  0.43231  0.07018  0.24812  1.0000
  C   C26       1.0  0.56769  0.92982  0.75188  1.0000
  C   C27       1.0  0.75968  0.87225  0.06509  1.0000
  C   C28       1.0  0.24032  0.12775  0.93491  1.0000
  S   S1        1.0  0.29853  0.42680  0.44747  1.0000
  S   S2        1.0  0.70148  0.57319  0.55253  1.0000
  S   S3        1.0  0.15308  0.06241  0.64199  1.0000
  S   S4        1.0  0.84692  0.93759  0.35801  1.0000
  N   N1        1.0  0.10812  0.65611  0.43976  1.0000
  N   N2        1.0  0.89188  0.34388  0.56024  1.0000
  N   N3        1.0  0.99510  0.84698  0.65573  1.0000
  N   N4        1.0  0.00490  0.15302  0.34427  1.0000
  N   N5        1.0  0.12910  0.49900  0.18566  1.0000
  N   N6        1.0  0.87090  0.50100  0.81434  1.0000
  N   N7        1.0  0.23904  0.63609  0.92564  1.0000
  N   N8        1.0  0.76096  0.36392  0.07436  1.0000
  N   N9        1.0  0.34716  0.41326  0.01899  1.0000
  N   N10       1.0  0.65284  0.58674  0.98101  1.0000
  N   N11       1.0  0.33900  0.29994  0.14225  1.0000
  N   N12       1.0  0.66100  0.70006  0.85775  1.0000
