data_image0
_chemical_formula_structural       Gd2H12C8O16
_chemical_formula_sum              "Gd2 H12 C8 O16"
_cell_length_a       7.38053
_cell_length_b       7.8665
_cell_length_c       8.49011
_cell_angle_alpha    112.075
_cell_angle_beta     98.4686
_cell_angle_gamma    113.93

_space_group_name_H-M_alt    "P 1"
_space_group_IT_number       1

loop_
  _space_group_symop_operation_xyz
  'x, y, z'

loop_
  _atom_site_type_symbol
  _atom_site_label
  _atom_site_symmetry_multiplicity
  _atom_site_fract_x
  _atom_site_fract_y
  _atom_site_fract_z
  _atom_site_occupancy
  Gd  Gd1       1.0  0.66373  0.85077  0.38312  1.0000
  Gd  Gd2       1.0  0.33627  0.14923  0.61688  1.0000
  H   H1        1.0  0.17128  0.97188  0.05768  1.0000
  H   H2        1.0  0.82873  0.02812  0.94233  1.0000
  H   H3        1.0  0.01566  0.69250  0.94025  1.0000
  H   H4        1.0  0.98434  0.30751  0.05975  1.0000
  H   H5        1.0  0.78807  0.28997  0.47155  1.0000
  H   H6        1.0  0.21193  0.71003  0.52845  1.0000
  H   H7        1.0  0.97336  0.25482  0.41180  1.0000
  H   H8        1.0  0.02664  0.74518  0.58820  1.0000
  H   H9        1.0  0.42347  0.38474  0.10290  1.0000
  H   H10       1.0  0.57653  0.61526  0.89710  1.0000
  H   H11       1.0  0.65038  0.44457  0.11077  1.0000
  H   H12       1.0  0.34961  0.55543  0.88923  1.0000
  C   C1        1.0  0.10450  0.83037  0.07672  1.0000
  C   C2        1.0  0.89551  0.16964  0.92328  1.0000
  C   C3        1.0  0.61581  0.52792  0.54160  1.0000
  C   C4        1.0  0.38419  0.47210  0.45839  1.0000
  C   C5        1.0  0.28536  0.82457  0.17742  1.0000
  C   C6        1.0  0.71465  0.17543  0.82258  1.0000
  C   C7        1.0  0.95159  0.84545  0.17494  1.0000
  C   C8        1.0  0.04841  0.15455  0.82506  1.0000
  O   O1        1.0  0.64248  0.40141  0.58721  1.0000
  O   O2        1.0  0.35752  0.59858  0.41279  1.0000
  O   O3        1.0  0.39032  0.96082  0.34596  1.0000
  O   O4        1.0  0.60968  0.03918  0.65404  1.0000
  O   O5        1.0  0.76228  0.69737  0.55910  1.0000
  O   O6        1.0  0.23770  0.30262  0.44089  1.0000
  O   O7        1.0  0.77868  0.82130  0.09204  1.0000
  O   O8        1.0  0.22132  0.17870  0.90796  1.0000
  O   O9        1.0  0.57198  0.48610  0.18859  1.0000
  O   O10       1.0  0.42802  0.51390  0.81140  1.0000
  O   O11       1.0  0.81822  0.18867  0.38522  1.0000
  O   O12       1.0  0.18178  0.81133  0.61478  1.0000
  O   O13       1.0  0.99439  0.87971  0.33993  1.0000
  O   O14       1.0  0.00561  0.12030  0.66007  1.0000
  O   O15       1.0  0.33911  0.69008  0.09962  1.0000
  O   O16       1.0  0.66089  0.30992  0.90038  1.0000
