data_image0
_chemical_formula_structural       Gd2H8C8O14
_chemical_formula_sum              "Gd2 H8 C8 O14"
_cell_length_a       6.73537
_cell_length_b       7.47315
_cell_length_c       7.83601
_cell_angle_alpha    98.6543
_cell_angle_beta     113.328
_cell_angle_gamma    110.236

_space_group_name_H-M_alt    "P 1"
_space_group_IT_number       1

loop_
  _space_group_symop_operation_xyz
  'x, y, z'

loop_
  _atom_site_type_symbol
  _atom_site_label
  _atom_site_symmetry_multiplicity
  _atom_site_fract_x
  _atom_site_fract_y
  _atom_site_fract_z
  _atom_site_occupancy
  Gd  Gd1       1.0  0.17650  0.30742  0.53345  1.0000
  Gd  Gd2       1.0  0.82350  0.69258  0.46655  1.0000
  H   H1        1.0  0.04275  0.70907  0.08323  1.0000
  H   H2        1.0  0.95725  0.29093  0.91678  1.0000
  H   H3        1.0  0.35746  0.83527  0.17571  1.0000
  H   H4        1.0  0.64254  0.16473  0.82429  1.0000
  H   H5        1.0  0.72633  0.21632  0.18873  1.0000
  H   H6        1.0  0.27367  0.78368  0.81127  1.0000
  H   H7        1.0  0.75624  0.00863  0.16484  1.0000
  H   H8        1.0  0.24377  0.99137  0.83516  1.0000
  C   C1        1.0  0.21885  0.97299  0.32933  1.0000
  C   C2        1.0  0.78115  0.02702  0.67067  1.0000
  C   C3        1.0  0.21809  0.78724  0.22002  1.0000
  C   C4        1.0  0.78192  0.21277  0.77998  1.0000
  C   C5        1.0  0.51487  0.60496  0.99223  1.0000
  C   C6        1.0  0.48514  0.39503  0.00779  1.0000
  C   C7        1.0  0.24534  0.63946  0.32924  1.0000
  C   C8        1.0  0.75466  0.36055  0.67076  1.0000
  O   O1        1.0  0.14738  0.96251  0.46016  1.0000
  O   O2        1.0  0.85262  0.03750  0.53984  1.0000
  O   O3        1.0  0.28709  0.13474  0.29412  1.0000
  O   O4        1.0  0.71291  0.86527  0.70588  1.0000
  O   O5        1.0  0.66964  0.75578  0.14761  1.0000
  O   O6        1.0  0.33036  0.24420  0.85238  1.0000
  O   O7        1.0  0.11447  0.58251  0.41111  1.0000
  O   O8        1.0  0.88554  0.41750  0.58889  1.0000
  O   O9        1.0  0.38097  0.60872  0.82730  1.0000
  O   O10       1.0  0.61902  0.39127  0.17269  1.0000
  O   O11       1.0  0.39190  0.56808  0.33297  1.0000
  O   O12       1.0  0.60810  0.43193  0.66703  1.0000
  O   O13       1.0  0.84321  0.15847  0.20882  1.0000
  O   O14       1.0  0.15679  0.84152  0.79118  1.0000
