data_image0
_chemical_formula_structural       Gd2H4C8O12
_chemical_formula_sum              "Gd2 H4 C8 O12"
_cell_length_a       6.81139
_cell_length_b       6.95117
_cell_length_c       7.42062
_cell_angle_alpha    86.4416
_cell_angle_beta     64.3968
_cell_angle_gamma    67.7749

_space_group_name_H-M_alt    "P 1"
_space_group_IT_number       1

loop_
  _space_group_symop_operation_xyz
  'x, y, z'

loop_
  _atom_site_type_symbol
  _atom_site_label
  _atom_site_symmetry_multiplicity
  _atom_site_fract_x
  _atom_site_fract_y
  _atom_site_fract_z
  _atom_site_occupancy
  Gd  Gd1       1.0  0.30039  0.32601  0.05589  1.0000
  Gd  Gd2       1.0  0.69961  0.67399  0.94411  1.0000
  H   H1        1.0  0.09836  0.96386  0.71225  1.0000
  H   H2        1.0  0.90164  0.03614  0.28775  1.0000
  H   H3        1.0  0.40412  0.83106  0.55302  1.0000
  H   H4        1.0  0.59588  0.16894  0.44699  1.0000
  C   C1        1.0  0.32571  0.01010  0.81611  1.0000
  C   C2        1.0  0.67429  0.98990  0.18389  1.0000
  C   C3        1.0  0.27005  0.87215  0.71176  1.0000
  C   C4        1.0  0.72995  0.12785  0.28824  1.0000
  C   C5        1.0  0.02524  0.38623  0.52805  1.0000
  C   C6        1.0  0.97476  0.61377  0.47194  1.0000
  C   C7        1.0  0.27145  0.67835  0.81279  1.0000
  C   C8        1.0  0.72855  0.32165  0.18721  1.0000
  O   O1        1.0  0.92956  0.36568  0.71201  1.0000
  O   O2        1.0  0.07044  0.63432  0.28799  1.0000
  O   O3        1.0  0.35996  0.16994  0.74435  1.0000
  O   O4        1.0  0.64003  0.83007  0.25565  1.0000
  O   O5        1.0  0.32758  0.96580  0.98839  1.0000
  O   O6        1.0  0.67242  0.03420  0.01161  1.0000
  O   O7        1.0  0.09961  0.62068  0.87519  1.0000
  O   O8        1.0  0.90039  0.37931  0.12481  1.0000
  O   O9        1.0  0.15908  0.23912  0.38315  1.0000
  O   O10       1.0  0.84092  0.76088  0.61685  1.0000
  O   O11       1.0  0.45398  0.56676  0.84050  1.0000
  O   O12       1.0  0.54602  0.43324  0.15950  1.0000
