data_image0
_chemical_formula_structural       Tl4H44C32N8O8
_chemical_formula_sum              "Tl4 H44 C32 N8 O8"
_cell_length_a       6.56411
_cell_length_b       10.8882
_cell_length_c       14.065
_cell_angle_alpha    89.9994
_cell_angle_beta     101.467
_cell_angle_gamma    89.9952

_space_group_name_H-M_alt    "P 1"
_space_group_IT_number       1

loop_
  _space_group_symop_operation_xyz
  'x, y, z'

loop_
  _atom_site_type_symbol
  _atom_site_label
  _atom_site_symmetry_multiplicity
  _atom_site_fract_x
  _atom_site_fract_y
  _atom_site_fract_z
  _atom_site_occupancy
  Tl  Tl1       1.0  0.59057  0.01229  0.35831  1.0000
  Tl  Tl2       1.0  0.59054  0.48770  0.85830  1.0000
  Tl  Tl3       1.0  0.40944  0.98772  0.64170  1.0000
  Tl  Tl4       1.0  0.40946  0.51230  0.14170  1.0000
  H   H1        1.0  0.73730  0.24732  0.77064  1.0000
  H   H2        1.0  0.73732  0.25265  0.27066  1.0000
  H   H3        1.0  0.26272  0.75268  0.22935  1.0000
  H   H4        1.0  0.26268  0.74734  0.72934  1.0000
  H   H5        1.0  0.71752  0.16650  0.65826  1.0000
  H   H6        1.0  0.71753  0.33347  0.15827  1.0000
  H   H7        1.0  0.28248  0.83349  0.34173  1.0000
  H   H8        1.0  0.28246  0.66652  0.84173  1.0000
  H   H9        1.0  0.76040  0.45765  0.42186  1.0000
  H   H10       1.0  0.76035  0.04233  0.92186  1.0000
  H   H11       1.0  0.23961  0.54237  0.57814  1.0000
  H   H12       1.0  0.23960  0.95766  0.07814  1.0000
  H   H13       1.0  0.79737  0.65644  0.51728  1.0000
  H   H14       1.0  0.79734  0.84355  0.01727  1.0000
  H   H15       1.0  0.20265  0.34358  0.48273  1.0000
  H   H16       1.0  0.20259  0.15645  0.98271  1.0000
  H   H17       1.0  0.76860  0.64624  0.69178  1.0000
  H   H18       1.0  0.76860  0.85373  0.19177  1.0000
  H   H19       1.0  0.23141  0.35377  0.30823  1.0000
  H   H20       1.0  0.23138  0.14625  0.80821  1.0000
  H   H21       1.0  0.18639  0.02684  0.25670  1.0000
  H   H22       1.0  0.18637  0.47317  0.75671  1.0000
  H   H23       1.0  0.81361  0.97316  0.74329  1.0000
  H   H24       1.0  0.81364  0.52680  0.24330  1.0000
  H   H25       1.0  0.32653  0.16586  0.24584  1.0000
  H   H26       1.0  0.32653  0.33414  0.74584  1.0000
  H   H27       1.0  0.67347  0.83414  0.75416  1.0000
  H   H28       1.0  0.67350  0.66583  0.25417  1.0000
  H   H29       1.0  0.22953  0.13507  0.35456  1.0000
  H   H30       1.0  0.22953  0.36492  0.85457  1.0000
  H   H31       1.0  0.77046  0.86493  0.64544  1.0000
  H   H32       1.0  0.77050  0.63504  0.14545  1.0000
  H   H33       1.0  0.84686  0.87362  0.48818  1.0000
  H   H34       1.0  0.84679  0.62636  0.98817  1.0000
  H   H35       1.0  0.15315  0.12638  0.51182  1.0000
  H   H36       1.0  0.15320  0.37365  0.01183  1.0000
  H   H37       1.0  0.99316  0.94587  0.40851  1.0000
  H   H38       1.0  0.99313  0.55412  0.90851  1.0000
  H   H39       1.0  0.00685  0.05414  0.59150  1.0000
  H   H40       1.0  0.00687  0.44589  0.09151  1.0000
  H   H41       1.0  0.83987  0.81215  0.36911  1.0000
  H   H42       1.0  0.83981  0.68784  0.86910  1.0000
  H   H43       1.0  0.16014  0.18786  0.63090  1.0000
  H   H44       1.0  0.16017  0.31217  0.13091  1.0000
  C   C1        1.0  0.70142  0.23242  0.48548  1.0000
  C   C2        1.0  0.70139  0.26757  0.98548  1.0000
  C   C3        1.0  0.29860  0.76760  0.51452  1.0000
  C   C4        1.0  0.29858  0.73242  0.01451  1.0000
  C   C5        1.0  0.73192  0.34769  0.54393  1.0000
  C   C6        1.0  0.73189  0.15230  0.04394  1.0000
  C   C7        1.0  0.26811  0.65233  0.45607  1.0000
  C   C8        1.0  0.26807  0.84769  0.95606  1.0000
  C   C9        1.0  0.75691  0.45909  0.49893  1.0000
  C   C10       1.0  0.75687  0.04089  0.99893  1.0000
  C   C11       1.0  0.24311  0.54092  0.50107  1.0000
  C   C12       1.0  0.24310  0.95911  0.00106  1.0000
  C   C13       1.0  0.77563  0.56885  0.55107  1.0000
  C   C14       1.0  0.77558  0.93114  0.05106  1.0000
  C   C15       1.0  0.22442  0.43116  0.44895  1.0000
  C   C16       1.0  0.22440  0.06886  0.94893  1.0000
  C   C17       1.0  0.76188  0.56271  0.64826  1.0000
  C   C18       1.0  0.76189  0.93727  0.14826  1.0000
  C   C19       1.0  0.23815  0.43729  0.35175  1.0000
  C   C20       1.0  0.23810  0.06273  0.85174  1.0000
  C   C21       1.0  0.73031  0.34979  0.64567  1.0000
  C   C22       1.0  0.73032  0.15018  0.14568  1.0000
  C   C23       1.0  0.26971  0.65022  0.35433  1.0000
  C   C24       1.0  0.26965  0.84980  0.85432  1.0000
  C   C25       1.0  0.29475  0.09466  0.29586  1.0000
  C   C26       1.0  0.29474  0.40534  0.79587  1.0000
  C   C27       1.0  0.70524  0.90534  0.70414  1.0000
  C   C28       1.0  0.70529  0.59464  0.20414  1.0000
  C   C29       1.0  0.85090  0.89600  0.41283  1.0000
  C   C30       1.0  0.85085  0.60399  0.91282  1.0000
  C   C31       1.0  0.14910  0.10401  0.58718  1.0000
  C   C32       1.0  0.14913  0.39602  0.08719  1.0000
  N   N1        1.0  0.73905  0.45765  0.69482  1.0000
  N   N2        1.0  0.73905  0.04233  0.19482  1.0000
  N   N3        1.0  0.26097  0.54235  0.30518  1.0000
  N   N4        1.0  0.26090  0.95766  0.80517  1.0000
  N   N5        1.0  0.72204  0.24575  0.69686  1.0000
  N   N6        1.0  0.72205  0.25421  0.19687  1.0000
  N   N7        1.0  0.27798  0.75425  0.30314  1.0000
  N   N8        1.0  0.27794  0.74577  0.80313  1.0000
  O   O1        1.0  0.63991  0.13489  0.52270  1.0000
  O   O2        1.0  0.63995  0.36512  0.02270  1.0000
  O   O3        1.0  0.36009  0.86514  0.47730  1.0000
  O   O4        1.0  0.36006  0.63488  0.97729  1.0000
  O   O5        1.0  0.73430  0.23422  0.39906  1.0000
  O   O6        1.0  0.73427  0.26576  0.89905  1.0000
  O   O7        1.0  0.26572  0.76579  0.60095  1.0000
  O   O8        1.0  0.26574  0.73424  0.10094  1.0000
