data_image0
_chemical_formula_structural       Zn6H24C44N12O24
_chemical_formula_sum              "Zn6 H24 C44 N12 O24"
_cell_length_a       7.89377
_cell_length_b       9.10406
_cell_length_c       19.041
_cell_angle_alpha    90
_cell_angle_beta     90
_cell_angle_gamma    110.478

_space_group_name_H-M_alt    "P 1"
_space_group_IT_number       1

loop_
  _space_group_symop_operation_xyz
  'x, y, z'

loop_
  _atom_site_type_symbol
  _atom_site_label
  _atom_site_symmetry_multiplicity
  _atom_site_fract_x
  _atom_site_fract_y
  _atom_site_fract_z
  _atom_site_occupancy
  Zn  Zn1       1.0  0.00000  1.00000  0.50000  1.0000
  Zn  Zn2       1.0  0.50000  0.00000  1.00000  1.0000
  Zn  Zn3       1.0  0.83288  0.30515  0.47088  1.0000
  Zn  Zn4       1.0  0.66712  0.69485  0.97088  1.0000
  Zn  Zn5       1.0  0.16713  0.69485  0.52912  1.0000
  Zn  Zn6       1.0  0.33288  0.30515  0.02912  1.0000
  H   H1        1.0  0.95939  0.87981  0.30334  1.0000
  H   H2        1.0  0.54061  0.12019  0.80334  1.0000
  H   H3        1.0  0.04061  0.12019  0.69665  1.0000
  H   H4        1.0  0.45940  0.87981  0.19666  1.0000
  H   H5        1.0  0.93221  0.78846  0.17922  1.0000
  H   H6        1.0  0.56778  0.21154  0.67922  1.0000
  H   H7        1.0  0.06779  0.21155  0.82078  1.0000
  H   H8        1.0  0.43221  0.78846  0.32078  1.0000
  H   H9        1.0  0.81527  0.19577  0.11544  1.0000
  H   H10       1.0  0.68473  0.80424  0.61544  1.0000
  H   H11       1.0  0.18473  0.80424  0.88456  1.0000
  H   H12       1.0  0.31526  0.19576  0.38456  1.0000
  H   H13       1.0  0.83715  0.28511  0.24021  1.0000
  H   H14       1.0  0.66284  0.71489  0.74020  1.0000
  H   H15       1.0  0.16283  0.71488  0.75979  1.0000
  H   H16       1.0  0.33716  0.28511  0.25979  1.0000
  H   H17       1.0  0.38217  0.22320  0.57644  1.0000
  H   H18       1.0  0.11783  0.77681  0.07645  1.0000
  H   H19       1.0  0.61784  0.77681  0.42356  1.0000
  H   H20       1.0  0.88216  0.22319  0.92356  1.0000
  H   H21       1.0  0.45141  0.54512  0.59427  1.0000
  H   H22       1.0  0.04859  0.45488  0.09427  1.0000
  H   H23       1.0  0.54860  0.45489  0.40573  1.0000
  H   H24       1.0  0.95140  0.54512  0.90573  1.0000
  C   C1        1.0  0.89976  0.12934  0.35568  1.0000
  C   C2        1.0  0.60024  0.87066  0.85568  1.0000
  C   C3        1.0  0.10024  0.87065  0.64432  1.0000
  C   C4        1.0  0.39976  0.12936  0.14433  1.0000
  C   C5        1.0  0.89568  0.08600  0.27966  1.0000
  C   C6        1.0  0.60432  0.91401  0.77966  1.0000
  C   C7        1.0  0.10432  0.91400  0.72034  1.0000
  C   C8        1.0  0.39568  0.08599  0.22034  1.0000
  C   C9        1.0  0.92678  0.94793  0.26193  1.0000
  C   C10       1.0  0.57321  0.05207  0.76193  1.0000
  C   C11       1.0  0.07321  0.05207  0.73807  1.0000
  C   C12       1.0  0.42679  0.94793  0.23807  1.0000
  C   C13       1.0  0.91198  0.89745  0.19266  1.0000
  C   C14       1.0  0.58801  0.10256  0.69266  1.0000
  C   C15       1.0  0.08802  0.10256  0.80734  1.0000
  C   C16       1.0  0.41199  0.89744  0.30734  1.0000
  C   C17       1.0  0.86765  0.98495  0.13973  1.0000
  C   C18       1.0  0.63234  0.01505  0.63973  1.0000
  C   C19       1.0  0.13234  0.01506  0.86027  1.0000
  C   C20       1.0  0.36766  0.98495  0.36027  1.0000
  C   C21       1.0  0.84912  0.12850  0.15690  1.0000
  C   C22       1.0  0.65088  0.87151  0.65690  1.0000
  C   C23       1.0  0.15088  0.87151  0.84311  1.0000
  C   C24       1.0  0.34912  0.12849  0.34310  1.0000
  C   C25       1.0  0.86098  0.17790  0.22647  1.0000
  C   C26       1.0  0.63901  0.82210  0.72647  1.0000
  C   C27       1.0  0.13901  0.82210  0.77353  1.0000
  C   C28       1.0  0.36099  0.17790  0.27353  1.0000
  C   C29       1.0  0.81856  0.91833  0.06787  1.0000
  C   C30       1.0  0.68144  0.08168  0.56787  1.0000
  C   C31       1.0  0.18143  0.08168  0.93213  1.0000
  C   C32       1.0  0.31856  0.91832  0.43213  1.0000
  C   C33       1.0  0.30226  0.29447  0.56272  1.0000
  C   C34       1.0  0.19774  0.70553  0.06273  1.0000
  C   C35       1.0  0.69775  0.70554  0.43728  1.0000
  C   C36       1.0  0.80225  0.29446  0.93728  1.0000
  C   C37       1.0  0.33776  0.45400  0.57062  1.0000
  C   C38       1.0  0.16224  0.54601  0.07062  1.0000
  C   C39       1.0  0.66224  0.54600  0.42938  1.0000
  C   C40       1.0  0.83776  0.45400  0.92938  1.0000
  C   C41       1.0  0.12276  0.53213  0.31986  1.0000
  C   C42       1.0  0.37725  0.46785  0.81985  1.0000
  C   C43       1.0  0.87726  0.46785  0.68014  1.0000
  C   C44       1.0  0.62276  0.53214  0.18014  1.0000
  N   N1        1.0  0.14212  0.23449  0.52919  1.0000
  N   N2        1.0  0.35788  0.76552  0.02919  1.0000
  N   N3        1.0  0.85788  0.76551  0.47081  1.0000
  N   N4        1.0  0.64211  0.23449  0.97081  1.0000
  N   N5        1.0  0.08104  0.35050  0.51638  1.0000
  N   N6        1.0  0.41895  0.64950  0.01638  1.0000
  N   N7        1.0  0.91896  0.64950  0.48362  1.0000
  N   N8        1.0  0.58103  0.35050  0.98362  1.0000
  N   N9        1.0  0.19807  0.48532  0.54140  1.0000
  N   N10       1.0  0.30193  0.51468  0.04141  1.0000
  N   N11       1.0  0.80194  0.51468  0.45859  1.0000
  N   N12       1.0  0.69806  0.48532  0.95859  1.0000
  O   O1        1.0  0.97065  0.05987  0.39710  1.0000
  O   O2        1.0  0.52934  0.94013  0.89710  1.0000
  O   O3        1.0  0.02933  0.94013  0.60290  1.0000
  O   O4        1.0  0.47067  0.05987  0.10290  1.0000
  O   O5        1.0  0.83139  0.23391  0.37320  1.0000
  O   O6        1.0  0.66861  0.76610  0.87320  1.0000
  O   O7        1.0  0.16861  0.76610  0.62680  1.0000
  O   O8        1.0  0.33140  0.23390  0.12680  1.0000
  O   O9        1.0  0.82325  0.78031  0.05543  1.0000
  O   O10       1.0  0.67674  0.21969  0.55542  1.0000
  O   O11       1.0  0.17674  0.21969  0.94458  1.0000
  O   O12       1.0  0.32326  0.78031  0.44458  1.0000
  O   O13       1.0  0.76382  0.99249  0.02215  1.0000
  O   O14       1.0  0.73618  0.00751  0.52215  1.0000
  O   O15       1.0  0.23618  0.00751  0.97785  1.0000
  O   O16       1.0  0.26382  0.99249  0.47785  1.0000
  O   O17       1.0  0.22781  0.47580  0.33920  1.0000
  O   O18       1.0  0.27220  0.52419  0.83919  1.0000
  O   O19       1.0  0.77220  0.52419  0.66082  1.0000
  O   O20       1.0  0.72781  0.47580  0.16082  1.0000
  O   O21       1.0  0.01873  0.58895  0.30003  1.0000
  O   O22       1.0  0.48128  0.41103  0.80002  1.0000
  O   O23       1.0  0.98130  0.41102  0.69996  1.0000
  O   O24       1.0  0.51872  0.58898  0.19996  1.0000
