data_image0
_chemical_formula_structural       Zn6H24C44N12O24
_chemical_formula_sum              "Zn6 H24 C44 N12 O24"
_cell_length_a       7.74097
_cell_length_b       8.72948
_cell_length_c       19.38
_cell_angle_alpha    90
_cell_angle_beta     90
_cell_angle_gamma    110.597

_space_group_name_H-M_alt    "P 1"
_space_group_IT_number       1

loop_
  _space_group_symop_operation_xyz
  'x, y, z'

loop_
  _atom_site_type_symbol
  _atom_site_label
  _atom_site_symmetry_multiplicity
  _atom_site_fract_x
  _atom_site_fract_y
  _atom_site_fract_z
  _atom_site_occupancy
  Zn  Zn1       1.0  0.50000  0.99999  0.50000  1.0000
  Zn  Zn2       1.0  0.00000  0.00001  1.00000  1.0000
  Zn  Zn3       1.0  0.97628  0.29169  0.47480  1.0000
  Zn  Zn4       1.0  0.52371  0.70831  0.97480  1.0000
  Zn  Zn5       1.0  0.02370  0.70830  0.52520  1.0000
  Zn  Zn6       1.0  0.47629  0.29170  0.02520  1.0000
  H   H1        1.0  0.46238  0.86805  0.30876  1.0000
  H   H2        1.0  0.03762  0.13194  0.80876  1.0000
  H   H3        1.0  0.53761  0.13194  0.69123  1.0000
  H   H4        1.0  0.96239  0.86806  0.19124  1.0000
  H   H5        1.0  0.39990  0.80047  0.18389  1.0000
  H   H6        1.0  0.10010  0.19952  0.68389  1.0000
  H   H7        1.0  0.60011  0.19955  0.81611  1.0000
  H   H8        1.0  0.89990  0.80047  0.31611  1.0000
  H   H9        1.0  0.89795  0.19163  0.13023  1.0000
  H   H10       1.0  0.60205  0.80836  0.63024  1.0000
  H   H11       1.0  0.10205  0.80836  0.86977  1.0000
  H   H12       1.0  0.39797  0.19165  0.36977  1.0000
  H   H13       1.0  0.95767  0.26576  0.25474  1.0000
  H   H14       1.0  0.54231  0.73424  0.75474  1.0000
  H   H15       1.0  0.04231  0.73420  0.74526  1.0000
  H   H16       1.0  0.45769  0.26578  0.24526  1.0000
  H   H17       1.0  0.37175  0.27707  0.58181  1.0000
  H   H18       1.0  0.12825  0.72293  0.08181  1.0000
  H   H19       1.0  0.62824  0.72294  0.41819  1.0000
  H   H20       1.0  0.87175  0.27707  0.91819  1.0000
  H   H21       1.0  0.61825  0.59962  0.60000  1.0000
  H   H22       1.0  0.88175  0.40039  0.10000  1.0000
  H   H23       1.0  0.38174  0.40038  0.40000  1.0000
  H   H24       1.0  0.11825  0.59962  0.90001  1.0000
  C   C1        1.0  0.74485  0.10971  0.36399  1.0000
  C   C2        1.0  0.75515  0.89029  0.86399  1.0000
  C   C3        1.0  0.25516  0.89028  0.63601  1.0000
  C   C4        1.0  0.24485  0.10971  0.13601  1.0000
  C   C5        1.0  0.71355  0.07096  0.28913  1.0000
  C   C6        1.0  0.78644  0.92903  0.78913  1.0000
  C   C7        1.0  0.28644  0.92902  0.71087  1.0000
  C   C8        1.0  0.21357  0.07098  0.21087  1.0000
  C   C9        1.0  0.55726  0.93850  0.26932  1.0000
  C   C10       1.0  0.94274  0.06149  0.76932  1.0000
  C   C11       1.0  0.44273  0.06148  0.73067  1.0000
  C   C12       1.0  0.05727  0.93852  0.23067  1.0000
  C   C13       1.0  0.52320  0.90017  0.20005  1.0000
  C   C14       1.0  0.97679  0.09983  0.70005  1.0000
  C   C15       1.0  0.47678  0.09984  0.79995  1.0000
  C   C16       1.0  0.02322  0.90017  0.29995  1.0000
  C   C17       1.0  0.64602  0.99188  0.14982  1.0000
  C   C18       1.0  0.85398  0.00811  0.64982  1.0000
  C   C19       1.0  0.35398  0.00812  0.85018  1.0000
  C   C20       1.0  0.14603  0.99188  0.35018  1.0000
  C   C21       1.0  0.80011  0.12610  0.16967  1.0000
  C   C22       1.0  0.69989  0.87391  0.66967  1.0000
  C   C23       1.0  0.19990  0.87391  0.83033  1.0000
  C   C24       1.0  0.30010  0.12610  0.33034  1.0000
  C   C25       1.0  0.83395  0.16590  0.23890  1.0000
  C   C26       1.0  0.66604  0.83409  0.73890  1.0000
  C   C27       1.0  0.16605  0.83409  0.76110  1.0000
  C   C28       1.0  0.33396  0.16591  0.26110  1.0000
  C   C29       1.0  0.62294  0.94050  0.07617  1.0000
  C   C30       1.0  0.87706  0.05948  0.57617  1.0000
  C   C31       1.0  0.37706  0.05949  0.92382  1.0000
  C   C32       1.0  0.12295  0.94052  0.42382  1.0000
  C   C33       1.0  0.51287  0.33703  0.56464  1.0000
  C   C34       1.0  0.98713  0.66297  0.06464  1.0000
  C   C35       1.0  0.48713  0.66297  0.43536  1.0000
  C   C36       1.0  0.01287  0.33703  0.93536  1.0000
  C   C37       1.0  0.63352  0.49675  0.57297  1.0000
  C   C38       1.0  0.86648  0.50325  0.07297  1.0000
  C   C39       1.0  0.36647  0.50324  0.42703  1.0000
  C   C40       1.0  0.13352  0.49675  0.92704  1.0000
  C   C41       1.0  0.92001  0.52074  0.32243  1.0000
  C   C42       1.0  0.58000  0.47927  0.82242  1.0000
  C   C43       1.0  0.08001  0.47924  0.67758  1.0000
  C   C44       1.0  0.41998  0.52073  0.17759  1.0000
  N   N1        1.0  0.60084  0.25760  0.52645  1.0000
  N   N2        1.0  0.89916  0.74240  0.02645  1.0000
  N   N3        1.0  0.39916  0.74239  0.47355  1.0000
  N   N4        1.0  0.10083  0.25761  0.97355  1.0000
  N   N5        1.0  0.76805  0.36338  0.51119  1.0000
  N   N6        1.0  0.73195  0.63662  0.01119  1.0000
  N   N7        1.0  0.23195  0.63661  0.48881  1.0000
  N   N8        1.0  0.26805  0.36338  0.98881  1.0000
  N   N9        1.0  0.79086  0.50969  0.53928  1.0000
  N   N10       1.0  0.70914  0.49031  0.03928  1.0000
  N   N11       1.0  0.20913  0.49030  0.46072  1.0000
  N   N12       1.0  0.29086  0.50970  0.96072  1.0000
  O   O1        1.0  0.60882  0.04540  0.40315  1.0000
  O   O2        1.0  0.89118  0.95460  0.90315  1.0000
  O   O3        1.0  0.39116  0.95458  0.59685  1.0000
  O   O4        1.0  0.10883  0.04541  0.09685  1.0000
  O   O5        1.0  0.90640  0.20717  0.38202  1.0000
  O   O6        1.0  0.59359  0.79283  0.88202  1.0000
  O   O7        1.0  0.09361  0.79283  0.61798  1.0000
  O   O8        1.0  0.40640  0.20717  0.11798  1.0000
  O   O9        1.0  0.48343  0.81083  0.06119  1.0000
  O   O10       1.0  0.01656  0.18916  0.56118  1.0000
  O   O11       1.0  0.51657  0.18917  0.93880  1.0000
  O   O12       1.0  0.98344  0.81085  0.43881  1.0000
  O   O13       1.0  0.74136  0.01955  0.03216  1.0000
  O   O14       1.0  0.75864  0.98044  0.53216  1.0000
  O   O15       1.0  0.25866  0.98046  0.96783  1.0000
  O   O16       1.0  0.24135  0.01956  0.46784  1.0000
  O   O17       1.0  0.07567  0.55663  0.30637  1.0000
  O   O18       1.0  0.42433  0.44339  0.80637  1.0000
  O   O19       1.0  0.92437  0.44336  0.69362  1.0000
  O   O20       1.0  0.57562  0.55662  0.19364  1.0000
  O   O21       1.0  0.76385  0.48607  0.33785  1.0000
  O   O22       1.0  0.73614  0.51395  0.83784  1.0000
  O   O23       1.0  0.23619  0.51394  0.66216  1.0000
  O   O24       1.0  0.26381  0.48604  0.16216  1.0000
