data_image0
_chemical_formula_structural       Ag2H16C30Br4N10O8
_chemical_formula_sum              "Ag2 H16 C30 Br4 N10 O8"
_cell_length_a       7.79758
_cell_length_b       9.02735
_cell_length_c       12.4719
_cell_angle_alpha    101.466
_cell_angle_beta     100.069
_cell_angle_gamma    90.6954

_space_group_name_H-M_alt    "P 1"
_space_group_IT_number       1

loop_
  _space_group_symop_operation_xyz
  'x, y, z'

loop_
  _atom_site_type_symbol
  _atom_site_label
  _atom_site_symmetry_multiplicity
  _atom_site_fract_x
  _atom_site_fract_y
  _atom_site_fract_z
  _atom_site_occupancy
  Ag  Ag1       1.0  0.54897  0.82261  0.48817  1.0000
  Ag  Ag2       1.0  0.45102  0.17739  0.51183  1.0000
  H   H1        1.0  0.98069  0.20825  0.47234  1.0000
  H   H2        1.0  0.01931  0.79175  0.52766  1.0000
  H   H3        1.0  0.86299  0.92966  0.14156  1.0000
  H   H4        1.0  0.13701  0.07034  0.85844  1.0000
  H   H5        1.0  0.01985  0.11879  0.07108  1.0000
  H   H6        1.0  0.98015  0.88121  0.92892  1.0000
  H   H7        1.0  0.19684  0.36099  0.86384  1.0000
  H   H8        1.0  0.80316  0.63901  0.13616  1.0000
  H   H9        1.0  0.27316  0.44080  0.70029  1.0000
  H   H10       1.0  0.72685  0.55919  0.29971  1.0000
  H   H11       1.0  0.48117  0.87010  0.90780  1.0000
  H   H12       1.0  0.51883  0.12990  0.09220  1.0000
  H   H13       1.0  0.22249  0.47816  0.25021  1.0000
  H   H14       1.0  0.77750  0.52184  0.74979  1.0000
  H   H15       1.0  0.29150  0.60215  0.14860  1.0000
  H   H16       1.0  0.70849  0.39785  0.85140  1.0000
  C   C1        1.0  0.08024  0.29186  0.34386  1.0000
  C   C2        1.0  0.91976  0.70814  0.65614  1.0000
  C   C3        1.0  0.98873  0.18951  0.38447  1.0000
  C   C4        1.0  0.01127  0.81050  0.61554  1.0000
  C   C5        1.0  0.90639  0.05921  0.31107  1.0000
  C   C6        1.0  0.09361  0.94080  0.68893  1.0000
  C   C7        1.0  0.80893  0.95876  0.35358  1.0000
  C   C8        1.0  0.19106  0.04124  0.64642  1.0000
  C   C9        1.0  0.92071  0.03276  0.19817  1.0000
  C   C10       1.0  0.07929  0.96725  0.80183  1.0000
  C   C11       1.0  0.01047  0.13746  0.15849  1.0000
  C   C12       1.0  0.98953  0.86254  0.84151  1.0000
  C   C13       1.0  0.09020  0.27169  0.22915  1.0000
  C   C14       1.0  0.90980  0.72831  0.77085  1.0000
  C   C15       1.0  0.18578  0.38593  0.08253  1.0000
  C   C16       1.0  0.81423  0.61407  0.91747  1.0000
  C   C17       1.0  0.29599  0.56599  0.98030  1.0000
  C   C18       1.0  0.70401  0.43401  0.01970  1.0000
  C   C19       1.0  0.26076  0.47126  0.87326  1.0000
  C   C20       1.0  0.73924  0.52874  0.12674  1.0000
  C   C21       1.0  0.30322  0.51715  0.78119  1.0000
  C   C22       1.0  0.69678  0.48285  0.21880  1.0000
  C   C23       1.0  0.38452  0.66095  0.79260  1.0000
  C   C24       1.0  0.61549  0.33904  0.20740  1.0000
  C   C25       1.0  0.43100  0.71297  0.70147  1.0000
  C   C26       1.0  0.56900  0.28703  0.29853  1.0000
  C   C27       1.0  0.41933  0.75827  0.89791  1.0000
  C   C28       1.0  0.58067  0.24172  0.10208  1.0000
  C   C29       1.0  0.37392  0.71198  0.98879  1.0000
  C   C30       1.0  0.62608  0.28802  0.01121  1.0000
  Br  Br1       1.0  0.19904  0.46013  0.44871  1.0000
  Br  Br2       1.0  0.80096  0.53987  0.55129  1.0000
  Br  Br3       1.0  0.41965  0.85248  0.12701  1.0000
  Br  Br4       1.0  0.58036  0.14752  0.87299  1.0000
  N   N1        1.0  0.72470  0.88206  0.39144  1.0000
  N   N2        1.0  0.27529  0.11794  0.60856  1.0000
  N   N3        1.0  0.17462  0.38214  0.19206  1.0000
  N   N4        1.0  0.82538  0.61787  0.80793  1.0000
  N   N5        1.0  0.25965  0.52375  0.07481  1.0000
  N   N6        1.0  0.74034  0.47625  0.92519  1.0000
  N   N7        1.0  0.47196  0.76034  0.62859  1.0000
  N   N8        1.0  0.52805  0.23965  0.37141  1.0000
  N   N9        1.0  0.20517  0.75536  0.32717  1.0000
  N   N10       1.0  0.79483  0.24463  0.67283  1.0000
  O   O1        1.0  0.13748  0.28047  0.00280  1.0000
  O   O2        1.0  0.86252  0.71952  0.99720  1.0000
  O   O3        1.0  0.22808  0.86548  0.40978  1.0000
  O   O4        1.0  0.77192  0.13452  0.59022  1.0000
  O   O5        1.0  0.06008  0.72191  0.26558  1.0000
  O   O6        1.0  0.93992  0.27809  0.73442  1.0000
  O   O7        1.0  0.33686  0.67486  0.30773  1.0000
  O   O8        1.0  0.66314  0.32514  0.69226  1.0000
