data_image0
_chemical_formula_structural       Ag2H16C30N10Cl4O8
_chemical_formula_sum              "Ag2 H16 C30 N10 Cl4 O8"
_cell_length_a       7.76391
_cell_length_b       8.9841
_cell_length_c       12.4749
_cell_angle_alpha    101.826
_cell_angle_beta     100.739
_cell_angle_gamma    91.3682

_space_group_name_H-M_alt    "P 1"
_space_group_IT_number       1

loop_
  _space_group_symop_operation_xyz
  'x, y, z'

loop_
  _atom_site_type_symbol
  _atom_site_label
  _atom_site_symmetry_multiplicity
  _atom_site_fract_x
  _atom_site_fract_y
  _atom_site_fract_z
  _atom_site_occupancy
  Ag  Ag1       1.0  0.56653  0.81549  0.98815  1.0000
  Ag  Ag2       1.0  0.43347  0.18450  0.01185  1.0000
  H   H1        1.0  0.50346  0.86873  0.40794  1.0000
  H   H2        1.0  0.49653  0.13127  0.59206  1.0000
  H   H3        1.0  0.18856  0.36369  0.35788  1.0000
  H   H4        1.0  0.81144  0.63631  0.64212  1.0000
  H   H5        1.0  0.27179  0.44082  0.19548  1.0000
  H   H6        1.0  0.72821  0.55918  0.80452  1.0000
  H   H7        1.0  0.97620  0.22294  0.96913  1.0000
  H   H8        1.0  0.02380  0.77706  0.03088  1.0000
  H   H9        1.0  0.85906  0.93034  0.63944  1.0000
  H   H10       1.0  0.14094  0.06966  0.36056  1.0000
  H   H11       1.0  0.01000  0.12202  0.56650  1.0000
  H   H12       1.0  0.99000  0.87798  0.43350  1.0000
  H   H13       1.0  0.29416  0.60843  0.64465  1.0000
  H   H14       1.0  0.70584  0.39157  0.35534  1.0000
  H   H15       1.0  0.21642  0.48874  0.74554  1.0000
  H   H16       1.0  0.78358  0.51126  0.25446  1.0000
  C   C1        1.0  0.44490  0.70780  0.19892  1.0000
  C   C2        1.0  0.55510  0.29221  0.80108  1.0000
  C   C3        1.0  0.39457  0.65997  0.29029  1.0000
  C   C4        1.0  0.60543  0.34003  0.70971  1.0000
  C   C5        1.0  0.43485  0.75788  0.39643  1.0000
  C   C6        1.0  0.56515  0.24212  0.60357  1.0000
  C   C7        1.0  0.38669  0.71307  0.48697  1.0000
  C   C8        1.0  0.61331  0.28693  0.51303  1.0000
  C   C9        1.0  0.29954  0.56827  0.47634  1.0000
  C   C10       1.0  0.70046  0.43173  0.52365  1.0000
  C   C11       1.0  0.25896  0.47294  0.36861  1.0000
  C   C12       1.0  0.74104  0.52706  0.63139  1.0000
  C   C13       1.0  0.30487  0.51739  0.27724  1.0000
  C   C14       1.0  0.69514  0.48261  0.72276  1.0000
  C   C15       1.0  0.18226  0.39104  0.57807  1.0000
  C   C16       1.0  0.81774  0.60896  0.42193  1.0000
  C   C17       1.0  0.08080  0.28074  0.72424  1.0000
  C   C18       1.0  0.91921  0.71926  0.27576  1.0000
  C   C19       1.0  0.07033  0.30554  0.83907  1.0000
  C   C20       1.0  0.92967  0.69447  0.16093  1.0000
  C   C21       1.0  0.98266  0.20112  0.88092  1.0000
  C   C22       1.0  0.01734  0.79888  0.11908  1.0000
  C   C23       1.0  0.90367  0.06566  0.80859  1.0000
  C   C24       1.0  0.09633  0.93434  0.19141  1.0000
  C   C25       1.0  0.81419  0.96023  0.85214  1.0000
  C   C26       1.0  0.18582  0.03977  0.14786  1.0000
  C   C27       1.0  0.91536  0.03685  0.69519  1.0000
  C   C28       1.0  0.08464  0.96315  0.30481  1.0000
  C   C29       1.0  0.00197  0.14287  0.65420  1.0000
  C   C30       1.0  0.99803  0.85713  0.34580  1.0000
  N   N1        1.0  0.48879  0.74982  0.12504  1.0000
  N   N2        1.0  0.51121  0.25018  0.87496  1.0000
  N   N3        1.0  0.26015  0.52861  0.57064  1.0000
  N   N4        1.0  0.73985  0.47139  0.42936  1.0000
  N   N5        1.0  0.16623  0.39137  0.68725  1.0000
  N   N6        1.0  0.83377  0.60863  0.31275  1.0000
  N   N7        1.0  0.73743  0.87758  0.89022  1.0000
  N   N8        1.0  0.26257  0.12241  0.10979  1.0000
  N   N9        1.0  0.21793  0.76655  0.82396  1.0000
  N   N10       1.0  0.78208  0.23345  0.17604  1.0000
  Cl  Cl1       1.0  0.43607  0.83821  0.61544  1.0000
  Cl  Cl2       1.0  0.56393  0.16179  0.38456  1.0000
  Cl  Cl3       1.0  0.17252  0.46819  0.93102  1.0000
  Cl  Cl4       1.0  0.82748  0.53181  0.06898  1.0000
  O   O1        1.0  0.13513  0.28234  0.49861  1.0000
  O   O2        1.0  0.86487  0.71766  0.50140  1.0000
  O   O3        1.0  0.24333  0.87215  0.91084  1.0000
  O   O4        1.0  0.75667  0.12785  0.08916  1.0000
  O   O5        1.0  0.34602  0.68144  0.80463  1.0000
  O   O6        1.0  0.65398  0.31856  0.19538  1.0000
  O   O7        1.0  0.07361  0.74108  0.75769  1.0000
  O   O8        1.0  0.92640  0.25892  0.24231  1.0000
