data_image0
_chemical_formula_structural       Zn4H48C56S8N8O16
_chemical_formula_sum              "Zn4 H48 C56 S8 N8 O16"
_cell_length_a       8.90306
_cell_length_b       13.1979
_cell_length_c       16.0905
_cell_angle_alpha    90.0004
_cell_angle_beta     90.001
_cell_angle_gamma    106.067

_space_group_name_H-M_alt    "P 1"
_space_group_IT_number       1

loop_
  _space_group_symop_operation_xyz
  'x, y, z'

loop_
  _atom_site_type_symbol
  _atom_site_label
  _atom_site_symmetry_multiplicity
  _atom_site_fract_x
  _atom_site_fract_y
  _atom_site_fract_z
  _atom_site_occupancy
  Zn  Zn1       1.0  0.63865  0.72777  0.48983  1.0000
  Zn  Zn2       1.0  0.13865  0.72777  0.01017  1.0000
  Zn  Zn3       1.0  0.36136  0.27222  0.51017  1.0000
  Zn  Zn4       1.0  0.86136  0.27224  0.98982  1.0000
  H   H1        1.0  0.50039  0.14065  0.61171  1.0000
  H   H2        1.0  0.00037  0.14066  0.88827  1.0000
  H   H3        1.0  0.49961  0.85935  0.38829  1.0000
  H   H4        1.0  0.99960  0.85935  0.11171  1.0000
  H   H5        1.0  0.45437  0.95181  0.64733  1.0000
  H   H6        1.0  0.95436  0.95182  0.85266  1.0000
  H   H7        1.0  0.54563  0.04819  0.35267  1.0000
  H   H8        1.0  0.04562  0.04819  0.14733  1.0000
  H   H9        1.0  0.10190  0.88043  0.45312  1.0000
  H   H10       1.0  0.60191  0.88044  0.04687  1.0000
  H   H11       1.0  0.89811  0.11956  0.54688  1.0000
  H   H12       1.0  0.39809  0.11956  0.95312  1.0000
  H   H13       1.0  0.15955  0.07274  0.42872  1.0000
  H   H14       1.0  0.65955  0.07275  0.07127  1.0000
  H   H15       1.0  0.84047  0.92725  0.57127  1.0000
  H   H16       1.0  0.34045  0.92725  0.92872  1.0000
  H   H17       1.0  0.07253  0.61253  0.53806  1.0000
  H   H18       1.0  0.57253  0.61254  0.96194  1.0000
  H   H19       1.0  0.92749  0.38747  0.46194  1.0000
  H   H20       1.0  0.42748  0.38746  0.03806  1.0000
  H   H21       1.0  0.12378  0.70112  0.45395  1.0000
  H   H22       1.0  0.62380  0.70113  0.04605  1.0000
  H   H23       1.0  0.87623  0.29888  0.54605  1.0000
  H   H24       1.0  0.37621  0.29887  0.95395  1.0000
  H   H25       1.0  0.11437  0.46009  0.01660  1.0000
  H   H26       1.0  0.61439  0.46009  0.48340  1.0000
  H   H27       1.0  0.88562  0.53991  0.98340  1.0000
  H   H28       1.0  0.38563  0.53992  0.51660  1.0000
  H   H29       1.0  0.27435  0.55772  0.12963  1.0000
  H   H30       1.0  0.77436  0.55771  0.37037  1.0000
  H   H31       1.0  0.72563  0.44228  0.87037  1.0000
  H   H32       1.0  0.22566  0.44229  0.62963  1.0000
  H   H33       1.0  0.00959  0.31563  0.29858  1.0000
  H   H34       1.0  0.50959  0.31563  0.20142  1.0000
  H   H35       1.0  0.99040  0.68435  0.70142  1.0000
  H   H36       1.0  0.49043  0.68437  0.79859  1.0000
  H   H37       1.0  0.84718  0.23641  0.17753  1.0000
  H   H38       1.0  0.34720  0.23640  0.32246  1.0000
  H   H39       1.0  0.15281  0.76358  0.82246  1.0000
  H   H40       1.0  0.65283  0.76360  0.67754  1.0000
  H   H41       1.0  0.46491  0.58860  0.21710  1.0000
  H   H42       1.0  0.96491  0.58860  0.28290  1.0000
  H   H43       1.0  0.53506  0.41138  0.78291  1.0000
  H   H44       1.0  0.03510  0.41141  0.71711  1.0000
  H   H45       1.0  0.34243  0.67310  0.23771  1.0000
  H   H46       1.0  0.84242  0.67310  0.26228  1.0000
  H   H47       1.0  0.65755  0.32689  0.76229  1.0000
  H   H48       1.0  0.15758  0.32691  0.73772  1.0000
  C   C1        1.0  0.41274  0.08012  0.57864  1.0000
  C   C2        1.0  0.91273  0.08013  0.92135  1.0000
  C   C3        1.0  0.58727  0.91988  0.42136  1.0000
  C   C4        1.0  0.08725  0.91988  0.07864  1.0000
  C   C5        1.0  0.38656  0.97481  0.59800  1.0000
  C   C6        1.0  0.88656  0.97483  0.90198  1.0000
  C   C7        1.0  0.61344  0.02518  0.40199  1.0000
  C   C8        1.0  0.11343  0.02518  0.09801  1.0000
  C   C9        1.0  0.27108  0.89842  0.55451  1.0000
  C   C10       1.0  0.77109  0.89843  0.94548  1.0000
  C   C11       1.0  0.72892  0.10158  0.44549  1.0000
  C   C12       1.0  0.22891  0.10157  0.05451  1.0000
  C   C13       1.0  0.19081  0.93425  0.49057  1.0000
  C   C14       1.0  0.69082  0.93426  0.00942  1.0000
  C   C15       1.0  0.80920  0.06575  0.50942  1.0000
  C   C16       1.0  0.30918  0.06574  0.99058  1.0000
  C   C17       1.0  0.22337  0.04172  0.47567  1.0000
  C   C18       1.0  0.72337  0.04174  0.02432  1.0000
  C   C19       1.0  0.77664  0.95827  0.52432  1.0000
  C   C20       1.0  0.27663  0.95827  0.97568  1.0000
  C   C21       1.0  0.08756  0.69503  0.51944  1.0000
  C   C22       1.0  0.58757  0.69506  0.98056  1.0000
  C   C23       1.0  0.91245  0.30496  0.48056  1.0000
  C   C24       1.0  0.41244  0.30495  0.01944  1.0000
  C   C25       1.0  0.93041  0.72040  0.52989  1.0000
  C   C26       1.0  0.43042  0.72043  0.97011  1.0000
  C   C27       1.0  0.06959  0.27959  0.47011  1.0000
  C   C28       1.0  0.56958  0.27958  0.02988  1.0000
  C   C29       1.0  0.09244  0.43235  0.08046  1.0000
  C   C30       1.0  0.59246  0.43236  0.41953  1.0000
  C   C31       1.0  0.90754  0.56764  0.91954  1.0000
  C   C32       1.0  0.40756  0.56765  0.58046  1.0000
  C   C33       1.0  0.18470  0.48558  0.14470  1.0000
  C   C34       1.0  0.68470  0.48557  0.35530  1.0000
  C   C35       1.0  0.81530  0.51442  0.85531  1.0000
  C   C36       1.0  0.31531  0.51442  0.64470  1.0000
  C   C37       1.0  0.15545  0.44679  0.22633  1.0000
  C   C38       1.0  0.65546  0.44679  0.27367  1.0000
  C   C39       1.0  0.84452  0.55320  0.77367  1.0000
  C   C40       1.0  0.34456  0.55322  0.72633  1.0000
  C   C41       1.0  0.03412  0.35291  0.23770  1.0000
  C   C42       1.0  0.53412  0.35290  0.26229  1.0000
  C   C43       1.0  0.96586  0.64708  0.76229  1.0000
  C   C44       1.0  0.46590  0.64710  0.73770  1.0000
  C   C45       1.0  0.94559  0.30646  0.17009  1.0000
  C   C46       1.0  0.44559  0.30645  0.32991  1.0000
  C   C47       1.0  0.05441  0.69354  0.82991  1.0000
  C   C48       1.0  0.55442  0.69354  0.67009  1.0000
  C   C49       1.0  0.40139  0.61811  0.26568  1.0000
  C   C50       1.0  0.90139  0.61811  0.23432  1.0000
  C   C51       1.0  0.59859  0.38188  0.73432  1.0000
  C   C52       1.0  0.09862  0.38190  0.76569  1.0000
  C   C53       1.0  0.51924  0.67686  0.32970  1.0000
  C   C54       1.0  0.01924  0.67686  0.17031  1.0000
  C   C55       1.0  0.48073  0.32312  0.67032  1.0000
  C   C56       1.0  0.98077  0.32316  0.82970  1.0000
  S   S1        1.0  0.24233  0.76882  0.58531  1.0000
  S   S2        1.0  0.74234  0.76883  0.91469  1.0000
  S   S3        1.0  0.75767  0.23118  0.41470  1.0000
  S   S4        1.0  0.25767  0.23118  0.08531  1.0000
  S   S5        1.0  0.25636  0.50903  0.31301  1.0000
  S   S6        1.0  0.75635  0.50902  0.18699  1.0000
  S   S7        1.0  0.74362  0.49096  0.68699  1.0000
  S   S8        1.0  0.24366  0.49098  0.81302  1.0000
  N   N1        1.0  0.33131  0.11451  0.51909  1.0000
  N   N2        1.0  0.83130  0.11452  0.98090  1.0000
  N   N3        1.0  0.66870  0.88549  0.48090  1.0000
  N   N4        1.0  0.16868  0.88549  0.01909  1.0000
  N   N5        1.0  0.97319  0.34478  0.09197  1.0000
  N   N6        1.0  0.47320  0.34478  0.40802  1.0000
  N   N7        1.0  0.02680  0.65521  0.90803  1.0000
  N   N8        1.0  0.52681  0.65523  0.59197  1.0000
  O   O1        1.0  0.90331  0.77019  0.59138  1.0000
  O   O2        1.0  0.40332  0.77021  0.90863  1.0000
  O   O3        1.0  0.09668  0.22979  0.40863  1.0000
  O   O4        1.0  0.59669  0.22979  0.09137  1.0000
  O   O5        1.0  0.83426  0.68559  0.46949  1.0000
  O   O6        1.0  0.33428  0.68561  0.03051  1.0000
  O   O7        1.0  0.16576  0.31441  0.53050  1.0000
  O   O8        1.0  0.66573  0.31441  0.96949  1.0000
  O   O9        1.0  0.47488  0.66207  0.40686  1.0000
  O   O10       1.0  0.97489  0.66208  0.09315  1.0000
  O   O11       1.0  0.52511  0.33790  0.59315  1.0000
  O   O12       1.0  0.02514  0.33794  0.90687  1.0000
  O   O13       1.0  0.64614  0.73559  0.30526  1.0000
  O   O14       1.0  0.14614  0.73558  0.19475  1.0000
  O   O15       1.0  0.35383  0.26440  0.69474  1.0000
  O   O16       1.0  0.85387  0.26445  0.80526  1.0000
