data_image0
_chemical_formula_structural       H24Pb2C28S4N4O8
_chemical_formula_sum              "H24 Pb2 C28 S4 N4 O8"
_cell_length_a       7.70181
_cell_length_b       9.24337
_cell_length_c       12.2372
_cell_angle_alpha    110.318
_cell_angle_beta     106.153
_cell_angle_gamma    95.5082

_space_group_name_H-M_alt    "P 1"
_space_group_IT_number       1

loop_
  _space_group_symop_operation_xyz
  'x, y, z'

loop_
  _atom_site_type_symbol
  _atom_site_label
  _atom_site_symmetry_multiplicity
  _atom_site_fract_x
  _atom_site_fract_y
  _atom_site_fract_z
  _atom_site_occupancy
  H   H1        1.0  0.95173  0.37284  0.04073  1.0000
  H   H2        1.0  0.41005  0.33231  0.95913  1.0000
  H   H3        1.0  0.04825  0.62717  0.95926  1.0000
  H   H4        1.0  0.58994  0.66768  0.04087  1.0000
  H   H5        1.0  0.12616  0.65331  0.13251  1.0000
  H   H6        1.0  0.49327  0.52085  0.86731  1.0000
  H   H7        1.0  0.87388  0.34668  0.86747  1.0000
  H   H8        1.0  0.50677  0.47913  0.13270  1.0000
  H   H9        1.0  0.17858  0.64795  0.49257  1.0000
  H   H10       1.0  0.18631  0.15553  0.50721  1.0000
  H   H11       1.0  0.82145  0.35207  0.50742  1.0000
  H   H12       1.0  0.81371  0.84445  0.49279  1.0000
  H   H13       1.0  0.99769  0.37032  0.38417  1.0000
  H   H14       1.0  0.11301  0.98653  0.61568  1.0000
  H   H15       1.0  0.00227  0.62971  0.61583  1.0000
  H   H16       1.0  0.88700  0.01346  0.38432  1.0000
  H   H17       1.0  0.45202  0.03091  0.33557  1.0000
  H   H18       1.0  0.61549  0.69587  0.66411  1.0000
  H   H19       1.0  0.54797  0.96910  0.66439  1.0000
  H   H20       1.0  0.38446  0.30416  0.33591  1.0000
  H   H21       1.0  0.38311  0.83583  0.22060  1.0000
  H   H22       1.0  0.66218  0.61579  0.77916  1.0000
  H   H23       1.0  0.61688  0.16418  0.77937  1.0000
  H   H24       1.0  0.33784  0.38424  0.22085  1.0000
  Pb  Pb1       1.0  0.80325  0.05292  0.10627  1.0000
  Pb  Pb2       1.0  0.19668  0.94707  0.89375  1.0000
  C   C1        1.0  0.00221  0.43986  0.14046  1.0000
  C   C2        1.0  0.36095  0.29962  0.85938  1.0000
  C   C3        1.0  0.99781  0.56013  0.85953  1.0000
  C   C4        1.0  0.63905  0.70037  0.14062  1.0000
  C   C5        1.0  0.10174  0.59515  0.19192  1.0000
  C   C6        1.0  0.40946  0.40333  0.80793  1.0000
  C   C7        1.0  0.89829  0.40485  0.80806  1.0000
  C   C8        1.0  0.59055  0.59665  0.19207  1.0000
  C   C9        1.0  0.16836  0.67425  0.32106  1.0000
  C   C10       1.0  0.34731  0.35333  0.67876  1.0000
  C   C11       1.0  0.83165  0.32575  0.67891  1.0000
  C   C12       1.0  0.65270  0.64666  0.32124  1.0000
  C   C13       1.0  0.12793  0.59223  0.39180  1.0000
  C   C14       1.0  0.23620  0.20064  0.60804  1.0000
  C   C15       1.0  0.87211  0.40779  0.60820  1.0000
  C   C16       1.0  0.76381  0.79935  0.39196  1.0000
  C   C17       1.0  0.02788  0.43764  0.33178  1.0000
  C   C18       1.0  0.19567  0.10618  0.66805  1.0000
  C   C19       1.0  0.97210  0.56237  0.66821  1.0000
  C   C20       1.0  0.80433  0.89381  0.33194  1.0000
  C   C21       1.0  0.33701  0.92702  0.28422  1.0000
  C   C22       1.0  0.55223  0.64326  0.71561  1.0000
  C   C23       1.0  0.66299  0.07298  0.71576  1.0000
  C   C24       1.0  0.44777  0.35677  0.28443  1.0000
  C   C25       1.0  0.16995  0.97389  0.21369  1.0000
  C   C26       1.0  0.45546  0.76034  0.78612  1.0000
  C   C27       1.0  0.83002  0.02611  0.78631  1.0000
  C   C28       1.0  0.54452  0.23965  0.21390  1.0000
  S   S1        1.0  0.30189  0.86517  0.40233  1.0000
  S   S2        1.0  0.39933  0.46316  0.59753  1.0000
  S   S3        1.0  0.69817  0.13481  0.59766  1.0000
  S   S4        1.0  0.60069  0.53684  0.40249  1.0000
  N   N1        1.0  0.96517  0.36082  0.20782  1.0000
  N   N2        1.0  0.25654  0.15333  0.79205  1.0000
  N   N3        1.0  0.03483  0.63919  0.79218  1.0000
  N   N4        1.0  0.74344  0.84666  0.20795  1.0000
  O   O1        1.0  0.10617  0.90201  0.09659  1.0000
  O   O2        1.0  0.50804  0.80483  0.90315  1.0000
  O   O3        1.0  0.89378  0.09799  0.90342  1.0000
  O   O4        1.0  0.49192  0.19514  0.09688  1.0000
  O   O5        1.0  0.10498  0.08269  0.27626  1.0000
  O   O6        1.0  0.32850  0.80718  0.72363  1.0000
  O   O7        1.0  0.89502  0.91731  0.72375  1.0000
  O   O8        1.0  0.67151  0.19283  0.27640  1.0000
