data_image0
_chemical_formula_structural       Mn3H32C24N2O14
_chemical_formula_sum              "Mn3 H32 C24 N2 O14"
_cell_length_a       8.85449
_cell_length_b       9.12179
_cell_length_c       9.3208
_cell_angle_alpha    92.561
_cell_angle_beta     96.9763
_cell_angle_gamma    114.868

_space_group_name_H-M_alt    "P 1"
_space_group_IT_number       1

loop_
  _space_group_symop_operation_xyz
  'x, y, z'

loop_
  _atom_site_type_symbol
  _atom_site_label
  _atom_site_symmetry_multiplicity
  _atom_site_fract_x
  _atom_site_fract_y
  _atom_site_fract_z
  _atom_site_occupancy
  Mn  Mn1       1.0  1.00000  0.50000  0.49999  1.0000
  Mn  Mn2       1.0  0.12106  0.64176  0.86664  1.0000
  Mn  Mn3       1.0  0.87893  0.35824  0.13336  1.0000
  H   H1        1.0  0.82440  0.89052  0.51474  1.0000
  H   H2        1.0  0.17560  0.10947  0.48526  1.0000
  H   H3        1.0  0.58456  0.65903  0.58609  1.0000
  H   H4        1.0  0.41544  0.34097  0.41391  1.0000
  H   H5        1.0  0.64596  0.74323  0.77012  1.0000
  H   H6        1.0  0.35404  0.25677  0.22988  1.0000
  H   H7        1.0  0.52699  0.88800  0.51573  1.0000
  H   H8        1.0  0.47301  0.11200  0.48427  1.0000
  H   H9        1.0  0.54831  0.10466  0.70244  1.0000
  H   H10       1.0  0.45170  0.89534  0.29756  1.0000
  H   H11       1.0  0.62688  0.01772  0.83927  1.0000
  H   H12       1.0  0.37312  0.98228  0.16073  1.0000
  H   H13       1.0  0.79993  0.15786  0.57774  1.0000
  H   H14       1.0  0.20007  0.84213  0.42227  1.0000
  H   H15       1.0  0.03539  0.10783  0.69376  1.0000
  H   H16       1.0  0.96461  0.89217  0.30624  1.0000
  H   H17       1.0  0.92403  0.02108  0.83737  1.0000
  H   H18       1.0  0.07597  0.97892  0.16263  1.0000
  H   H19       1.0  0.20436  0.32823  0.03421  1.0000
  H   H20       1.0  0.79564  0.67177  0.96580  1.0000
  H   H21       1.0  0.39144  0.46467  0.71313  1.0000
  H   H22       1.0  0.60856  0.53533  0.28687  1.0000
  H   H23       1.0  0.38117  0.26899  0.66349  1.0000
  H   H24       1.0  0.61883  0.73101  0.33651  1.0000
  H   H25       1.0  0.55980  0.41379  0.78352  1.0000
  H   H26       1.0  0.44020  0.58621  0.21648  1.0000
  H   H27       1.0  0.45291  0.16711  0.96706  1.0000
  H   H28       1.0  0.54710  0.83289  0.03294  1.0000
  H   H29       1.0  0.28160  0.05916  0.82386  1.0000
  H   H30       1.0  0.71840  0.94084  0.17615  1.0000
  H   H31       1.0  0.24034  0.10987  0.99689  1.0000
  H   H32       1.0  0.75966  0.89013  0.00311  1.0000
  C   C1        1.0  0.92153  0.76800  0.66169  1.0000
  C   C2        1.0  0.07847  0.23200  0.33831  1.0000
  C   C3        1.0  0.82585  0.87133  0.63064  1.0000
  C   C4        1.0  0.17415  0.12867  0.36936  1.0000
  C   C5        1.0  0.64390  0.77406  0.65731  1.0000
  C   C6        1.0  0.35610  0.22594  0.34269  1.0000
  C   C7        1.0  0.53814  0.87033  0.63204  1.0000
  C   C8        1.0  0.46186  0.12967  0.36796  1.0000
  C   C9        1.0  0.36032  0.76587  0.66163  1.0000
  C   C10       1.0  0.63968  0.23413  0.33837  1.0000
  C   C11       1.0  0.62291  0.03518  0.72337  1.0000
  C   C12       1.0  0.37709  0.96482  0.27663  1.0000
  C   C13       1.0  0.80240  0.13268  0.69187  1.0000
  C   C14       1.0  0.19760  0.86731  0.30813  1.0000
  C   C15       1.0  0.90909  0.03737  0.72107  1.0000
  C   C16       1.0  0.09091  0.96263  0.27893  1.0000
  C   C17       1.0  0.88688  0.29384  0.78570  1.0000
  C   C18       1.0  0.11312  0.70616  0.21430  1.0000
  C   C19       1.0  0.27324  0.39060  0.94744  1.0000
  C   C20       1.0  0.72676  0.60941  0.05256  1.0000
  C   C21       1.0  0.42276  0.36785  0.75158  1.0000
  C   C22       1.0  0.57724  0.63216  0.24842  1.0000
  C   C23       1.0  0.32720  0.15186  0.91764  1.0000
  C   C24       1.0  0.67279  0.84814  0.08236  1.0000
  N   N1        1.0  0.33489  0.30534  0.87311  1.0000
  N   N2        1.0  0.66511  0.69466  0.12689  1.0000
  O   O1        1.0  0.95609  0.70538  0.55328  1.0000
  O   O2        1.0  0.04391  0.29461  0.44672  1.0000
  O   O3        1.0  0.95621  0.74830  0.79454  1.0000
  O   O4        1.0  0.04379  0.25170  0.20546  1.0000
  O   O5        1.0  0.27031  0.63979  0.57375  1.0000
  O   O6        1.0  0.72968  0.36021  0.42625  1.0000
  O   O7        1.0  0.31564  0.80943  0.77534  1.0000
  O   O8        1.0  0.68436  0.19057  0.22466  1.0000
  O   O9        1.0  0.88547  0.29331  0.92121  1.0000
  O   O10       1.0  0.11453  0.70670  0.07879  1.0000
  O   O11       1.0  0.96228  0.42521  0.72700  1.0000
  O   O12       1.0  0.03772  0.57478  0.27299  1.0000
  O   O13       1.0  0.29001  0.53074  0.92207  1.0000
  O   O14       1.0  0.70999  0.46925  0.07793  1.0000
