data_image0
_chemical_formula_structural       Ba2H44C28N8O2
_chemical_formula_sum              "Ba2 H44 C28 N8 O2"
_cell_length_a       8.48665
_cell_length_b       9.72961
_cell_length_c       10.6816
_cell_angle_alpha    65.1622
_cell_angle_beta     79.7934
_cell_angle_gamma    76.1418

_space_group_name_H-M_alt    "P 1"
_space_group_IT_number       1

loop_
  _space_group_symop_operation_xyz
  'x, y, z'

loop_
  _atom_site_type_symbol
  _atom_site_label
  _atom_site_symmetry_multiplicity
  _atom_site_fract_x
  _atom_site_fract_y
  _atom_site_fract_z
  _atom_site_occupancy
  Ba  Ba1       1.0  0.25626  0.98767  0.00807  1.0000
  Ba  Ba2       1.0  0.74373  0.01234  0.99192  1.0000
  H   H1        1.0  0.75576  0.48109  0.67923  1.0000
  H   H2        1.0  0.24423  0.51892  0.32077  1.0000
  H   H3        1.0  0.98902  0.34626  0.48789  1.0000
  H   H4        1.0  0.01098  0.65373  0.51211  1.0000
  H   H5        1.0  0.85778  0.21032  0.55679  1.0000
  H   H6        1.0  0.14223  0.78967  0.44322  1.0000
  H   H7        1.0  0.06855  0.14779  0.57941  1.0000
  H   H8        1.0  0.93145  0.85221  0.42060  1.0000
  H   H9        1.0  0.72248  0.54657  0.90864  1.0000
  H   H10       1.0  0.27751  0.45343  0.09136  1.0000
  H   H11       1.0  0.87147  0.43950  0.02993  1.0000
  H   H12       1.0  0.12853  0.56050  0.97007  1.0000
  H   H13       1.0  0.68948  0.37103  0.04756  1.0000
  H   H14       1.0  0.31051  0.62897  0.95244  1.0000
  H   H15       1.0  0.67049  0.78375  0.57580  1.0000
  H   H16       1.0  0.32951  0.21623  0.42421  1.0000
  H   H17       1.0  0.29492  0.74758  0.69094  1.0000
  H   H18       1.0  0.70508  0.25240  0.30907  1.0000
  H   H19       1.0  0.31311  0.93278  0.56103  1.0000
  H   H20       1.0  0.68691  0.06720  0.43897  1.0000
  H   H21       1.0  0.21524  0.91331  0.72812  1.0000
  H   H22       1.0  0.78476  0.08667  0.27189  1.0000
  H   H23       1.0  0.97028  0.88014  0.64461  1.0000
  H   H24       1.0  0.02973  0.11986  0.35538  1.0000
  H   H25       1.0  0.97037  0.68208  0.74523  1.0000
  H   H26       1.0  0.02964  0.31791  0.25478  1.0000
  H   H27       1.0  0.95860  0.80858  0.82839  1.0000
  H   H28       1.0  0.04140  0.19142  0.17160  1.0000
  H   H29       1.0  0.49688  0.43013  0.80340  1.0000
  H   H30       1.0  0.50313  0.56987  0.19660  1.0000
  H   H31       1.0  0.34227  0.34358  0.93053  1.0000
  H   H32       1.0  0.65773  0.65642  0.06947  1.0000
  H   H33       1.0  0.60990  0.29603  0.63471  1.0000
  H   H34       1.0  0.39010  0.70397  0.36529  1.0000
  H   H35       1.0  0.52127  0.13261  0.66666  1.0000
  H   H36       1.0  0.47873  0.86740  0.33333  1.0000
  H   H37       1.0  0.25873  0.29470  0.60734  1.0000
  H   H38       1.0  0.74127  0.70532  0.39265  1.0000
  H   H39       1.0  0.37924  0.43651  0.50596  1.0000
  H   H40       1.0  0.62076  0.56350  0.49403  1.0000
  H   H41       1.0  0.15666  0.42095  0.75432  1.0000
  H   H42       1.0  0.84335  0.57906  0.24567  1.0000
  H   H43       1.0  0.27670  0.56409  0.65998  1.0000
  H   H44       1.0  0.72329  0.43591  0.34002  1.0000
  C   C1        1.0  0.93945  0.26310  0.70970  1.0000
  C   C2        1.0  0.06055  0.73691  0.29030  1.0000
  C   C3        1.0  0.83591  0.38088  0.74442  1.0000
  C   C4        1.0  0.16408  0.61912  0.25559  1.0000
  C   C5        1.0  0.86364  0.34579  0.88139  1.0000
  C   C6        1.0  0.13636  0.65421  0.11861  1.0000
  C   C7        1.0  0.96485  0.24091  0.57681  1.0000
  C   C8        1.0  0.03515  0.75909  0.42319  1.0000
  C   C9        1.0  0.78284  0.43010  0.97176  1.0000
  C   C10       1.0  0.21715  0.56991  0.02824  1.0000
  C   C11       1.0  0.47550  0.85172  0.72062  1.0000
  C   C12       1.0  0.52450  0.14826  0.27939  1.0000
  C   C13       1.0  0.63449  0.81486  0.66449  1.0000
  C   C14       1.0  0.36552  0.18513  0.33551  1.0000
  C   C15       1.0  0.73610  0.82724  0.74826  1.0000
  C   C16       1.0  0.26391  0.17276  0.25174  1.0000
  C   C17       1.0  0.31673  0.86171  0.67270  1.0000
  C   C18       1.0  0.68328  0.13828  0.32730  1.0000
  C   C19       1.0  0.91769  0.79874  0.74099  1.0000
  C   C20       1.0  0.08231  0.20126  0.25900  1.0000
  C   C21       1.0  0.39868  0.36455  0.82533  1.0000
  C   C22       1.0  0.60133  0.63545  0.17467  1.0000
  C   C23       1.0  0.50010  0.24356  0.67598  1.0000
  C   C24       1.0  0.49989  0.75645  0.32401  1.0000
  C   C25       1.0  0.34847  0.35658  0.61169  1.0000
  C   C26       1.0  0.65153  0.64343  0.38830  1.0000
  C   C27       1.0  0.28084  0.43939  0.71153  1.0000
  C   C28       1.0  0.71916  0.56061  0.28846  1.0000
  N   N1        1.0  0.02441  0.16395  0.81938  1.0000
  N   N2        1.0  0.97559  0.83605  0.18062  1.0000
  N   N3        1.0  0.97793  0.21526  0.92585  1.0000
  N   N4        1.0  0.02207  0.78475  0.07415  1.0000
  N   N5        1.0  0.48200  0.88312  0.83167  1.0000
  N   N6        1.0  0.51801  0.11688  0.16833  1.0000
  N   N7        1.0  0.64310  0.86889  0.84831  1.0000
  N   N8        1.0  0.35690  0.13111  0.15169  1.0000
  O   O1        1.0  0.47111  0.21395  0.82263  1.0000
  O   O2        1.0  0.52888  0.78605  0.17737  1.0000
