data_image0
_chemical_formula_structural       Cu4H28C28I4N4O4
_chemical_formula_sum              "Cu4 H28 C28 I4 N4 O4"
_cell_length_a       4.20225
_cell_length_b       10.9338
_cell_length_c       18.0436
_cell_angle_alpha    89.9997
_cell_angle_beta     90
_cell_angle_gamma    96.3407

_space_group_name_H-M_alt    "P 1"
_space_group_IT_number       1

loop_
  _space_group_symop_operation_xyz
  'x, y, z'

loop_
  _atom_site_type_symbol
  _atom_site_label
  _atom_site_symmetry_multiplicity
  _atom_site_fract_x
  _atom_site_fract_y
  _atom_site_fract_z
  _atom_site_occupancy
  Cu  Cu1       1.0  0.24441  0.48501  0.04612  1.0000
  Cu  Cu2       1.0  0.75558  0.01500  0.54612  1.0000
  Cu  Cu3       1.0  0.75558  0.51500  0.95388  1.0000
  Cu  Cu4       1.0  0.24441  0.98501  0.45387  1.0000
  H   H1        1.0  0.42804  0.42533  0.20068  1.0000
  H   H2        1.0  0.57195  0.07467  0.70068  1.0000
  H   H3        1.0  0.57195  0.57467  0.79932  1.0000
  H   H4        1.0  0.42805  0.92533  0.29932  1.0000
  H   H5        1.0  0.01592  0.68250  0.34421  1.0000
  H   H6        1.0  0.98409  0.81750  0.84420  1.0000
  H   H7        1.0  0.98411  0.31750  0.65580  1.0000
  H   H8        1.0  0.01593  0.18250  0.15579  1.0000
  H   H9        1.0  0.82862  0.78355  0.22978  1.0000
  H   H10       1.0  0.17137  0.71645  0.72977  1.0000
  H   H11       1.0  0.17139  0.21645  0.77024  1.0000
  H   H12       1.0  0.82863  0.28355  0.27021  1.0000
  H   H13       1.0  0.95250  0.69935  0.10622  1.0000
  H   H14       1.0  0.04748  0.80065  0.60620  1.0000
  H   H15       1.0  0.04750  0.30066  0.89380  1.0000
  H   H16       1.0  0.95250  0.19935  0.39378  1.0000
  H   H17       1.0  0.31253  0.43317  0.46005  1.0000
  H   H18       1.0  0.68746  0.06683  0.96004  1.0000
  H   H19       1.0  0.68746  0.56682  0.53996  1.0000
  H   H20       1.0  0.31254  0.93317  0.03995  1.0000
  H   H21       1.0  0.95382  0.47520  0.41821  1.0000
  H   H22       1.0  0.04618  0.02480  0.91821  1.0000
  H   H23       1.0  0.04618  0.52479  0.58179  1.0000
  H   H24       1.0  0.95383  0.97520  0.08179  1.0000
  H   H25       1.0  0.27086  0.59134  0.43863  1.0000
  H   H26       1.0  0.72914  0.90866  0.93863  1.0000
  H   H27       1.0  0.72914  0.40865  0.56137  1.0000
  H   H28       1.0  0.27086  0.09134  0.06136  1.0000
  C   C1        1.0  0.29670  0.50483  0.20929  1.0000
  C   C2        1.0  0.70330  0.99518  0.70929  1.0000
  C   C3        1.0  0.70331  0.49517  0.79071  1.0000
  C   C4        1.0  0.29670  0.00483  0.29071  1.0000
  C   C5        1.0  0.23783  0.54494  0.28114  1.0000
  C   C6        1.0  0.76217  0.95506  0.78113  1.0000
  C   C7        1.0  0.76219  0.45506  0.71887  1.0000
  C   C8        1.0  0.23784  0.04494  0.21886  1.0000
  C   C9        1.0  0.06774  0.64728  0.28943  1.0000
  C   C10       1.0  0.93226  0.85272  0.78942  1.0000
  C   C11       1.0  0.93228  0.35272  0.71058  1.0000
  C   C12       1.0  0.06775  0.14728  0.21056  1.0000
  C   C13       1.0  0.96440  0.70448  0.22636  1.0000
  C   C14       1.0  0.03559  0.79553  0.72635  1.0000
  C   C15       1.0  0.03561  0.29552  0.77365  1.0000
  C   C16       1.0  0.96441  0.20448  0.27363  1.0000
  C   C17       1.0  0.03211  0.65798  0.15702  1.0000
  C   C18       1.0  0.96787  0.84203  0.65701  1.0000
  C   C19       1.0  0.96789  0.34203  0.84299  1.0000
  C   C20       1.0  0.03212  0.15798  0.34298  1.0000
  C   C21       1.0  0.35306  0.47610  0.34521  1.0000
  C   C22       1.0  0.64694  0.02389  0.84521  1.0000
  C   C23       1.0  0.64694  0.52389  0.65479  1.0000
  C   C24       1.0  0.35308  0.97610  0.15479  1.0000
  C   C25       1.0  0.21559  0.49514  0.42043  1.0000
  C   C26       1.0  0.78441  0.00486  0.92042  1.0000
  C   C27       1.0  0.78441  0.50485  0.57958  1.0000
  C   C28       1.0  0.21559  0.99514  0.07957  1.0000
  I   I1        1.0  0.68471  0.33058  0.04665  1.0000
  I   I2        1.0  0.31527  0.16943  0.54664  1.0000
  I   I3        1.0  0.31528  0.66943  0.95336  1.0000
  I   I4        1.0  0.68471  0.83058  0.45336  1.0000
  N   N1        1.0  0.19583  0.55926  0.14826  1.0000
  N   N2        1.0  0.80414  0.94075  0.64825  1.0000
  N   N3        1.0  0.80415  0.44075  0.85175  1.0000
  N   N4        1.0  0.19584  0.05926  0.35174  1.0000
  O   O1        1.0  0.55419  0.40321  0.33566  1.0000
  O   O2        1.0  0.44580  0.09678  0.83566  1.0000
  O   O3        1.0  0.44581  0.59678  0.66434  1.0000
  O   O4        1.0  0.55420  0.90321  0.16434  1.0000
