data_image0
_chemical_formula_structural       Cd8H28C36N48Cl4O8
_chemical_formula_sum              "Cd8 H28 C36 N48 Cl4 O8"
_cell_length_a       9.04849
_cell_length_b       10.5888
_cell_length_c       15.5428
_cell_angle_alpha    90
_cell_angle_beta     90
_cell_angle_gamma    106.21

_space_group_name_H-M_alt    "P 1"
_space_group_IT_number       1

loop_
  _space_group_symop_operation_xyz
  'x, y, z'

loop_
  _atom_site_type_symbol
  _atom_site_label
  _atom_site_symmetry_multiplicity
  _atom_site_fract_x
  _atom_site_fract_y
  _atom_site_fract_z
  _atom_site_occupancy
  Cd  Cd1       1.0  0.27196  0.70144  0.39949  1.0000
  Cd  Cd2       1.0  0.22804  0.29856  0.89949  1.0000
  Cd  Cd3       1.0  0.72804  0.29856  0.60051  1.0000
  Cd  Cd4       1.0  0.77196  0.70144  0.10051  1.0000
  Cd  Cd5       1.0  0.61208  0.94790  0.26548  1.0000
  Cd  Cd6       1.0  0.88792  0.05210  0.76548  1.0000
  Cd  Cd7       1.0  0.38792  0.05210  0.73452  1.0000
  Cd  Cd8       1.0  0.11208  0.94790  0.23452  1.0000
  H   H1        1.0  0.13252  0.42845  0.32025  1.0000
  H   H2        1.0  0.36748  0.57155  0.82025  1.0000
  H   H3        1.0  0.86748  0.57155  0.67975  1.0000
  H   H4        1.0  0.63252  0.42845  0.17975  1.0000
  H   H5        1.0  0.12613  0.46659  0.04500  1.0000
  H   H6        1.0  0.37387  0.53341  0.54500  1.0000
  H   H7        1.0  0.87386  0.53341  0.95500  1.0000
  H   H8        1.0  0.62614  0.46659  0.45500  1.0000
  H   H9        1.0  0.75861  0.18500  0.17345  1.0000
  H   H10       1.0  0.74139  0.81500  0.67345  1.0000
  H   H11       1.0  0.24139  0.81500  0.82655  1.0000
  H   H12       1.0  0.25861  0.18500  0.32655  1.0000
  H   H13       1.0  0.14829  0.47748  0.51831  1.0000
  H   H14       1.0  0.35171  0.52252  0.01831  1.0000
  H   H15       1.0  0.85171  0.52252  0.48169  1.0000
  H   H16       1.0  0.64829  0.47748  0.98169  1.0000
  H   H17       1.0  0.60049  0.08176  0.09517  1.0000
  H   H18       1.0  0.89951  0.91824  0.59517  1.0000
  H   H19       1.0  0.39951  0.91824  0.90483  1.0000
  H   H20       1.0  0.10049  0.08176  0.40483  1.0000
  H   H21       1.0  0.44081  0.97285  0.11350  1.0000
  H   H22       1.0  0.05919  0.02715  0.61350  1.0000
  H   H23       1.0  0.55919  0.02715  0.88650  1.0000
  H   H24       1.0  0.94081  0.97285  0.38650  1.0000
  H   H25       1.0  0.05932  0.42994  0.43448  1.0000
  H   H26       1.0  0.44068  0.57006  0.93448  1.0000
  H   H27       1.0  0.94068  0.57006  0.56552  1.0000
  H   H28       1.0  0.55932  0.42994  0.06552  1.0000
  C   C1        1.0  0.85460  0.24611  0.33484  1.0000
  C   C2        1.0  0.64540  0.75389  0.83484  1.0000
  C   C3        1.0  0.14540  0.75389  0.66516  1.0000
  C   C4        1.0  0.35460  0.24611  0.16516  1.0000
  C   C5        1.0  0.93301  0.30224  0.25605  1.0000
  C   C6        1.0  0.56699  0.69776  0.75605  1.0000
  C   C7        1.0  0.06699  0.69776  0.74395  1.0000
  C   C8        1.0  0.43302  0.30224  0.24395  1.0000
  C   C9        1.0  0.07300  0.40104  0.25955  1.0000
  C   C10       1.0  0.42700  0.59896  0.75955  1.0000
  C   C11       1.0  0.92700  0.59896  0.74045  1.0000
  C   C12       1.0  0.57300  0.40104  0.24045  1.0000
  C   C13       1.0  0.14028  0.46226  0.18413  1.0000
  C   C14       1.0  0.35972  0.53774  0.68413  1.0000
  C   C15       1.0  0.85972  0.53774  0.81587  1.0000
  C   C16       1.0  0.64028  0.46226  0.31587  1.0000
  C   C17       1.0  0.28547  0.56563  0.18797  1.0000
  C   C18       1.0  0.21452  0.43437  0.68797  1.0000
  C   C19       1.0  0.71453  0.43437  0.81203  1.0000
  C   C20       1.0  0.78548  0.56563  0.31203  1.0000
  C   C21       1.0  0.07438  0.41852  0.10386  1.0000
  C   C22       1.0  0.42562  0.58148  0.60386  1.0000
  C   C23       1.0  0.92562  0.58148  0.89614  1.0000
  C   C24       1.0  0.57438  0.41852  0.39614  1.0000
  C   C25       1.0  0.94133  0.31322  0.09978  1.0000
  C   C26       1.0  0.55867  0.68678  0.59978  1.0000
  C   C27       1.0  0.05867  0.68678  0.90022  1.0000
  C   C28       1.0  0.44133  0.31322  0.40022  1.0000
  C   C29       1.0  0.87794  0.25150  0.01881  1.0000
  C   C30       1.0  0.62206  0.74850  0.51881  1.0000
  C   C31       1.0  0.12206  0.74850  0.98119  1.0000
  C   C32       1.0  0.37794  0.25150  0.48119  1.0000
  C   C33       1.0  0.86746  0.26047  0.17624  1.0000
  C   C34       1.0  0.63253  0.73953  0.67624  1.0000
  C   C35       1.0  0.13253  0.73953  0.82376  1.0000
  C   C36       1.0  0.36747  0.26047  0.32376  1.0000
  N   N1        1.0  0.88963  0.30199  0.41217  1.0000
  N   N2        1.0  0.61037  0.69801  0.91217  1.0000
  N   N3        1.0  0.11037  0.69801  0.58783  1.0000
  N   N4        1.0  0.38963  0.30199  0.08783  1.0000
  N   N5        1.0  0.78474  0.22749  0.46605  1.0000
  N   N6        1.0  0.71527  0.77251  0.96605  1.0000
  N   N7        1.0  0.21526  0.77251  0.53395  1.0000
  N   N8        1.0  0.28474  0.22749  0.03395  1.0000
  N   N9        1.0  0.68928  0.12986  0.42466  1.0000
  N   N10       1.0  0.81072  0.87014  0.92466  1.0000
  N   N11       1.0  0.31073  0.87014  0.57534  1.0000
  N   N12       1.0  0.18927  0.12986  0.07534  1.0000
  N   N13       1.0  0.73104  0.13893  0.34167  1.0000
  N   N14       1.0  0.76896  0.86107  0.84167  1.0000
  N   N15       1.0  0.26896  0.86107  0.65833  1.0000
  N   N16       1.0  0.23104  0.13893  0.15833  1.0000
  N   N17       1.0  0.34134  0.64920  0.25377  1.0000
  N   N18       1.0  0.15866  0.35080  0.75377  1.0000
  N   N19       1.0  0.65866  0.35080  0.74623  1.0000
  N   N20       1.0  0.84134  0.64920  0.24623  1.0000
  N   N21       1.0  0.48000  0.72197  0.22696  1.0000
  N   N22       1.0  0.02000  0.27804  0.72696  1.0000
  N   N23       1.0  0.52000  0.27804  0.77304  1.0000
  N   N24       1.0  0.98000  0.72196  0.27304  1.0000
  N   N25       1.0  0.50760  0.68364  0.14938  1.0000
  N   N26       1.0  0.99240  0.31636  0.64938  1.0000
  N   N27       1.0  0.49240  0.31636  0.85062  1.0000
  N   N28       1.0  0.00760  0.68364  0.35062  1.0000
  N   N29       1.0  0.38783  0.58676  0.12319  1.0000
  N   N30       1.0  0.11217  0.41324  0.62319  1.0000
  N   N31       1.0  0.61217  0.41324  0.87681  1.0000
  N   N32       1.0  0.88783  0.58676  0.37681  1.0000
  N   N33       1.0  0.95415  0.25138  0.94377  1.0000
  N   N34       1.0  0.54585  0.74862  0.44377  1.0000
  N   N35       1.0  0.04585  0.74862  0.05623  1.0000
  N   N36       1.0  0.45415  0.25138  0.55623  1.0000
  N   N37       1.0  0.84917  0.17425  0.89083  1.0000
  N   N38       1.0  0.65083  0.82575  0.39083  1.0000
  N   N39       1.0  0.15083  0.82575  0.10917  1.0000
  N   N40       1.0  0.34917  0.17425  0.60917  1.0000
  N   N41       1.0  0.71742  0.13073  0.93153  1.0000
  N   N42       1.0  0.78258  0.86927  0.43153  1.0000
  N   N43       1.0  0.28258  0.86927  0.06847  1.0000
  N   N44       1.0  0.21742  0.13073  0.56847  1.0000
  N   N45       1.0  0.73103  0.17630  0.01167  1.0000
  N   N46       1.0  0.76897  0.82370  0.51167  1.0000
  N   N47       1.0  0.26897  0.82370  0.98833  1.0000
  N   N48       1.0  0.23103  0.17630  0.48833  1.0000
  Cl  Cl1       1.0  0.34407  0.94340  0.33508  1.0000
  Cl  Cl2       1.0  0.15593  0.05660  0.83508  1.0000
  Cl  Cl3       1.0  0.65593  0.05660  0.66492  1.0000
  Cl  Cl4       1.0  0.84407  0.94340  0.16492  1.0000
  O   O1        1.0  0.53138  0.03602  0.14242  1.0000
  O   O2        1.0  0.96863  0.96398  0.64242  1.0000
  O   O3        1.0  0.46863  0.96398  0.85758  1.0000
  O   O4        1.0  0.03137  0.03602  0.35758  1.0000
  O   O5        1.0  0.16027  0.49019  0.45445  1.0000
  O   O6        1.0  0.33973  0.50981  0.95445  1.0000
  O   O7        1.0  0.83973  0.50981  0.54555  1.0000
  O   O8        1.0  0.66027  0.49019  0.04555  1.0000
