data_image0
_chemical_formula_structural       Cu2P2H38C46I2N2
_chemical_formula_sum              "Cu2 P2 H38 C46 I2 N2"
_cell_length_a       9.10461
_cell_length_b       9.28194
_cell_length_c       12.9937
_cell_angle_alpha    107.878
_cell_angle_beta     106.968
_cell_angle_gamma    92.6522

_space_group_name_H-M_alt    "P 1"
_space_group_IT_number       1

loop_
  _space_group_symop_operation_xyz
  'x, y, z'

loop_
  _atom_site_type_symbol
  _atom_site_label
  _atom_site_symmetry_multiplicity
  _atom_site_fract_x
  _atom_site_fract_y
  _atom_site_fract_z
  _atom_site_occupancy
  Cu  Cu1       1.0  0.05910  0.99474  0.90555  1.0000
  Cu  Cu2       1.0  0.94090  0.00526  0.09446  1.0000
  P   P1        1.0  0.01091  0.79746  0.74625  1.0000
  P   P2        1.0  0.98909  0.20254  0.25375  1.0000
  H   H1        1.0  0.05438  0.29300  0.86127  1.0000
  H   H2        1.0  0.94562  0.70700  0.13874  1.0000
  H   H3        1.0  0.24036  0.51782  0.89714  1.0000
  H   H4        1.0  0.75963  0.48217  0.10285  1.0000
  H   H5        1.0  0.60151  0.29942  0.06533  1.0000
  H   H6        1.0  0.39849  0.70057  0.93465  1.0000
  H   H7        1.0  0.39993  0.08500  0.02106  1.0000
  H   H8        1.0  0.60007  0.91500  0.97894  1.0000
  H   H9        1.0  0.30048  0.96721  0.78137  1.0000
  H   H10       1.0  0.69952  0.03279  0.21863  1.0000
  H   H11       1.0  0.54787  0.89747  0.75058  1.0000
  H   H12       1.0  0.45213  0.10253  0.24942  1.0000
  H   H13       1.0  0.58215  0.62304  0.68458  1.0000
  H   H14       1.0  0.41785  0.37696  0.31541  1.0000
  H   H15       1.0  0.36846  0.41983  0.65177  1.0000
  H   H16       1.0  0.63154  0.58017  0.34823  1.0000
  H   H17       1.0  0.11865  0.48950  0.67651  1.0000
  H   H18       1.0  0.88134  0.51050  0.32349  1.0000
  H   H19       1.0  0.94335  0.66657  0.90677  1.0000
  H   H20       1.0  0.05665  0.33344  0.09323  1.0000
  H   H21       1.0  0.79180  0.42159  0.88308  1.0000
  H   H22       1.0  0.20820  0.57841  0.11692  1.0000
  H   H23       1.0  0.65239  0.23822  0.68988  1.0000
  H   H24       1.0  0.34761  0.76178  0.31012  1.0000
  H   H25       1.0  0.66248  0.30058  0.51729  1.0000
  H   H26       1.0  0.33753  0.69943  0.48271  1.0000
  H   H27       1.0  0.81598  0.54138  0.54047  1.0000
  H   H28       1.0  0.18402  0.45863  0.45953  1.0000
  H   H29       1.0  0.74103  0.93660  0.67263  1.0000
  H   H30       1.0  0.25897  0.06340  0.32738  1.0000
  H   H31       1.0  0.60279  0.97566  0.48943  1.0000
  H   H32       1.0  0.39721  0.02434  0.51057  1.0000
  H   H33       1.0  0.70556  0.89692  0.32641  1.0000
  H   H34       1.0  0.29444  0.10309  0.67360  1.0000
  H   H35       1.0  0.95273  0.78635  0.34868  1.0000
  H   H36       1.0  0.04727  0.21364  0.65132  1.0000
  H   H37       1.0  0.08677  0.74153  0.52836  1.0000
  H   H38       1.0  0.91323  0.25847  0.47164  1.0000
  C   C1        1.0  0.17780  0.29848  0.90487  1.0000
  C   C2        1.0  0.82219  0.70152  0.09512  1.0000
  C   C3        1.0  0.28371  0.42515  0.92642  1.0000
  C   C4        1.0  0.71629  0.57485  0.07358  1.0000
  C   C5        1.0  0.44191  0.43289  0.98626  1.0000
  C   C6        1.0  0.55809  0.56711  0.01373  1.0000
  C   C7        1.0  0.48257  0.30568  0.01933  1.0000
  C   C8        1.0  0.51743  0.69432  0.98066  1.0000
  C   C9        1.0  0.36984  0.18299  0.99403  1.0000
  C   C10       1.0  0.63016  0.81701  0.00597  1.0000
  C   C11       1.0  0.19169  0.73326  0.72879  1.0000
  C   C12       1.0  0.80831  0.26674  0.27121  1.0000
  C   C13       1.0  0.31459  0.84714  0.75024  1.0000
  C   C14       1.0  0.68541  0.15286  0.24976  1.0000
  C   C15       1.0  0.45316  0.80761  0.73255  1.0000
  C   C16       1.0  0.54684  0.19239  0.26744  1.0000
  C   C17       1.0  0.47311  0.65375  0.69702  1.0000
  C   C18       1.0  0.52689  0.34625  0.30298  1.0000
  C   C19       1.0  0.35348  0.54006  0.67886  1.0000
  C   C20       1.0  0.64652  0.45994  0.32114  1.0000
  C   C21       1.0  0.21273  0.57928  0.69363  1.0000
  C   C22       1.0  0.78727  0.42072  0.30637  1.0000
  C   C23       1.0  0.89169  0.61985  0.72545  1.0000
  C   C24       1.0  0.10831  0.38016  0.27455  1.0000
  C   C25       1.0  0.88262  0.58555  0.82155  1.0000
  C   C26       1.0  0.11738  0.41445  0.17845  1.0000
  C   C27       1.0  0.79726  0.44845  0.80819  1.0000
  C   C28       1.0  0.20274  0.55155  0.19181  1.0000
  C   C29       1.0  0.71883  0.34489  0.69911  1.0000
  C   C30       1.0  0.28118  0.65511  0.30089  1.0000
  C   C31       1.0  0.72539  0.37918  0.60298  1.0000
  C   C32       1.0  0.27461  0.62082  0.39702  1.0000
  C   C33       1.0  0.81192  0.51571  0.61604  1.0000
  C   C34       1.0  0.18808  0.48429  0.38396  1.0000
  C   C35       1.0  0.92088  0.83233  0.61183  1.0000
  C   C36       1.0  0.07913  0.16767  0.38818  1.0000
  C   C37       1.0  0.78489  0.90029  0.60034  1.0000
  C   C38       1.0  0.21511  0.09971  0.39966  1.0000
  C   C39       1.0  0.70807  0.92263  0.49789  1.0000
  C   C40       1.0  0.29193  0.07737  0.50212  1.0000
  C   C41       1.0  0.76637  0.87951  0.40630  1.0000
  C   C42       1.0  0.23363  0.12049  0.59370  1.0000
  C   C43       1.0  0.90389  0.81643  0.41846  1.0000
  C   C44       1.0  0.09612  0.18357  0.58154  1.0000
  C   C45       1.0  0.98037  0.79224  0.52039  1.0000
  C   C46       1.0  0.01963  0.20776  0.47962  1.0000
  I   I1        1.0  0.80588  0.11585  0.92490  1.0000
  I   I2        1.0  0.19411  0.88415  0.07510  1.0000
  N   N1        1.0  0.21812  0.17747  0.93827  1.0000
  N   N2        1.0  0.78187  0.82253  0.06173  1.0000
