data_image0
_chemical_formula_structural       Ag2H10C10S2N2Cl2
_chemical_formula_sum              "Ag2 H10 C10 S2 N2 Cl2"
_cell_length_a       7.08822
_cell_length_b       7.79416
_cell_length_c       7.7939
_cell_angle_alpha    92.9083
_cell_angle_beta     115.384
_cell_angle_gamma    115.388

_space_group_name_H-M_alt    "P 1"
_space_group_IT_number       1

loop_
  _space_group_symop_operation_xyz
  'x, y, z'

loop_
  _atom_site_type_symbol
  _atom_site_label
  _atom_site_symmetry_multiplicity
  _atom_site_fract_x
  _atom_site_fract_y
  _atom_site_fract_z
  _atom_site_occupancy
  Ag  Ag1       1.0  0.92037  0.16181  0.86427  1.0000
  Ag  Ag2       1.0  0.42037  0.86427  0.16181  1.0000
  H   H1        1.0  0.40981  0.76413  0.49565  1.0000
  H   H2        1.0  0.90983  0.49565  0.76414  1.0000
  H   H3        1.0  0.22287  0.17910  0.26083  1.0000
  H   H4        1.0  0.72285  0.26083  0.17910  1.0000
  H   H5        1.0  0.48633  0.69962  0.81890  1.0000
  H   H6        1.0  0.98633  0.81888  0.69961  1.0000
  H   H7        1.0  0.43259  0.36125  0.85733  1.0000
  H   H8        1.0  0.93257  0.85733  0.36125  1.0000
  H   H9        1.0  0.31276  0.11066  0.56290  1.0000
  H   H10       1.0  0.81273  0.56290  0.11065  1.0000
  C   C1        1.0  0.31347  0.47303  0.35053  1.0000
  C   C2        1.0  0.81348  0.35053  0.47303  1.0000
  C   C3        1.0  0.38905  0.62077  0.51459  1.0000
  C   C4        1.0  0.88906  0.51459  0.62079  1.0000
  C   C5        1.0  0.43147  0.58298  0.69571  1.0000
  C   C6        1.0  0.93147  0.69571  0.58295  1.0000
  C   C7        1.0  0.33276  0.25625  0.55722  1.0000
  C   C8        1.0  0.83275  0.55721  0.25624  1.0000
  C   C9        1.0  0.40431  0.39791  0.71890  1.0000
  C   C10       1.0  0.90429  0.71889  0.39792  1.0000
  S   S1        1.0  0.25318  0.50127  0.11805  1.0000
  S   S2        1.0  0.75318  0.11805  0.50127  1.0000
  N   N1        1.0  0.28749  0.29510  0.38129  1.0000
  N   N2        1.0  0.78748  0.38127  0.29512  1.0000
  Cl  Cl1       1.0  0.04147  0.92013  0.04264  1.0000
  Cl  Cl2       1.0  0.54146  0.04264  0.92013  1.0000
