data_image0
_chemical_formula_structural       Cd2H14C10O14
_chemical_formula_sum              "Cd2 H14 C10 O14"
_cell_length_a       5.58317
_cell_length_b       7.63222
_cell_length_c       9.63129
_cell_angle_alpha    110.477
_cell_angle_beta     102.219
_cell_angle_gamma    97.7953

_space_group_name_H-M_alt    "P 1"
_space_group_IT_number       1

loop_
  _space_group_symop_operation_xyz
  'x, y, z'

loop_
  _atom_site_type_symbol
  _atom_site_label
  _atom_site_symmetry_multiplicity
  _atom_site_fract_x
  _atom_site_fract_y
  _atom_site_fract_z
  _atom_site_occupancy
  Cd  Cd1       1.0  0.52649  0.58113  0.33981  1.0000
  Cd  Cd2       1.0  0.47351  0.41887  0.66020  1.0000
  H   H1        1.0  0.64250  0.05219  0.83000  1.0000
  H   H2        1.0  0.35750  0.94780  0.17000  1.0000
  H   H3        1.0  0.05205  0.63036  0.18228  1.0000
  H   H4        1.0  0.94795  0.36964  0.81772  1.0000
  H   H5        1.0  0.24389  0.60249  0.07648  1.0000
  H   H6        1.0  0.75611  0.39750  0.92352  1.0000
  H   H7        1.0  0.67881  0.72719  0.13257  1.0000
  H   H8        1.0  0.32119  0.27281  0.86743  1.0000
  H   H9        1.0  0.88127  0.87331  0.29460  1.0000
  H   H10       1.0  0.11873  0.12669  0.70540  1.0000
  H   H11       1.0  0.28160  0.78017  0.56861  1.0000
  H   H12       1.0  0.71839  0.21984  0.43139  1.0000
  H   H13       1.0  0.26230  0.90775  0.46992  1.0000
  H   H14       1.0  0.73770  0.09226  0.53008  1.0000
  C   C1        1.0  0.06123  0.09985  0.16083  1.0000
  C   C2        1.0  0.93877  0.90016  0.83917  1.0000
  C   C3        1.0  0.85828  0.12962  0.06434  1.0000
  C   C4        1.0  0.14172  0.87037  0.93566  1.0000
  C   C5        1.0  0.80052  0.02942  0.90469  1.0000
  C   C6        1.0  0.19948  0.97058  0.09531  1.0000
  C   C7        1.0  0.70505  0.26896  0.12669  1.0000
  C   C8        1.0  0.29496  0.73104  0.87331  1.0000
  C   C9        1.0  0.13407  0.19056  0.33406  1.0000
  C   C10       1.0  0.86593  0.80944  0.66593  1.0000
  O   O1        1.0  0.57722  0.33095  0.03593  1.0000
  O   O2        1.0  0.42278  0.66905  0.96407  1.0000
  O   O3        1.0  0.71467  0.32262  0.26965  1.0000
  O   O4        1.0  0.28533  0.67738  0.73035  1.0000
  O   O5        1.0  0.07477  0.08282  0.40195  1.0000
  O   O6        1.0  0.92523  0.91718  0.59805  1.0000
  O   O7        1.0  0.26363  0.36303  0.40596  1.0000
  O   O8        1.0  0.73638  0.63697  0.59404  1.0000
  O   O9        1.0  0.18449  0.56219  0.15335  1.0000
  O   O10       1.0  0.81551  0.43781  0.84665  1.0000
  O   O11       1.0  0.78894  0.73490  0.23088  1.0000
  O   O12       1.0  0.21106  0.26510  0.76912  1.0000
  O   O13       1.0  0.36148  0.82457  0.50157  1.0000
  O   O14       1.0  0.63852  0.17543  0.49843  1.0000
