data_image0
_chemical_formula_structural       Cd2H32C22N20
_chemical_formula_sum              "Cd2 H32 C22 N20"
_cell_length_a       7.95177
_cell_length_b       10.2845
_cell_length_c       10.3602
_cell_angle_alpha    104.272
_cell_angle_beta     102.146
_cell_angle_gamma    105.856

_space_group_name_H-M_alt    "P 1"
_space_group_IT_number       1

loop_
  _space_group_symop_operation_xyz
  'x, y, z'

loop_
  _atom_site_type_symbol
  _atom_site_label
  _atom_site_symmetry_multiplicity
  _atom_site_fract_x
  _atom_site_fract_y
  _atom_site_fract_z
  _atom_site_occupancy
  Cd  Cd1       1.0  0.68293  0.56381  0.41784  1.0000
  Cd  Cd2       1.0  0.31707  0.43619  0.58216  1.0000
  H   H1        1.0  0.50144  0.90045  0.28483  1.0000
  H   H2        1.0  0.49856  0.09955  0.71517  1.0000
  H   H3        1.0  0.53310  0.81205  0.41134  1.0000
  H   H4        1.0  0.46690  0.18795  0.58866  1.0000
  H   H5        1.0  0.68243  0.07750  0.24084  1.0000
  H   H6        1.0  0.31757  0.92251  0.75916  1.0000
  H   H7        1.0  0.70794  0.97584  0.08548  1.0000
  H   H8        1.0  0.29206  0.02416  0.91452  1.0000
  H   H9        1.0  0.89587  0.12579  0.20507  1.0000
  H   H10       1.0  0.10413  0.87422  0.79493  1.0000
  H   H11       1.0  0.16901  0.69397  0.34592  1.0000
  H   H12       1.0  0.83099  0.30603  0.65408  1.0000
  H   H13       1.0  0.11918  0.72632  0.50725  1.0000
  H   H14       1.0  0.88083  0.27368  0.49275  1.0000
  H   H15       1.0  0.28365  0.86303  0.47786  1.0000
  H   H16       1.0  0.71635  0.13697  0.52214  1.0000
  H   H17       1.0  0.13232  0.44827  0.92056  1.0000
  H   H18       1.0  0.86767  0.55173  0.07944  1.0000
  H   H19       1.0  0.13970  0.99593  0.28716  1.0000
  H   H20       1.0  0.86030  0.00407  0.71284  1.0000
  H   H21       1.0  0.44968  0.28624  0.11970  1.0000
  H   H22       1.0  0.55032  0.71376  0.88031  1.0000
  H   H23       1.0  0.24186  0.23361  0.98182  1.0000
  H   H24       1.0  0.75814  0.76639  0.01819  1.0000
  H   H25       1.0  0.23706  0.25896  0.15690  1.0000
  H   H26       1.0  0.76294  0.74104  0.84310  1.0000
  H   H27       1.0  0.35590  0.82942  0.00287  1.0000
  H   H28       1.0  0.64409  0.17058  0.99713  1.0000
  H   H29       1.0  0.22935  0.84418  0.12438  1.0000
  H   H30       1.0  0.77064  0.15581  0.87561  1.0000
  H   H31       1.0  0.12311  0.71940  0.95321  1.0000
  H   H32       1.0  0.87689  0.28059  0.04679  1.0000
  C   C1        1.0  0.54755  0.81585  0.30938  1.0000
  C   C2        1.0  0.45245  0.18415  0.69062  1.0000
  C   C3        1.0  0.77828  0.03522  0.19686  1.0000
  C   C4        1.0  0.22173  0.96478  0.80314  1.0000
  C   C5        1.0  0.15209  0.77506  0.42888  1.0000
  C   C6        1.0  0.84791  0.22495  0.57111  1.0000
  C   C7        1.0  0.00642  0.82897  0.37281  1.0000
  C   C8        1.0  0.99358  0.17103  0.62719  1.0000
  C   C9        1.0  0.33518  0.45093  0.10870  1.0000
  C   C10       1.0  0.66482  0.54907  0.89131  1.0000
  C   C11       1.0  0.84556  0.94399  0.27077  1.0000
  C   C12       1.0  0.15445  0.05601  0.72923  1.0000
  C   C13       1.0  0.23656  0.50670  0.02002  1.0000
  C   C14       1.0  0.76344  0.49329  0.97998  1.0000
  C   C15       1.0  0.01839  0.93306  0.30516  1.0000
  C   C16       1.0  0.98161  0.06695  0.69484  1.0000
  C   C17       1.0  0.30210  0.65377  0.08371  1.0000
  C   C18       1.0  0.69790  0.34622  0.91629  1.0000
  C   C19       1.0  0.31554  0.29897  0.09066  1.0000
  C   C20       1.0  0.68446  0.70103  0.90934  1.0000
  C   C21       1.0  0.25041  0.76817  0.03961  1.0000
  C   C22       1.0  0.74958  0.23183  0.96039  1.0000
  N   N1        1.0  0.45535  0.55736  0.22120  1.0000
  N   N2        1.0  0.54465  0.44264  0.77880  1.0000
  N   N3        1.0  0.50414  0.64724  0.55876  1.0000
  N   N4        1.0  0.49587  0.35277  0.44124  1.0000
  N   N5        1.0  0.83589  0.77903  0.38133  1.0000
  N   N6        1.0  0.16411  0.22098  0.61867  1.0000
  N   N7        1.0  0.43404  0.68003  0.20474  1.0000
  N   N8        1.0  0.56596  0.31997  0.79526  1.0000
  N   N9        1.0  0.96243  0.40997  0.33140  1.0000
  N   N10       1.0  0.03758  0.59003  0.66860  1.0000
  N   N11       1.0  0.82598  0.43348  0.29217  1.0000
  N   N12       1.0  0.17402  0.56652  0.70783  1.0000
  N   N13       1.0  0.53484  0.76804  0.62759  1.0000
  N   N14       1.0  0.46516  0.23195  0.37241  1.0000
  N   N15       1.0  0.73922  0.84944  0.31858  1.0000
  N   N16       1.0  0.26078  0.15056  0.68142  1.0000
  N   N17       1.0  0.09619  0.38076  0.36197  1.0000
  N   N18       1.0  0.90382  0.61925  0.63803  1.0000
  N   N19       1.0  0.56474  0.88688  0.69289  1.0000
  N   N20       1.0  0.43527  0.11313  0.30712  1.0000
