data_image0
_chemical_formula_structural       Cd2H20C30N6O14
_chemical_formula_sum              "Cd2 H20 C30 N6 O14"
_cell_length_a       8.03071
_cell_length_b       9.57957
_cell_length_c       10.6921
_cell_angle_alpha    96.9345
_cell_angle_beta     102.435
_cell_angle_gamma    101.073

_space_group_name_H-M_alt    "P 1"
_space_group_IT_number       1

loop_
  _space_group_symop_operation_xyz
  'x, y, z'

loop_
  _atom_site_type_symbol
  _atom_site_label
  _atom_site_symmetry_multiplicity
  _atom_site_fract_x
  _atom_site_fract_y
  _atom_site_fract_z
  _atom_site_occupancy
  Cd  Cd1       1.0  0.01865  0.07322  0.85270  1.0000
  Cd  Cd2       1.0  0.98135  0.92678  0.14730  1.0000
  H   H1        1.0  0.28479  0.38917  0.91386  1.0000
  H   H2        1.0  0.71520  0.61082  0.08614  1.0000
  H   H3        1.0  0.38398  0.58791  0.79819  1.0000
  H   H4        1.0  0.61602  0.41209  0.20181  1.0000
  H   H5        1.0  0.26100  0.55472  0.55505  1.0000
  H   H6        1.0  0.73900  0.44528  0.44495  1.0000
  H   H7        1.0  0.03262  0.33559  0.44509  1.0000
  H   H8        1.0  0.96738  0.66442  0.55491  1.0000
  H   H9        1.0  0.80686  0.18037  0.37498  1.0000
  H   H10       1.0  0.19314  0.81963  0.62502  1.0000
  H   H11       1.0  0.57138  0.96000  0.28925  1.0000
  H   H12       1.0  0.42862  0.04000  0.71075  1.0000
  H   H13       1.0  0.52721  0.77137  0.43126  1.0000
  H   H14       1.0  0.47279  0.22863  0.56874  1.0000
  H   H15       1.0  0.72171  0.81725  0.65657  1.0000
  H   H16       1.0  0.27829  0.18275  0.34343  1.0000
  H   H17       1.0  0.40600  0.13467  0.92733  1.0000
  H   H18       1.0  0.59400  0.86533  0.07267  1.0000
  H   H19       1.0  0.32129  0.01222  0.00203  1.0000
  H   H20       1.0  0.67870  0.98778  0.99797  1.0000
  C   C1        1.0  0.99706  0.62190  0.93731  1.0000
  C   C2        1.0  0.00294  0.37810  0.06268  1.0000
  C   C3        1.0  0.86655  0.37121  0.95330  1.0000
  C   C4        1.0  0.13345  0.62879  0.04670  1.0000
  C   C5        1.0  0.86989  0.49305  0.89291  1.0000
  C   C6        1.0  0.13011  0.50694  0.10708  1.0000
  C   C7        1.0  0.99431  0.74856  0.86486  1.0000
  C   C8        1.0  0.00569  0.25144  0.13514  1.0000
  C   C9        1.0  0.71031  0.24236  0.91648  1.0000
  C   C10       1.0  0.28969  0.75764  0.08352  1.0000
  C   C11       1.0  0.22793  0.38353  0.81069  1.0000
  C   C12       1.0  0.77207  0.61647  0.18931  1.0000
  C   C13       1.0  0.28554  0.49285  0.74505  1.0000
  C   C14       1.0  0.71446  0.50715  0.25495  1.0000
  C   C15       1.0  0.21498  0.47468  0.61160  1.0000
  C   C16       1.0  0.78502  0.52533  0.38840  1.0000
  C   C17       1.0  0.08562  0.35229  0.54976  1.0000
  C   C18       1.0  0.91438  0.64771  0.45024  1.0000
  C   C19       1.0  0.02826  0.24961  0.62309  1.0000
  C   C20       1.0  0.97174  0.75039  0.37691  1.0000
  C   C21       1.0  0.88675  0.11853  0.56392  1.0000
  C   C22       1.0  0.11325  0.88148  0.43608  1.0000
  C   C23       1.0  0.78380  0.10018  0.43676  1.0000
  C   C24       1.0  0.21620  0.89983  0.56324  1.0000
  C   C25       1.0  0.65274  0.97513  0.38781  1.0000
  C   C26       1.0  0.34726  0.02487  0.61219  1.0000
  C   C27       1.0  0.62762  0.87060  0.46612  1.0000
  C   C28       1.0  0.37238  0.12940  0.53388  1.0000
  C   C29       1.0  0.73463  0.89579  0.59140  1.0000
  C   C30       1.0  0.26537  0.10422  0.40860  1.0000
  N   N1        1.0  0.73948  0.48393  0.77069  1.0000
  N   N2        1.0  0.26052  0.51607  0.22931  1.0000
  N   N3        1.0  0.10236  0.26615  0.75161  1.0000
  N   N4        1.0  0.89764  0.73385  0.24838  1.0000
  N   N5        1.0  0.86013  0.01619  0.63846  1.0000
  N   N6        1.0  0.13987  0.98381  0.36154  1.0000
  O   O1        1.0  0.94344  0.85485  0.92006  1.0000
  O   O2        1.0  0.05656  0.14515  0.07994  1.0000
  O   O3        1.0  0.04003  0.74205  0.76114  1.0000
  O   O4        1.0  0.95997  0.25795  0.23886  1.0000
  O   O5        1.0  0.73682  0.11739  0.88636  1.0000
  O   O6        1.0  0.26318  0.88261  0.11364  1.0000
  O   O7        1.0  0.56721  0.27272  0.92639  1.0000
  O   O8        1.0  0.43279  0.72728  0.07361  1.0000
  O   O9        1.0  0.71196  0.37335  0.68880  1.0000
  O   O10       1.0  0.28804  0.62665  0.31120  1.0000
  O   O11       1.0  0.67086  0.58766  0.75485  1.0000
  O   O12       1.0  0.32914  0.41234  0.24516  1.0000
  O   O13       1.0  0.30530  0.05101  0.92004  1.0000
  O   O14       1.0  0.69470  0.94899  0.07996  1.0000
