data_image0
_chemical_formula_structural       Cu2H28C34S2N4O12
_chemical_formula_sum              "Cu2 H28 C34 S2 N4 O12"
_cell_length_a       8.98325
_cell_length_b       11.0308
_cell_length_c       10.879
_cell_angle_alpha    106.65
_cell_angle_beta     107.376
_cell_angle_gamma    106.834

_space_group_name_H-M_alt    "P 1"
_space_group_IT_number       1

loop_
  _space_group_symop_operation_xyz
  'x, y, z'

loop_
  _atom_site_type_symbol
  _atom_site_label
  _atom_site_symmetry_multiplicity
  _atom_site_fract_x
  _atom_site_fract_y
  _atom_site_fract_z
  _atom_site_occupancy
  Cu  Cu1       1.0  0.12441  0.95028  0.85366  1.0000
  Cu  Cu2       1.0  0.87559  0.04972  0.14634  1.0000
  H   H1        1.0  0.08334  0.86976  0.59330  1.0000
  H   H2        1.0  0.91667  0.13024  0.40670  1.0000
  H   H3        1.0  0.86816  0.67276  0.74040  1.0000
  H   H4        1.0  0.13184  0.32724  0.25959  1.0000
  H   H5        1.0  0.85325  0.44016  0.73163  1.0000
  H   H6        1.0  0.14675  0.55983  0.26837  1.0000
  H   H7        1.0  0.39899  0.63848  0.98495  1.0000
  H   H8        1.0  0.60101  0.36153  0.01505  1.0000
  H   H9        1.0  0.39078  0.86244  0.98514  1.0000
  H   H10       1.0  0.60923  0.13756  0.01486  1.0000
  H   H11       1.0  0.86731  0.30365  0.85057  1.0000
  H   H12       1.0  0.13268  0.69635  0.14943  1.0000
  H   H13       1.0  0.86949  0.07819  0.84115  1.0000
  H   H14       1.0  0.13053  0.92181  0.15885  1.0000
  H   H15       1.0  0.35199  0.18513  0.84334  1.0000
  H   H16       1.0  0.64802  0.81487  0.15667  1.0000
  H   H17       1.0  0.37232  0.42110  0.85412  1.0000
  H   H18       1.0  0.62768  0.57889  0.14588  1.0000
  H   H19       1.0  0.86664  0.35241  0.49232  1.0000
  H   H20       1.0  0.13338  0.64760  0.50768  1.0000
  H   H21       1.0  0.88173  0.58930  0.51868  1.0000
  H   H22       1.0  0.11827  0.41071  0.48131  1.0000
  H   H23       1.0  0.62492  0.61576  0.38651  1.0000
  H   H24       1.0  0.37505  0.38424  0.61348  1.0000
  H   H25       1.0  0.35798  0.40475  0.21632  1.0000
  H   H26       1.0  0.64198  0.59523  0.78368  1.0000
  H   H27       1.0  0.91517  0.89183  0.59992  1.0000
  H   H28       1.0  0.08484  0.10817  0.40009  1.0000
  C   C1        1.0  0.98123  0.65884  0.79383  1.0000
  C   C2        1.0  0.01876  0.34116  0.20617  1.0000
  C   C3        1.0  0.97450  0.53114  0.79171  1.0000
  C   C4        1.0  0.02550  0.46886  0.20829  1.0000
  C   C5        1.0  0.12568  0.51965  0.86008  1.0000
  C   C6        1.0  0.87432  0.48035  0.13992  1.0000
  C   C7        1.0  0.27755  0.64064  0.92971  1.0000
  C   C8        1.0  0.72244  0.35935  0.07029  1.0000
  C   C9        1.0  0.27505  0.76623  0.92983  1.0000
  C   C10       1.0  0.72495  0.23376  0.07017  1.0000
  C   C11       1.0  0.12234  0.38422  0.85606  1.0000
  C   C12       1.0  0.87766  0.61578  0.14395  1.0000
  C   C13       1.0  0.97919  0.28417  0.84999  1.0000
  C   C14       1.0  0.02081  0.71583  0.15003  1.0000
  C   C15       1.0  0.97899  0.15704  0.84540  1.0000
  C   C16       1.0  0.02103  0.84296  0.15461  1.0000
  C   C17       1.0  0.25088  0.21958  0.84846  1.0000
  C   C18       1.0  0.74912  0.78041  0.15154  1.0000
  C   C19       1.0  0.26048  0.34922  0.85499  1.0000
  C   C20       1.0  0.73952  0.65077  0.14502  1.0000
  C   C21       1.0  0.29697  0.14226  0.14883  1.0000
  C   C22       1.0  0.70303  0.85774  0.85118  1.0000
  C   C23       1.0  0.46313  0.26132  0.25793  1.0000
  C   C24       1.0  0.53686  0.73868  0.74207  1.0000
  C   C25       1.0  0.60748  0.24691  0.33674  1.0000
  C   C26       1.0  0.39253  0.75310  0.66326  1.0000
  C   C27       1.0  0.75720  0.36536  0.43009  1.0000
  C   C28       1.0  0.24281  0.63465  0.56992  1.0000
  C   C29       1.0  0.76500  0.49738  0.44574  1.0000
  C   C30       1.0  0.23499  0.50263  0.55426  1.0000
  C   C31       1.0  0.62073  0.51240  0.37059  1.0000
  C   C32       1.0  0.37926  0.48760  0.62941  1.0000
  C   C33       1.0  0.47126  0.39471  0.27702  1.0000
  C   C34       1.0  0.52872  0.60529  0.72298  1.0000
  S   S1        1.0  0.60269  0.07937  0.32671  1.0000
  S   S2        1.0  0.39732  0.92064  0.67329  1.0000
  N   N1        1.0  0.12816  0.77414  0.86215  1.0000
  N   N2        1.0  0.87185  0.22586  0.13785  1.0000
  N   N3        1.0  0.11292  0.12556  0.84517  1.0000
  N   N4        1.0  0.88708  0.87444  0.15483  1.0000
  O   O1        1.0  0.31114  0.06154  0.04550  1.0000
  O   O2        1.0  0.68886  0.93845  0.95450  1.0000
  O   O3        1.0  0.16133  0.13682  0.16124  1.0000
  O   O4        1.0  0.83865  0.86317  0.83876  1.0000
  O   O5        1.0  0.44192  0.00609  0.32985  1.0000
  O   O6        1.0  0.55808  0.99391  0.67015  1.0000
  O   O7        1.0  0.61772  0.01376  0.19477  1.0000
  O   O8        1.0  0.38229  0.98625  0.80524  1.0000
  O   O9        1.0  0.75876  0.11210  0.45078  1.0000
  O   O10       1.0  0.24124  0.88792  0.54922  1.0000
  O   O11       1.0  0.99138  0.84878  0.63061  1.0000
  O   O12       1.0  0.00863  0.15122  0.36939  1.0000
