data_image0
_chemical_formula_structural       Hg2H28C28I4N8
_chemical_formula_sum              "Hg2 H28 C28 I4 N8"
_cell_length_a       8.66052
_cell_length_b       8.93247
_cell_length_c       11.5193
_cell_angle_alpha    74.5599
_cell_angle_beta     88.1908
_cell_angle_gamma    84.6247

_space_group_name_H-M_alt    "P 1"
_space_group_IT_number       1

loop_
  _space_group_symop_operation_xyz
  'x, y, z'

loop_
  _atom_site_type_symbol
  _atom_site_label
  _atom_site_symmetry_multiplicity
  _atom_site_fract_x
  _atom_site_fract_y
  _atom_site_fract_z
  _atom_site_occupancy
  Hg  Hg1       1.0  0.78664  0.48840  0.33428  1.0000
  Hg  Hg2       1.0  0.21336  0.51160  0.66572  1.0000
  H   H1        1.0  0.65483  0.10926  0.40526  1.0000
  H   H2        1.0  0.34518  0.89074  0.59475  1.0000
  H   H3        1.0  0.78469  0.41083  0.04778  1.0000
  H   H4        1.0  0.21531  0.58917  0.95222  1.0000
  H   H5        1.0  0.43194  0.33552  0.31354  1.0000
  H   H6        1.0  0.56805  0.66448  0.68646  1.0000
  H   H7        1.0  0.34837  0.22530  0.12081  1.0000
  H   H8        1.0  0.65163  0.77470  0.87919  1.0000
  H   H9        1.0  0.83427  0.77742  0.13838  1.0000
  H   H10       1.0  0.16573  0.22258  0.86162  1.0000
  H   H11       1.0  0.61728  0.36007  0.86734  1.0000
  H   H12       1.0  0.38272  0.63993  0.13266  1.0000
  H   H13       1.0  0.46246  0.24209  0.91595  1.0000
  H   H14       1.0  0.53754  0.75791  0.08405  1.0000
  H   H15       1.0  0.75939  0.20077  0.76088  1.0000
  H   H16       1.0  0.24061  0.79923  0.23912  1.0000
  H   H17       1.0  0.98420  0.75764  0.95614  1.0000
  H   H18       1.0  0.01580  0.24236  0.04386  1.0000
  H   H19       1.0  0.64616  0.00554  0.13392  1.0000
  H   H20       1.0  0.35384  0.99446  0.86608  1.0000
  H   H21       1.0  0.08992  0.02365  0.73754  1.0000
  H   H22       1.0  0.91008  0.97635  0.26246  1.0000
  H   H23       1.0  0.01169  0.84741  0.73627  1.0000
  H   H24       1.0  0.98831  0.15260  0.26373  1.0000
  H   H25       1.0  0.76919  0.86882  0.59854  1.0000
  H   H26       1.0  0.23081  0.13119  0.40145  1.0000
  H   H27       1.0  0.98886  0.27604  0.58801  1.0000
  H   H28       1.0  0.01114  0.72396  0.41199  1.0000
  C   C1        1.0  0.73956  0.10950  0.47238  1.0000
  C   C2        1.0  0.26044  0.89050  0.52761  1.0000
  C   C3        1.0  0.67893  0.37476  0.09614  1.0000
  C   C4        1.0  0.32107  0.62524  0.90386  1.0000
  C   C5        1.0  0.49363  0.33282  0.23049  1.0000
  C   C6        1.0  0.50637  0.66718  0.76951  1.0000
  C   C7        1.0  0.45049  0.27888  0.13601  1.0000
  C   C8        1.0  0.54951  0.72111  0.86398  1.0000
  C   C9        1.0  0.81722  0.87026  0.05526  1.0000
  C   C10       1.0  0.18278  0.12974  0.94474  1.0000
  C   C11       1.0  0.57983  0.26156  0.93861  1.0000
  C   C12       1.0  0.42017  0.73844  0.06139  1.0000
  C   C13       1.0  0.69087  0.11850  0.94603  1.0000
  C   C14       1.0  0.30913  0.88150  0.05397  1.0000
  C   C15       1.0  0.77567  0.10645  0.84317  1.0000
  C   C16       1.0  0.22433  0.89355  0.15683  1.0000
  C   C17       1.0  0.88214  0.97798  0.84552  1.0000
  C   C18       1.0  0.11786  0.02202  0.15448  1.0000
  C   C19       1.0  0.90220  0.85918  0.95254  1.0000
  C   C20       1.0  0.09780  0.14082  0.04746  1.0000
  C   C21       1.0  0.71170  0.99914  0.05258  1.0000
  C   C22       1.0  0.28830  0.00086  0.94742  1.0000
  C   C23       1.0  0.98108  0.96952  0.73645  1.0000
  C   C24       1.0  0.01892  0.03048  0.26355  1.0000
  C   C25       1.0  0.79421  0.98965  0.56771  1.0000
  C   C26       1.0  0.20579  0.01034  0.43230  1.0000
  C   C27       1.0  0.91143  0.20111  0.56318  1.0000
  C   C28       1.0  0.08857  0.79889  0.43682  1.0000
  I   I1        1.0  0.61787  0.72970  0.39160  1.0000
  I   I2        1.0  0.38213  0.27030  0.60840  1.0000
  I   I3        1.0  0.07663  0.48357  0.22433  1.0000
  I   I4        1.0  0.92336  0.51642  0.77566  1.0000
  N   N1        1.0  0.63619  0.39180  0.20420  1.0000
  N   N2        1.0  0.36381  0.60820  0.79580  1.0000
  N   N3        1.0  0.56854  0.30701  0.05164  1.0000
  N   N4        1.0  0.43146  0.69299  0.94836  1.0000
  N   N5        1.0  0.90320  0.04934  0.62375  1.0000
  N   N6        1.0  0.09680  0.95067  0.37625  1.0000
  N   N7        1.0  0.81359  0.24046  0.47097  1.0000
  N   N8        1.0  0.18641  0.75954  0.52903  1.0000
