data_image0
_chemical_formula_structural       Ho2H18C18N2O22
_chemical_formula_sum              "Ho2 H18 C18 N2 O22"
_cell_length_a       7.37611
_cell_length_b       9.25333
_cell_length_c       11.4624
_cell_angle_alpha    72.2039
_cell_angle_beta     69.7211
_cell_angle_gamma    80.4892

_space_group_name_H-M_alt    "P 1"
_space_group_IT_number       1

loop_
  _space_group_symop_operation_xyz
  'x, y, z'

loop_
  _atom_site_type_symbol
  _atom_site_label
  _atom_site_symmetry_multiplicity
  _atom_site_fract_x
  _atom_site_fract_y
  _atom_site_fract_z
  _atom_site_occupancy
  Ho  Ho1       1.0  0.10794  0.55460  0.21962  1.0000
  Ho  Ho2       1.0  0.89206  0.44541  0.78039  1.0000
  H   H1        1.0  0.18267  0.15057  0.61075  1.0000
  H   H2        1.0  0.81733  0.84943  0.38925  1.0000
  H   H3        1.0  0.36976  0.68628  0.59651  1.0000
  H   H4        1.0  0.63024  0.31372  0.40348  1.0000
  H   H5        1.0  0.22338  0.01311  0.27577  1.0000
  H   H6        1.0  0.77662  0.98689  0.72424  1.0000
  H   H7        1.0  0.81970  0.61131  0.45607  1.0000
  H   H8        1.0  0.18030  0.38870  0.54393  1.0000
  H   H9        1.0  0.68352  0.60867  0.37115  1.0000
  H   H10       1.0  0.31648  0.39133  0.62885  1.0000
  H   H11       1.0  0.48094  0.55538  0.22753  1.0000
  H   H12       1.0  0.51907  0.44462  0.77248  1.0000
  H   H13       1.0  0.54888  0.50510  0.09533  1.0000
  H   H14       1.0  0.45112  0.49490  0.90467  1.0000
  H   H15       1.0  0.12052  0.84762  0.99667  1.0000
  H   H16       1.0  0.87949  0.15238  0.00332  1.0000
  H   H17       1.0  0.00602  0.88587  0.13087  1.0000
  H   H18       1.0  0.99401  0.11414  0.86912  1.0000
  C   C1        1.0  0.16043  0.25972  0.36373  1.0000
  C   C2        1.0  0.83956  0.74028  0.63627  1.0000
  C   C3        1.0  0.20971  0.10044  0.43226  1.0000
  C   C4        1.0  0.79028  0.89956  0.56774  1.0000
  C   C5        1.0  0.21817  0.06453  0.55798  1.0000
  C   C6        1.0  0.78183  0.93547  0.44202  1.0000
  C   C7        1.0  0.27458  0.91552  0.61356  1.0000
  C   C8        1.0  0.72542  0.08448  0.38643  1.0000
  C   C9        1.0  0.32371  0.80091  0.54972  1.0000
  C   C10       1.0  0.67631  0.19910  0.45028  1.0000
  C   C11       1.0  0.29906  0.83581  0.42849  1.0000
  C   C12       1.0  0.70095  0.16419  0.57150  1.0000
  C   C13       1.0  0.24246  0.98508  0.37049  1.0000
  C   C14       1.0  0.75755  0.01492  0.62950  1.0000
  C   C15       1.0  0.32077  0.71289  0.36262  1.0000
  C   C16       1.0  0.67924  0.28710  0.63738  1.0000
  C   C17       1.0  0.89318  0.49629  0.04312  1.0000
  C   C18       1.0  0.10681  0.50373  0.95689  1.0000
  N   N1        1.0  0.28354  0.87566  0.74484  1.0000
  N   N2        1.0  0.71646  0.12435  0.25516  1.0000
  O   O1        1.0  0.15656  0.37049  0.41014  1.0000
  O   O2        1.0  0.84342  0.62951  0.58986  1.0000
  O   O3        1.0  0.12459  0.28486  0.25814  1.0000
  O   O4        1.0  0.87540  0.71514  0.74186  1.0000
  O   O5        1.0  0.18571  0.71481  0.31678  1.0000
  O   O6        1.0  0.81429  0.28519  0.68322  1.0000
  O   O7        1.0  0.46644  0.61766  0.35695  1.0000
  O   O8        1.0  0.53356  0.38233  0.64306  1.0000
  O   O9        1.0  0.40171  0.77378  0.77553  1.0000
  O   O10       1.0  0.59829  0.22621  0.22447  1.0000
  O   O11       1.0  0.16791  0.94686  0.82202  1.0000
  O   O12       1.0  0.83209  0.05314  0.17798  1.0000
  O   O13       1.0  0.85257  0.51511  0.15376  1.0000
  O   O14       1.0  0.14741  0.48491  0.84624  1.0000
  O   O15       1.0  0.77470  0.47087  0.99419  1.0000
  O   O16       1.0  0.22530  0.52914  0.00581  1.0000
  O   O17       1.0  0.82032  0.60135  0.37158  1.0000
  O   O18       1.0  0.17968  0.39865  0.62842  1.0000
  O   O19       1.0  0.43520  0.54104  0.15971  1.0000
  O   O20       1.0  0.56480  0.45896  0.84030  1.0000
  O   O21       1.0  0.06454  0.80333  0.09032  1.0000
  O   O22       1.0  0.93548  0.19667  0.90967  1.0000
