data_image0
_chemical_formula_structural       Mn2H32C52N4O10
_chemical_formula_sum              "Mn2 H32 C52 N4 O10"
_cell_length_a       8.81544
_cell_length_b       10.7758
_cell_length_c       11.7737
_cell_angle_alpha    81.9065
_cell_angle_beta     76.1948
_cell_angle_gamma    67.9002

_space_group_name_H-M_alt    "P 1"
_space_group_IT_number       1

loop_
  _space_group_symop_operation_xyz
  'x, y, z'

loop_
  _atom_site_type_symbol
  _atom_site_label
  _atom_site_symmetry_multiplicity
  _atom_site_fract_x
  _atom_site_fract_y
  _atom_site_fract_z
  _atom_site_occupancy
  Mn  Mn1       1.0  0.38207  0.68963  0.58080  1.0000
  Mn  Mn2       1.0  0.61793  0.31035  0.41920  1.0000
  H   H1        1.0  0.58894  0.49402  0.88407  1.0000
  H   H2        1.0  0.41106  0.50598  0.11593  1.0000
  H   H3        1.0  0.69962  0.34542  0.05437  1.0000
  H   H4        1.0  0.30038  0.65458  0.94563  1.0000
  H   H5        1.0  0.85528  0.10494  0.03231  1.0000
  H   H6        1.0  0.14472  0.89506  0.96768  1.0000
  H   H7        1.0  0.77651  0.14788  0.67882  1.0000
  H   H8        1.0  0.22348  0.85212  0.32118  1.0000
  H   H9        1.0  0.63684  0.99598  0.99383  1.0000
  H   H10       1.0  0.36316  0.00402  0.00616  1.0000
  H   H11       1.0  0.55490  0.80157  0.08229  1.0000
  H   H12       1.0  0.44510  0.19843  0.91771  1.0000
  H   H13       1.0  0.73511  0.57082  0.02117  1.0000
  H   H14       1.0  0.26489  0.42919  0.97883  1.0000
  H   H15       1.0  0.99470  0.53804  0.86696  1.0000
  H   H16       1.0  0.00530  0.46197  0.13304  1.0000
  H   H17       1.0  0.07813  0.97922  0.62187  1.0000
  H   H18       1.0  0.92187  0.02077  0.37814  1.0000
  H   H19       1.0  0.98881  0.20305  0.50940  1.0000
  H   H20       1.0  0.01119  0.79694  0.49060  1.0000
  H   H21       1.0  0.19022  0.25166  0.33742  1.0000
  H   H22       1.0  0.80978  0.74833  0.66258  1.0000
  H   H23       1.0  0.76230  0.00034  0.16636  1.0000
  H   H24       1.0  0.23770  0.99966  0.83365  1.0000
  H   H25       1.0  0.48391  0.17734  0.21396  1.0000
  H   H26       1.0  0.51608  0.82266  0.78604  1.0000
  H   H27       1.0  0.95590  0.76332  0.19694  1.0000
  H   H28       1.0  0.04410  0.23668  0.80306  1.0000
  H   H29       1.0  0.01046  0.54767  0.32179  1.0000
  H   H30       1.0  0.98954  0.45233  0.67821  1.0000
  H   H31       1.0  0.78359  0.52176  0.48515  1.0000
  H   H32       1.0  0.21641  0.47824  0.51485  1.0000
  C   C1        1.0  0.61836  0.41653  0.66692  1.0000
  C   C2        1.0  0.38165  0.58346  0.33308  1.0000
  C   C3        1.0  0.67528  0.33008  0.77144  1.0000
  C   C4        1.0  0.32472  0.66993  0.22856  1.0000
  C   C5        1.0  0.65272  0.38611  0.87747  1.0000
  C   C6        1.0  0.34728  0.61389  0.12253  1.0000
  C   C7        1.0  0.71509  0.30427  0.97117  1.0000
  C   C8        1.0  0.28492  0.69573  0.02883  1.0000
  C   C9        1.0  0.80129  0.16658  0.96018  1.0000
  C   C10       1.0  0.19871  0.83342  0.03982  1.0000
  C   C11       1.0  0.82055  0.11145  0.85484  1.0000
  C   C12       1.0  0.17945  0.88856  0.14516  1.0000
  C   C13       1.0  0.75781  0.19174  0.76111  1.0000
  C   C14       1.0  0.24219  0.80826  0.23889  1.0000
  C   C15       1.0  0.86551  0.87497  0.88597  1.0000
  C   C16       1.0  0.13449  0.12503  0.11403  1.0000
  C   C17       1.0  0.71616  0.89515  0.96782  1.0000
  C   C18       1.0  0.28385  0.10485  0.03218  1.0000
  C   C19       1.0  0.67013  0.78548  0.01664  1.0000
  C   C20       1.0  0.32988  0.21452  0.98336  1.0000
  C   C21       1.0  0.77061  0.65629  0.98221  1.0000
  C   C22       1.0  0.22939  0.34371  0.01779  1.0000
  C   C23       1.0  0.91647  0.63774  0.89703  1.0000
  C   C24       1.0  0.08353  0.36226  0.10297  1.0000
  C   C25       1.0  0.96714  0.74566  0.84837  1.0000
  C   C26       1.0  0.03286  0.25434  0.15163  1.0000
  C   C27       1.0  0.12169  0.72321  0.75433  1.0000
  C   C28       1.0  0.87832  0.27680  0.24567  1.0000
  C   C29       1.0  0.16097  0.00273  0.54420  1.0000
  C   C30       1.0  0.83903  0.99727  0.45581  1.0000
  C   C31       1.0  0.11279  0.12836  0.48244  1.0000
  C   C32       1.0  0.88721  0.87164  0.51756  1.0000
  C   C33       1.0  0.22457  0.15539  0.38720  1.0000
  C   C34       1.0  0.77543  0.84461  0.61280  1.0000
  C   C35       1.0  0.38469  0.05699  0.35428  1.0000
  C   C36       1.0  0.61531  0.94301  0.64573  1.0000
  C   C37       1.0  0.42079  0.93193  0.42032  1.0000
  C   C38       1.0  0.57920  0.06806  0.57969  1.0000
  C   C39       1.0  0.58237  0.82829  0.39055  1.0000
  C   C40       1.0  0.41763  0.17171  0.60945  1.0000
  C   C41       1.0  0.70354  0.85298  0.29608  1.0000
  C   C42       1.0  0.29646  0.14702  0.70392  1.0000
  C   C43       1.0  0.66431  0.98098  0.23368  1.0000
  C   C44       1.0  0.33568  0.01902  0.76632  1.0000
  C   C45       1.0  0.51084  0.07922  0.26093  1.0000
  C   C46       1.0  0.48915  0.92078  0.73908  1.0000
  C   C47       1.0  0.86083  0.74874  0.27031  1.0000
  C   C48       1.0  0.13916  0.25126  0.72969  1.0000
  C   C49       1.0  0.89128  0.63045  0.33884  1.0000
  C   C50       1.0  0.10871  0.36956  0.66116  1.0000
  C   C51       1.0  0.76419  0.61539  0.43173  1.0000
  C   C52       1.0  0.23581  0.38461  0.56827  1.0000
  N   N1        1.0  0.30906  0.90615  0.51326  1.0000
  N   N2        1.0  0.69094  0.09384  0.48674  1.0000
  N   N3        1.0  0.61382  0.71075  0.45659  1.0000
  N   N4        1.0  0.38618  0.28925  0.54340  1.0000
  O   O1        1.0  0.52985  0.53953  0.68259  1.0000
  O   O2        1.0  0.47014  0.46047  0.31741  1.0000
  O   O3        1.0  0.66716  0.36204  0.56911  1.0000
  O   O4        1.0  0.33284  0.63796  0.43089  1.0000
  O   O5        1.0  0.91928  0.97828  0.83388  1.0000
  O   O6        1.0  0.08072  0.02172  0.16612  1.0000
  O   O7        1.0  0.22710  0.77626  0.75846  1.0000
  O   O8        1.0  0.77291  0.22374  0.24154  1.0000
  O   O9        1.0  0.14257  0.65104  0.67059  1.0000
  O   O10       1.0  0.85744  0.34896  0.32941  1.0000
