data_image0
_chemical_formula_structural       Ni2H34C44N10O12
_chemical_formula_sum              "Ni2 H34 C44 N10 O12"
_cell_length_a       8.28362
_cell_length_b       10.2304
_cell_length_c       13.3592
_cell_angle_alpha    94.8055
_cell_angle_beta     108.196
_cell_angle_gamma    104.772

_space_group_name_H-M_alt    "P 1"
_space_group_IT_number       1

loop_
  _space_group_symop_operation_xyz
  'x, y, z'

loop_
  _atom_site_type_symbol
  _atom_site_label
  _atom_site_symmetry_multiplicity
  _atom_site_fract_x
  _atom_site_fract_y
  _atom_site_fract_z
  _atom_site_occupancy
  Ni  Ni1       1.0  0.13575  0.18998  0.43479  1.0000
  Ni  Ni2       1.0  0.86434  0.81004  0.56507  1.0000
  H   H1        1.0  0.70873  0.18547  0.86427  1.0000
  H   H2        1.0  0.29131  0.81430  0.13561  1.0000
  H   H3        1.0  0.70434  0.23052  0.32989  1.0000
  H   H4        1.0  0.29584  0.76964  0.67009  1.0000
  H   H5        1.0  0.20490  0.30802  0.22439  1.0000
  H   H6        1.0  0.79524  0.69221  0.77580  1.0000
  H   H7        1.0  0.98654  0.84356  0.19395  1.0000
  H   H8        1.0  0.01279  0.15630  0.80585  1.0000
  H   H9        1.0  0.09333  0.92222  0.93018  1.0000
  H   H10       1.0  0.90676  0.07791  0.06999  1.0000
  H   H11       1.0  0.52752  0.16164  0.47345  1.0000
  H   H12       1.0  0.47269  0.83841  0.52654  1.0000
  H   H13       1.0  0.64657  0.30413  0.00645  1.0000
  H   H14       1.0  0.35363  0.69583  0.99348  1.0000
  H   H15       1.0  0.64219  0.37573  0.17877  1.0000
  H   H16       1.0  0.35802  0.62441  0.82132  1.0000
  H   H17       1.0  0.43130  0.44134  0.59858  1.0000
  H   H18       1.0  0.56829  0.55830  0.40135  1.0000
  H   H19       1.0  0.08236  0.63142  0.46144  1.0000
  H   H20       1.0  0.91653  0.36890  0.53863  1.0000
  H   H21       1.0  0.93284  0.40843  0.14232  1.0000
  H   H22       1.0  0.06787  0.59163  0.85804  1.0000
  H   H23       1.0  0.20226  0.09833  0.09465  1.0000
  H   H24       1.0  0.79800  0.90191  0.90547  1.0000
  H   H25       1.0  0.56148  0.02499  0.78810  1.0000
  H   H26       1.0  0.43848  0.97475  0.21192  1.0000
  H   H27       1.0  0.43525  0.41017  0.13762  1.0000
  H   H28       1.0  0.56493  0.58995  0.86235  1.0000
  H   H29       1.0  0.65943  0.40584  0.79269  1.0000
  H   H30       1.0  0.34060  0.59384  0.20716  1.0000
  H   H31       1.0  0.28639  0.02247  0.62236  1.0000
  H   H32       1.0  0.71347  0.97722  0.37757  1.0000
  H   H33       1.0  0.25673  0.93521  0.80436  1.0000
  H   H34       1.0  0.74330  0.06470  0.19578  1.0000
  C   C1        1.0  0.43621  0.34988  0.63345  1.0000
  C   C2        1.0  0.56356  0.64979  0.36648  1.0000
  C   C3        1.0  0.06859  0.88014  0.41228  1.0000
  C   C4        1.0  0.93117  0.12011  0.58747  1.0000
  C   C5        1.0  0.95995  0.50314  0.19665  1.0000
  C   C6        1.0  0.04022  0.49694  0.80351  1.0000
  C   C7        1.0  0.35817  0.13145  0.64210  1.0000
  C   C8        1.0  0.64170  0.86822  0.35783  1.0000
  C   C9        1.0  0.54907  0.33380  0.72869  1.0000
  C   C10       1.0  0.45081  0.66589  0.27122  1.0000
  C   C11       1.0  0.01055  0.50680  0.30706  1.0000
  C   C12       1.0  0.98920  0.49334  0.69310  1.0000
  C   C13       1.0  0.99249  0.74969  0.22584  1.0000
  C   C14       1.0  0.00700  0.25026  0.77405  1.0000
  C   C15       1.0  0.03291  0.75012  0.33574  1.0000
  C   C16       1.0  0.96650  0.24995  0.66416  1.0000
  C   C17       1.0  0.30682  0.01460  0.87550  1.0000
  C   C18       1.0  0.69329  0.98536  0.12461  1.0000
  C   C19       1.0  0.04548  0.62968  0.37570  1.0000
  C   C20       1.0  0.95385  0.37046  0.62435  1.0000
  C   C21       1.0  0.46402  0.12109  0.89736  1.0000
  C   C22       1.0  0.53609  0.87882  0.10269  1.0000
  C   C23       1.0  0.56818  0.12844  0.82224  1.0000
  C   C24       1.0  0.43182  0.87132  0.17775  1.0000
  C   C25       1.0  0.27509  0.10647  0.03898  1.0000
  C   C26       1.0  0.72513  0.89368  0.96112  1.0000
  C   C27       1.0  0.95555  0.62575  0.15870  1.0000
  C   C28       1.0  0.04433  0.37419  0.84133  1.0000
  C   C29       1.0  0.43057  0.21491  0.06063  1.0000
  C   C30       1.0  0.56969  0.78517  0.93941  1.0000
  C   C31       1.0  0.52399  0.22095  0.98945  1.0000
  C   C32       1.0  0.47621  0.77904  0.01056  1.0000
  C   C33       1.0  0.21328  0.00743  0.94644  1.0000
  C   C34       1.0  0.78687  0.99265  0.05369  1.0000
  C   C35       1.0  0.03556  0.38139  0.35212  1.0000
  C   C36       1.0  0.96443  0.61875  0.64794  1.0000
  C   C37       1.0  0.57505  0.23510  0.33015  1.0000
  C   C38       1.0  0.42510  0.76503  0.66984  1.0000
  C   C39       1.0  0.49843  0.32872  0.15689  1.0000
  C   C40       1.0  0.50177  0.67141  0.84312  1.0000
  C   C41       1.0  0.31584  0.27885  0.27474  1.0000
  C   C42       1.0  0.68436  0.72133  0.72535  1.0000
  C   C43       1.0  0.48607  0.20189  0.40022  1.0000
  C   C44       1.0  0.51413  0.79821  0.59978  1.0000
  N   N1        1.0  0.49848  0.19517  0.73243  1.0000
  N   N2        1.0  0.50144  0.80451  0.26749  1.0000
  N   N3        1.0  0.31804  0.22278  0.58065  1.0000
  N   N4        1.0  0.68177  0.77688  0.41928  1.0000
  N   N5        1.0  0.91500  0.62385  0.04404  1.0000
  N   N6        1.0  0.08516  0.37600  0.95601  1.0000
  N   N7        1.0  0.46548  0.28446  0.25138  1.0000
  N   N8        1.0  0.53467  0.71573  0.74864  1.0000
  N   N9        1.0  0.32515  0.22976  0.36487  1.0000
  N   N10       1.0  0.67506  0.77037  0.63518  1.0000
  O   O1        1.0  0.08231  0.87043  0.50881  1.0000
  O   O2        1.0  0.91802  0.13012  0.49108  1.0000
  O   O3        1.0  0.98310  0.72928  0.01426  1.0000
  O   O4        1.0  0.01708  0.27059  0.98579  1.0000
  O   O5        1.0  0.08670  0.98965  0.37293  1.0000
  O   O6        1.0  0.91290  0.01045  0.62662  1.0000
  O   O7        1.0  0.81468  0.51571  0.98123  1.0000
  O   O8        1.0  0.18566  0.48411  0.01883  1.0000
  O   O9        1.0  0.96155  0.26299  0.29280  1.0000
  O   O10       1.0  0.03842  0.73723  0.70712  1.0000
  O   O11       1.0  0.13757  0.39724  0.44896  1.0000
  O   O12       1.0  0.86260  0.60279  0.55102  1.0000
