data_image0
_chemical_formula_structural       Bi4H36C56N8O36
_chemical_formula_sum              "Bi4 H36 C56 N8 O36"
_cell_length_a       7.71678
_cell_length_b       12.6915
_cell_length_c       15.3577
_cell_angle_alpha    108.719
_cell_angle_beta     90
_cell_angle_gamma    89.9999

_space_group_name_H-M_alt    "P 1"
_space_group_IT_number       1

loop_
  _space_group_symop_operation_xyz
  'x, y, z'

loop_
  _atom_site_type_symbol
  _atom_site_label
  _atom_site_symmetry_multiplicity
  _atom_site_fract_x
  _atom_site_fract_y
  _atom_site_fract_z
  _atom_site_occupancy
  Bi  Bi1       1.0  0.71327  0.42017  0.24556  1.0000
  Bi  Bi2       1.0  0.21327  0.07983  0.75444  1.0000
  Bi  Bi3       1.0  0.28674  0.57983  0.75444  1.0000
  Bi  Bi4       1.0  0.78673  0.92017  0.24556  1.0000
  H   H1        1.0  0.33621  0.67765  0.53474  1.0000
  H   H2        1.0  0.83621  0.82235  0.46526  1.0000
  H   H3        1.0  0.66379  0.32235  0.46526  1.0000
  H   H4        1.0  0.16379  0.17765  0.53474  1.0000
  H   H5        1.0  0.56947  0.74317  0.65573  1.0000
  H   H6        1.0  0.06947  0.75684  0.34427  1.0000
  H   H7        1.0  0.43053  0.25683  0.34427  1.0000
  H   H8        1.0  0.93053  0.24316  0.65573  1.0000
  H   H9        1.0  0.93995  0.56100  0.45322  1.0000
  H   H10       1.0  0.43995  0.93900  0.54678  1.0000
  H   H11       1.0  0.06005  0.43900  0.54678  1.0000
  H   H12       1.0  0.56005  0.06100  0.45321  1.0000
  H   H13       1.0  0.64703  0.60509  0.97177  1.0000
  H   H14       1.0  0.14703  0.89491  0.02823  1.0000
  H   H15       1.0  0.35297  0.39491  0.02823  1.0000
  H   H16       1.0  0.85297  0.10509  0.97177  1.0000
  H   H17       1.0  0.80070  0.46175  0.84501  1.0000
  H   H18       1.0  0.30070  0.03825  0.15499  1.0000
  H   H19       1.0  0.19929  0.53825  0.15499  1.0000
  H   H20       1.0  0.69930  0.96175  0.84501  1.0000
  H   H21       1.0  0.92814  0.29176  0.03974  1.0000
  H   H22       1.0  0.42814  0.20823  0.96026  1.0000
  H   H23       1.0  0.07186  0.70823  0.96026  1.0000
  H   H24       1.0  0.57186  0.79177  0.03974  1.0000
  H   H25       1.0  0.94436  0.75752  0.76724  1.0000
  H   H26       1.0  0.44436  0.74248  0.23276  1.0000
  H   H27       1.0  0.05564  0.24248  0.23276  1.0000
  H   H28       1.0  0.55564  0.25752  0.76724  1.0000
  H   H29       1.0  0.97674  0.58790  0.24060  1.0000
  H   H30       1.0  0.47674  0.91210  0.75940  1.0000
  H   H31       1.0  0.02325  0.41210  0.75940  1.0000
  H   H32       1.0  0.52325  0.08790  0.24060  1.0000
  H   H33       1.0  0.07996  0.53165  0.30738  1.0000
  H   H34       1.0  0.57996  0.96835  0.69262  1.0000
  H   H35       1.0  0.92004  0.46835  0.69262  1.0000
  H   H36       1.0  0.42004  0.03165  0.30738  1.0000
  C   C1        1.0  0.51761  0.58494  0.43318  1.0000
  C   C2        1.0  0.01761  0.91506  0.56682  1.0000
  C   C3        1.0  0.48239  0.41506  0.56682  1.0000
  C   C4        1.0  0.98239  0.08494  0.43317  1.0000
  C   C5        1.0  0.47213  0.65637  0.51975  1.0000
  C   C6        1.0  0.97213  0.84363  0.48025  1.0000
  C   C7        1.0  0.52787  0.34363  0.48025  1.0000
  C   C8        1.0  0.02787  0.15637  0.51975  1.0000
  C   C9        1.0  0.60095  0.69204  0.58603  1.0000
  C   C10       1.0  0.10095  0.80796  0.41397  1.0000
  C   C11       1.0  0.39905  0.30796  0.41397  1.0000
  C   C12       1.0  0.89905  0.19204  0.58603  1.0000
  C   C13       1.0  0.77140  0.65586  0.56377  1.0000
  C   C14       1.0  0.27140  0.84414  0.43623  1.0000
  C   C15       1.0  0.22860  0.34414  0.43623  1.0000
  C   C16       1.0  0.72860  0.15586  0.56377  1.0000
  C   C17       1.0  0.80812  0.58857  0.47371  1.0000
  C   C18       1.0  0.30812  0.91144  0.52628  1.0000
  C   C19       1.0  0.19188  0.41143  0.52629  1.0000
  C   C20       1.0  0.69188  0.08857  0.47371  1.0000
  C   C21       1.0  0.37934  0.53243  0.36335  1.0000
  C   C22       1.0  0.87933  0.96757  0.63665  1.0000
  C   C23       1.0  0.62067  0.46757  0.63665  1.0000
  C   C24       1.0  0.12066  0.03243  0.36335  1.0000
  C   C25       1.0  0.90873  0.68108  0.63640  1.0000
  C   C26       1.0  0.40873  0.81892  0.36360  1.0000
  C   C27       1.0  0.09127  0.31892  0.36360  1.0000
  C   C28       1.0  0.59127  0.18108  0.63640  1.0000
  C   C29       1.0  0.71253  0.52466  0.07209  1.0000
  C   C30       1.0  0.21253  0.97534  0.92791  1.0000
  C   C31       1.0  0.28747  0.47534  0.92791  1.0000
  C   C32       1.0  0.78747  0.02466  0.07209  1.0000
  C   C33       1.0  0.71292  0.53556  0.98463  1.0000
  C   C34       1.0  0.21292  0.96444  0.01537  1.0000
  C   C35       1.0  0.28708  0.46444  0.01537  1.0000
  C   C36       1.0  0.78708  0.03556  0.98462  1.0000
  C   C37       1.0  0.79766  0.45470  0.91380  1.0000
  C   C38       1.0  0.29766  0.04530  0.08620  1.0000
  C   C39       1.0  0.20234  0.54530  0.08620  1.0000
  C   C40       1.0  0.70235  0.95470  0.91380  1.0000
  C   C41       1.0  0.87963  0.36610  0.93264  1.0000
  C   C42       1.0  0.37963  0.13390  0.06736  1.0000
  C   C43       1.0  0.12037  0.63390  0.06736  1.0000
  C   C44       1.0  0.62037  0.86610  0.93264  1.0000
  C   C45       1.0  0.86854  0.36011  0.02201  1.0000
  C   C46       1.0  0.36854  0.13989  0.97799  1.0000
  C   C47       1.0  0.13146  0.63989  0.97799  1.0000
  C   C48       1.0  0.63146  0.86011  0.02201  1.0000
  C   C49       1.0  0.63069  0.60824  0.15405  1.0000
  C   C50       1.0  0.13069  0.89176  0.84595  1.0000
  C   C51       1.0  0.36931  0.39175  0.84595  1.0000
  C   C52       1.0  0.86931  0.10825  0.15405  1.0000
  C   C53       1.0  0.98466  0.27952  0.86272  1.0000
  C   C54       1.0  0.48466  0.22048  0.13728  1.0000
  C   C55       1.0  0.01534  0.72048  0.13728  1.0000
  C   C56       1.0  0.51534  0.77952  0.86272  1.0000
  N   N1        1.0  0.68296  0.55362  0.41049  1.0000
  N   N2        1.0  0.18296  0.94638  0.58951  1.0000
  N   N3        1.0  0.31704  0.44638  0.58951  1.0000
  N   N4        1.0  0.81704  0.05362  0.41049  1.0000
  N   N5        1.0  0.78685  0.43746  0.08921  1.0000
  N   N6        1.0  0.28685  0.06254  0.91079  1.0000
  N   N7        1.0  0.21315  0.56254  0.91079  1.0000
  N   N8        1.0  0.71315  0.93746  0.08921  1.0000
  O   O1        1.0  0.42397  0.45326  0.29118  1.0000
  O   O2        1.0  0.92397  0.04673  0.70882  1.0000
  O   O3        1.0  0.57603  0.54673  0.70882  1.0000
  O   O4        1.0  0.07603  0.95327  0.29118  1.0000
  O   O5        1.0  0.22631  0.56593  0.38250  1.0000
  O   O6        1.0  0.72631  0.93407  0.61750  1.0000
  O   O7        1.0  0.77369  0.43407  0.61750  1.0000
  O   O8        1.0  0.27369  0.06593  0.38250  1.0000
  O   O9        1.0  0.05990  0.64694  0.62115  1.0000
  O   O10       1.0  0.55991  0.85306  0.37885  1.0000
  O   O11       1.0  0.94010  0.35306  0.37885  1.0000
  O   O12       1.0  0.44009  0.14694  0.62115  1.0000
  O   O13       1.0  0.84870  0.74010  0.71816  1.0000
  O   O14       1.0  0.34870  0.75990  0.28184  1.0000
  O   O15       1.0  0.15130  0.25990  0.28184  1.0000
  O   O16       1.0  0.65130  0.24010  0.71816  1.0000
  O   O17       1.0  0.62468  0.58424  0.22901  1.0000
  O   O18       1.0  0.12468  0.91576  0.77099  1.0000
  O   O19       1.0  0.37532  0.41576  0.77099  1.0000
  O   O20       1.0  0.87532  0.08424  0.22901  1.0000
  O   O21       1.0  0.56956  0.69762  0.14719  1.0000
  O   O22       1.0  0.06956  0.80238  0.85281  1.0000
  O   O23       1.0  0.43045  0.30238  0.85281  1.0000
  O   O24       1.0  0.93045  0.19762  0.14719  1.0000
  O   O25       1.0  0.03950  0.29860  0.79127  1.0000
  O   O26       1.0  0.53949  0.20140  0.20873  1.0000
  O   O27       1.0  0.96050  0.70140  0.20873  1.0000
  O   O28       1.0  0.46051  0.79860  0.79127  1.0000
  O   O29       1.0  0.02098  0.19134  0.88182  1.0000
  O   O30       1.0  0.52098  0.30866  0.11818  1.0000
  O   O31       1.0  0.97902  0.80866  0.11818  1.0000
  O   O32       1.0  0.47902  0.69134  0.88182  1.0000
  O   O33       1.0  0.98401  0.51964  0.25976  1.0000
  O   O34       1.0  0.48400  0.98035  0.74024  1.0000
  O   O35       1.0  0.01599  0.48036  0.74024  1.0000
  O   O36       1.0  0.51600  0.01965  0.25976  1.0000
