data_image0
_chemical_formula_structural       Cu2P2H22C12O8
_chemical_formula_sum              "Cu2 P2 H22 C12 O8"
_cell_length_a       5.86216
_cell_length_b       5.95693
_cell_length_c       12.287
_cell_angle_alpha    84.1228
_cell_angle_beta     78.4819
_cell_angle_gamma    77.6034

_space_group_name_H-M_alt    "P 1"
_space_group_IT_number       1

loop_
  _space_group_symop_operation_xyz
  'x, y, z'

loop_
  _atom_site_type_symbol
  _atom_site_label
  _atom_site_symmetry_multiplicity
  _atom_site_fract_x
  _atom_site_fract_y
  _atom_site_fract_z
  _atom_site_occupancy
  Cu  Cu1       1.0  0.21777  0.77681  0.01267  1.0000
  Cu  Cu2       1.0  0.78223  0.22320  0.98734  1.0000
  P   P1        1.0  0.30492  0.31771  0.92156  1.0000
  P   P2        1.0  0.69508  0.68230  0.07844  1.0000
  H   H1        1.0  0.68036  0.92575  0.89001  1.0000
  H   H2        1.0  0.31964  0.07426  0.10999  1.0000
  H   H3        1.0  0.72324  0.50078  0.79257  1.0000
  H   H4        1.0  0.27675  0.49924  0.20743  1.0000
  H   H5        1.0  0.49713  0.54148  0.71287  1.0000
  H   H6        1.0  0.50287  0.45852  0.28712  1.0000
  H   H7        1.0  0.89109  0.49023  0.58830  1.0000
  H   H8        1.0  0.10891  0.50976  0.41169  1.0000
  H   H9        1.0  0.98745  0.22362  0.65929  1.0000
  H   H10       1.0  0.01255  0.77638  0.34072  1.0000
  H   H11       1.0  0.85936  0.15954  0.48419  1.0000
  H   H12       1.0  0.14064  0.84043  0.51582  1.0000
  H   H13       1.0  0.57513  0.32674  0.53077  1.0000
  H   H14       1.0  0.42488  0.67324  0.46922  1.0000
  H   H15       1.0  0.57119  0.90581  0.57272  1.0000
  H   H16       1.0  0.42881  0.09417  0.42729  1.0000
  H   H17       1.0  0.79939  0.88046  0.65052  1.0000
  H   H18       1.0  0.20060  0.11953  0.34950  1.0000
  H   H19       1.0  0.39906  0.92409  0.77583  1.0000
  H   H20       1.0  0.60093  0.07592  0.22418  1.0000
  H   H21       1.0  0.30006  0.18254  0.70160  1.0000
  H   H22       1.0  0.69993  0.81746  0.29840  1.0000
  C   C1        1.0  0.54661  0.21361  0.80250  1.0000
  C   C2        1.0  0.45340  0.78640  0.19750  1.0000
  C   C3        1.0  0.64732  0.41461  0.73725  1.0000
  C   C4        1.0  0.35269  0.58539  0.26274  1.0000
  C   C5        1.0  0.83075  0.33835  0.63368  1.0000
  C   C6        1.0  0.16925  0.66164  0.36632  1.0000
  C   C7        1.0  0.72826  0.21033  0.55932  1.0000
  C   C8        1.0  0.27174  0.78965  0.44068  1.0000
  C   C9        1.0  0.64593  0.00063  0.62458  1.0000
  C   C10       1.0  0.35407  0.99936  0.37542  1.0000
  C   C11       1.0  0.45928  0.07299  0.72748  1.0000
  C   C12       1.0  0.54072  0.92702  0.27253  1.0000
  O   O1        1.0  0.19988  0.57396  0.90044  1.0000
  O   O2        1.0  0.80014  0.42606  0.09956  1.0000
  O   O3        1.0  0.43155  0.26953  0.02501  1.0000
  O   O4        1.0  0.56845  0.73049  0.97499  1.0000
  O   O5        1.0  0.12269  0.16057  0.93253  1.0000
  O   O6        1.0  0.87731  0.83945  0.06747  1.0000
  O   O7        1.0  0.73874  0.06762  0.85194  1.0000
  O   O8        1.0  0.26126  0.93240  0.14806  1.0000
