data_image0
_chemical_formula_structural       Ag8P4H8C4O12
_chemical_formula_sum              "Ag8 P4 H8 C4 O12"
_cell_length_a       5.71632
_cell_length_b       8.53294
_cell_length_c       9.02359
_cell_angle_alpha    90.0012
_cell_angle_beta     90.0016
_cell_angle_gamma    100.372

_space_group_name_H-M_alt    "P 1"
_space_group_IT_number       1

loop_
  _space_group_symop_operation_xyz
  'x, y, z'

loop_
  _atom_site_type_symbol
  _atom_site_label
  _atom_site_symmetry_multiplicity
  _atom_site_fract_x
  _atom_site_fract_y
  _atom_site_fract_z
  _atom_site_occupancy
  Ag  Ag1       1.0  0.96627  0.56307  0.35709  1.0000
  Ag  Ag2       1.0  0.46624  0.06306  0.14292  1.0000
  Ag  Ag3       1.0  0.03374  0.43694  0.64293  1.0000
  Ag  Ag4       1.0  0.53373  0.93694  0.85709  1.0000
  Ag  Ag5       1.0  0.54752  0.33315  0.46881  1.0000
  Ag  Ag6       1.0  0.04750  0.83313  0.03119  1.0000
  Ag  Ag7       1.0  0.45247  0.66686  0.53118  1.0000
  Ag  Ag8       1.0  0.95248  0.16686  0.96881  1.0000
  P   P1        1.0  0.96550  0.18422  0.32905  1.0000
  P   P2        1.0  0.46550  0.68422  0.17096  1.0000
  P   P3        1.0  0.03449  0.81579  0.67094  1.0000
  P   P4        1.0  0.53450  0.31576  0.82902  1.0000
  H   H1        1.0  0.77359  0.06244  0.54598  1.0000
  H   H2        1.0  0.27361  0.56245  0.95398  1.0000
  H   H3        1.0  0.22641  0.93756  0.45401  1.0000
  H   H4        1.0  0.72642  0.43755  0.04600  1.0000
  H   H5        1.0  0.78939  0.92162  0.40172  1.0000
  H   H6        1.0  0.28941  0.42162  0.09826  1.0000
  H   H7        1.0  0.21057  0.07838  0.59829  1.0000
  H   H8        1.0  0.71064  0.57837  0.90174  1.0000
  C   C1        1.0  0.89151  0.02330  0.46259  1.0000
  C   C2        1.0  0.39153  0.52334  0.03742  1.0000
  C   C3        1.0  0.10854  0.97671  0.53739  1.0000
  C   C4        1.0  0.60849  0.47666  0.96258  1.0000
  O   O1        1.0  0.13385  0.32557  0.40117  1.0000
  O   O2        1.0  0.63384  0.82558  0.09885  1.0000
  O   O3        1.0  0.86612  0.67443  0.59884  1.0000
  O   O4        1.0  0.36616  0.17444  0.90116  1.0000
  O   O5        1.0  0.72699  0.23653  0.28413  1.0000
  O   O6        1.0  0.22702  0.73650  0.21587  1.0000
  O   O7        1.0  0.27301  0.76347  0.71587  1.0000
  O   O8        1.0  0.77297  0.26349  0.78413  1.0000
  O   O9        1.0  0.08150  0.11967  0.19249  1.0000
  O   O10       1.0  0.58146  0.61969  0.30749  1.0000
  O   O11       1.0  0.91850  0.88033  0.80751  1.0000
  O   O12       1.0  0.41854  0.38033  0.69252  1.0000
