data_image0
_chemical_formula_structural       Cu3H12C18N2O12
_chemical_formula_sum              "Cu3 H12 C18 N2 O12"
_cell_length_a       5.68665
_cell_length_b       9.60997
_cell_length_c       10.0338
_cell_angle_alpha    66.2053
_cell_angle_beta     80.8725
_cell_angle_gamma    85.4485

_space_group_name_H-M_alt    "P 1"
_space_group_IT_number       1

loop_
  _space_group_symop_operation_xyz
  'x, y, z'

loop_
  _atom_site_type_symbol
  _atom_site_label
  _atom_site_symmetry_multiplicity
  _atom_site_fract_x
  _atom_site_fract_y
  _atom_site_fract_z
  _atom_site_occupancy
  Cu  Cu1       1.0  0.52479  0.83889  0.12777  1.0000
  Cu  Cu2       1.0  0.47684  0.16066  0.87246  1.0000
  Cu  Cu3       1.0  0.99930  0.00123  0.99937  1.0000
  H   H1        1.0  0.69639  0.57038  0.54328  1.0000
  H   H2        1.0  0.30418  0.42977  0.45640  1.0000
  H   H3        1.0  0.13496  0.56016  0.85997  1.0000
  H   H4        1.0  0.86528  0.43977  0.14000  1.0000
  H   H5        1.0  0.23831  0.90636  0.41600  1.0000
  H   H6        1.0  0.76166  0.09399  0.58409  1.0000
  H   H7        1.0  0.76892  0.80282  0.87061  1.0000
  H   H8        1.0  0.23011  0.19696  0.12872  1.0000
  H   H9        1.0  0.94951  0.71279  0.98824  1.0000
  H   H10       1.0  0.05029  0.28786  0.01090  1.0000
  H   H11       1.0  0.35974  0.89846  0.89206  1.0000
  H   H12       1.0  0.63680  0.09987  0.11067  1.0000
  C   C1        1.0  0.95903  0.74564  0.46476  1.0000
  C   C2        1.0  0.04110  0.25464  0.53524  1.0000
  C   C3        1.0  0.88489  0.81561  0.31443  1.0000
  C   C4        1.0  0.11568  0.18468  0.68543  1.0000
  C   C5        1.0  0.83969  0.61780  0.57116  1.0000
  C   C6        1.0  0.16069  0.38238  0.42864  1.0000
  C   C7        1.0  0.90115  0.55051  0.71342  1.0000
  C   C8        1.0  0.09922  0.44954  0.28641  1.0000
  C   C9        1.0  0.76711  0.41428  0.82757  1.0000
  C   C10       1.0  0.23357  0.58550  0.17188  1.0000
  C   C11       1.0  0.08514  0.61061  0.74957  1.0000
  C   C12       1.0  0.91500  0.38943  0.25039  1.0000
  C   C13       1.0  0.20497  0.73938  0.64198  1.0000
  C   C14       1.0  0.79511  0.26079  0.35808  1.0000
  C   C15       1.0  0.38642  0.80312  0.68168  1.0000
  C   C16       1.0  0.61371  0.19695  0.31850  1.0000
  C   C17       1.0  0.14400  0.80724  0.49884  1.0000
  C   C18       1.0  0.85607  0.19304  0.50131  1.0000
  N   N1        1.0  0.53169  0.85464  0.71797  1.0000
  N   N2        1.0  0.46850  0.14531  0.28223  1.0000
  O   O1        1.0  0.68401  0.77476  0.30298  1.0000
  O   O2        1.0  0.31710  0.22430  0.69699  1.0000
  O   O3        1.0  0.02840  0.90834  0.21217  1.0000
  O   O4        1.0  0.97120  0.09264  0.78800  1.0000
  O   O5        1.0  0.63151  0.35515  0.77425  1.0000
  O   O6        1.0  0.37052  0.64424  0.22475  1.0000
  O   O7        1.0  0.79533  0.36875  0.96050  1.0000
  O   O8        1.0  0.20444  0.63103  0.03912  1.0000
  O   O9        1.0  0.81079  0.78478  0.96719  1.0000
  O   O10       1.0  0.18969  0.21629  0.03152  1.0000
  O   O11       1.0  0.33812  0.94910  0.96131  1.0000
  O   O12       1.0  0.65904  0.04957  0.04121  1.0000
