data_image0
_chemical_formula_structural       Cd4H40C48N8O20
_chemical_formula_sum              "Cd4 H40 C48 N8 O20"
_cell_length_a       7.11848
_cell_length_b       11.0296
_cell_length_c       16.2047
_cell_angle_alpha    89.9998
_cell_angle_beta     90
_cell_angle_gamma    89.9999

_space_group_name_H-M_alt    "P 1"
_space_group_IT_number       1

loop_
  _space_group_symop_operation_xyz
  'x, y, z'

loop_
  _atom_site_type_symbol
  _atom_site_label
  _atom_site_symmetry_multiplicity
  _atom_site_fract_x
  _atom_site_fract_y
  _atom_site_fract_z
  _atom_site_occupancy
  Cd  Cd1       1.0  0.45129  0.13265  0.77673  1.0000
  Cd  Cd2       1.0  0.54870  0.63265  0.22327  1.0000
  Cd  Cd3       1.0  0.04870  0.63265  0.27673  1.0000
  Cd  Cd4       1.0  0.95129  0.13265  0.72327  1.0000
  H   H1        1.0  0.67713  0.87650  0.00552  1.0000
  H   H2        1.0  0.32286  0.37650  0.99448  1.0000
  H   H3        1.0  0.82287  0.37650  0.50552  1.0000
  H   H4        1.0  0.17713  0.87650  0.49448  1.0000
  H   H5        1.0  0.19027  0.67125  0.01079  1.0000
  H   H6        1.0  0.80972  0.17125  0.98921  1.0000
  H   H7        1.0  0.30973  0.17126  0.51079  1.0000
  H   H8        1.0  0.69027  0.67126  0.48921  1.0000
  H   H9        1.0  0.04525  0.88187  0.79491  1.0000
  H   H10       1.0  0.95475  0.38187  0.20510  1.0000
  H   H11       1.0  0.45475  0.38187  0.29490  1.0000
  H   H12       1.0  0.54525  0.88187  0.70510  1.0000
  H   H13       1.0  0.57090  0.31844  0.91017  1.0000
  H   H14       1.0  0.42910  0.81844  0.08983  1.0000
  H   H15       1.0  0.92910  0.81844  0.41017  1.0000
  H   H16       1.0  0.07090  0.31844  0.58983  1.0000
  H   H17       1.0  0.87833  0.44776  0.75633  1.0000
  H   H18       1.0  0.12167  0.94777  0.24367  1.0000
  H   H19       1.0  0.62167  0.94777  0.25633  1.0000
  H   H20       1.0  0.37833  0.44776  0.74367  1.0000
  H   H21       1.0  0.03456  0.49424  0.83658  1.0000
  H   H22       1.0  0.96544  0.99424  0.16341  1.0000
  H   H23       1.0  0.46544  0.99424  0.33658  1.0000
  H   H24       1.0  0.53456  0.49424  0.66341  1.0000
  H   H25       1.0  0.85199  0.59408  0.80296  1.0000
  H   H26       1.0  0.14800  0.09408  0.19704  1.0000
  H   H27       1.0  0.64801  0.09408  0.30296  1.0000
  H   H28       1.0  0.35199  0.59408  0.69704  1.0000
  H   H29       1.0  0.63566  0.46596  0.99143  1.0000
  H   H30       1.0  0.36434  0.96596  0.00857  1.0000
  H   H31       1.0  0.86434  0.96596  0.49143  1.0000
  H   H32       1.0  0.13566  0.46596  0.50857  1.0000
  H   H33       1.0  0.69269  0.60382  0.94020  1.0000
  H   H34       1.0  0.30731  0.10382  0.05980  1.0000
  H   H35       1.0  0.80731  0.10382  0.44020  1.0000
  H   H36       1.0  0.19269  0.60382  0.55980  1.0000
  H   H37       1.0  0.87491  0.51363  0.98524  1.0000
  H   H38       1.0  0.12509  0.01363  0.01476  1.0000
  H   H39       1.0  0.62509  0.01363  0.48524  1.0000
  H   H40       1.0  0.37491  0.51363  0.51476  1.0000
  C   C1        1.0  0.71061  0.97183  0.85308  1.0000
  C   C2        1.0  0.28939  0.47183  0.14692  1.0000
  C   C3        1.0  0.78939  0.47183  0.35308  1.0000
  C   C4        1.0  0.21061  0.97183  0.64692  1.0000
  C   C5        1.0  0.84656  0.88911  0.89585  1.0000
  C   C6        1.0  0.15344  0.38911  0.10416  1.0000
  C   C7        1.0  0.65344  0.38911  0.39584  1.0000
  C   C8        1.0  0.34656  0.88911  0.60416  1.0000
  C   C9        1.0  0.80641  0.84776  0.97557  1.0000
  C   C10       1.0  0.19358  0.34776  0.02443  1.0000
  C   C11       1.0  0.69359  0.34776  0.47557  1.0000
  C   C12       1.0  0.30641  0.84776  0.52443  1.0000
  C   C13       1.0  0.92799  0.76846  0.01655  1.0000
  C   C14       1.0  0.07201  0.26847  0.98345  1.0000
  C   C15       1.0  0.57202  0.26847  0.51655  1.0000
  C   C16       1.0  0.42799  0.76847  0.48345  1.0000
  C   C17       1.0  0.87533  0.71607  0.09945  1.0000
  C   C18       1.0  0.12467  0.21607  0.90055  1.0000
  C   C19       1.0  0.62467  0.21607  0.59945  1.0000
  C   C20       1.0  0.37533  0.71607  0.40055  1.0000
  C   C21       1.0  0.09531  0.73271  0.97860  1.0000
  C   C22       1.0  0.90469  0.23271  0.02140  1.0000
  C   C23       1.0  0.40469  0.23272  0.47859  1.0000
  C   C24       1.0  0.59531  0.73272  0.52140  1.0000
  C   C25       1.0  0.13702  0.77466  0.89883  1.0000
  C   C26       1.0  0.86297  0.27465  0.10117  1.0000
  C   C27       1.0  0.36297  0.27466  0.39883  1.0000
  C   C28       1.0  0.63703  0.77466  0.60117  1.0000
  C   C29       1.0  0.30898  0.73784  0.86095  1.0000
  C   C30       1.0  0.69103  0.23784  0.13905  1.0000
  C   C31       1.0  0.19103  0.23784  0.36095  1.0000
  C   C32       1.0  0.80898  0.73784  0.63905  1.0000
  C   C33       1.0  0.01150  0.85126  0.85683  1.0000
  C   C34       1.0  0.98849  0.35126  0.14317  1.0000
  C   C35       1.0  0.48850  0.35126  0.35683  1.0000
  C   C36       1.0  0.51151  0.85126  0.64317  1.0000
  C   C37       1.0  0.66351  0.34694  0.85943  1.0000
  C   C38       1.0  0.33649  0.84695  0.14057  1.0000
  C   C39       1.0  0.83649  0.84695  0.35943  1.0000
  C   C40       1.0  0.16351  0.34695  0.64057  1.0000
  C   C41       1.0  0.88909  0.49896  0.81388  1.0000
  C   C42       1.0  0.11090  0.99896  0.18612  1.0000
  C   C43       1.0  0.61091  0.99896  0.31388  1.0000
  C   C44       1.0  0.38909  0.49896  0.68612  1.0000
  C   C45       1.0  0.74004  0.51086  0.95231  1.0000
  C   C46       1.0  0.25996  0.01086  0.04769  1.0000
  C   C47       1.0  0.75996  0.01086  0.45231  1.0000
  C   C48       1.0  0.24004  0.51086  0.54769  1.0000
  N   N1        1.0  0.45148  0.70645  0.83220  1.0000
  N   N2        1.0  0.54852  0.20645  0.16780  1.0000
  N   N3        1.0  0.04852  0.20646  0.33220  1.0000
  N   N4        1.0  0.95148  0.70646  0.66780  1.0000
  N   N5        1.0  0.76152  0.44709  0.87443  1.0000
  N   N6        1.0  0.23848  0.94709  0.12557  1.0000
  N   N7        1.0  0.73849  0.94709  0.37443  1.0000
  N   N8        1.0  0.26152  0.44709  0.62557  1.0000
  O   O1        1.0  0.57052  0.01222  0.89220  1.0000
  O   O2        1.0  0.42948  0.51222  0.10780  1.0000
  O   O3        1.0  0.92949  0.51222  0.39220  1.0000
  O   O4        1.0  0.07051  0.01222  0.60780  1.0000
  O   O5        1.0  0.73696  0.99720  0.77599  1.0000
  O   O6        1.0  0.26304  0.49720  0.22402  1.0000
  O   O7        1.0  0.76304  0.49720  0.27599  1.0000
  O   O8        1.0  0.23696  0.99720  0.72401  1.0000
  O   O9        1.0  0.70580  0.73067  0.12189  1.0000
  O   O10       1.0  0.29420  0.23067  0.87811  1.0000
  O   O11       1.0  0.79420  0.23067  0.62189  1.0000
  O   O12       1.0  0.20580  0.73067  0.37811  1.0000
  O   O13       1.0  0.00327  0.65974  0.13811  1.0000
  O   O14       1.0  0.99673  0.15974  0.86189  1.0000
  O   O15       1.0  0.49673  0.15974  0.63811  1.0000
  O   O16       1.0  0.50327  0.65974  0.36189  1.0000
  O   O17       1.0  0.66854  0.28845  0.79254  1.0000
  O   O18       1.0  0.33146  0.78845  0.20746  1.0000
  O   O19       1.0  0.83147  0.78845  0.29254  1.0000
  O   O20       1.0  0.16853  0.28845  0.70746  1.0000
