data_image0
_chemical_formula_structural       H24Pb4C8N32O12
_chemical_formula_sum              "H24 Pb4 C8 N32 O12"
_cell_length_a       6.71565
_cell_length_b       9.35126
_cell_length_c       14.096
_cell_angle_alpha    89.9997
_cell_angle_beta     90.0008
_cell_angle_gamma    104.64

_space_group_name_H-M_alt    "P 1"
_space_group_IT_number       1

loop_
  _space_group_symop_operation_xyz
  'x, y, z'

loop_
  _atom_site_type_symbol
  _atom_site_label
  _atom_site_symmetry_multiplicity
  _atom_site_fract_x
  _atom_site_fract_y
  _atom_site_fract_z
  _atom_site_occupancy
  H   H1        1.0  0.28445  0.02327  0.35484  1.0000
  H   H2        1.0  0.21556  0.47674  0.85484  1.0000
  H   H3        1.0  0.71554  0.97674  0.64515  1.0000
  H   H4        1.0  0.78443  0.52326  0.14515  1.0000
  H   H5        1.0  0.24707  0.91006  0.26866  1.0000
  H   H6        1.0  0.25294  0.58993  0.76865  1.0000
  H   H7        1.0  0.75294  0.08994  0.73134  1.0000
  H   H8        1.0  0.74706  0.41005  0.23134  1.0000
  H   H9        1.0  0.22237  0.98098  0.05259  1.0000
  H   H10       1.0  0.27762  0.51902  0.55258  1.0000
  H   H11       1.0  0.77762  0.01902  0.94742  1.0000
  H   H12       1.0  0.72239  0.48099  0.44743  1.0000
  H   H13       1.0  0.04253  0.83190  0.05814  1.0000
  H   H14       1.0  0.45747  0.66811  0.55813  1.0000
  H   H15       1.0  0.95745  0.16810  0.94186  1.0000
  H   H16       1.0  0.54254  0.33189  0.44187  1.0000
  H   H17       1.0  0.50797  0.13504  0.23387  1.0000
  H   H18       1.0  0.99205  0.36497  0.73387  1.0000
  H   H19       1.0  0.49205  0.86498  0.76614  1.0000
  H   H20       1.0  0.00795  0.63502  0.26613  1.0000
  H   H21       1.0  0.58725  0.21401  0.13549  1.0000
  H   H22       1.0  0.91275  0.28600  0.63549  1.0000
  H   H23       1.0  0.41276  0.78600  0.86451  1.0000
  H   H24       1.0  0.08724  0.71400  0.36451  1.0000
  Pb  Pb1       1.0  0.93482  0.06802  0.20481  1.0000
  Pb  Pb2       1.0  0.56518  0.43197  0.70480  1.0000
  Pb  Pb3       1.0  0.06519  0.93198  0.79519  1.0000
  Pb  Pb4       1.0  0.43482  0.56802  0.29519  1.0000
  C   C1        1.0  0.78362  0.02916  0.44501  1.0000
  C   C2        1.0  0.71636  0.47083  0.94501  1.0000
  C   C3        1.0  0.21636  0.97084  0.55499  1.0000
  C   C4        1.0  0.28363  0.52914  0.05499  1.0000
  C   C5        1.0  0.91844  0.17651  0.44308  1.0000
  C   C6        1.0  0.58156  0.32351  0.94308  1.0000
  C   C7        1.0  0.08156  0.82351  0.55692  1.0000
  C   C8        1.0  0.41846  0.67650  0.05692  1.0000
  N   N1        1.0  0.73203  0.94792  0.36554  1.0000
  N   N2        1.0  0.76799  0.55208  0.86553  1.0000
  N   N3        1.0  0.26797  0.05209  0.63446  1.0000
  N   N4        1.0  0.23203  0.44791  0.13446  1.0000
  N   N5        1.0  0.61141  0.81902  0.39517  1.0000
  N   N6        1.0  0.88863  0.68098  0.89517  1.0000
  N   N7        1.0  0.38861  0.18099  0.60483  1.0000
  N   N8        1.0  0.11137  0.31901  0.10483  1.0000
  N   N9        1.0  0.59103  0.82169  0.48825  1.0000
  N   N10       1.0  0.90897  0.67832  0.98826  1.0000
  N   N11       1.0  0.40895  0.17833  0.51175  1.0000
  N   N12       1.0  0.09102  0.32167  0.01173  1.0000
  N   N13       1.0  0.69833  0.95236  0.52192  1.0000
  N   N14       1.0  0.80164  0.54765  0.02193  1.0000
  N   N15       1.0  0.30165  0.04765  0.47808  1.0000
  N   N16       1.0  0.19834  0.45236  0.97807  1.0000
  N   N17       1.0  0.97922  0.26763  0.51724  1.0000
  N   N18       1.0  0.52075  0.23237  0.01725  1.0000
  N   N19       1.0  0.02075  0.73237  0.48276  1.0000
  N   N20       1.0  0.47924  0.76762  0.98277  1.0000
  N   N21       1.0  0.11194  0.38629  0.48055  1.0000
  N   N22       1.0  0.38804  0.11370  0.98055  1.0000
  N   N23       1.0  0.88804  0.61371  0.51945  1.0000
  N   N24       1.0  0.61195  0.88629  0.01946  1.0000
  N   N25       1.0  0.12991  0.36812  0.38845  1.0000
  N   N26       1.0  0.37009  0.13188  0.88845  1.0000
  N   N27       1.0  0.87012  0.63188  0.61156  1.0000
  N   N28       1.0  0.62991  0.86811  0.11156  1.0000
  N   N29       1.0  0.00995  0.23732  0.36247  1.0000
  N   N30       1.0  0.49005  0.26269  0.86248  1.0000
  N   N31       1.0  0.99009  0.76268  0.63753  1.0000
  N   N32       1.0  0.50994  0.73729  0.13753  1.0000
  O   O1        1.0  0.27698  0.01680  0.28355  1.0000
  O   O2        1.0  0.22303  0.48319  0.78355  1.0000
  O   O3        1.0  0.72302  0.98320  0.71645  1.0000
  O   O4        1.0  0.77697  0.51680  0.21645  1.0000
  O   O5        1.0  0.12126  0.91696  0.09656  1.0000
  O   O6        1.0  0.37875  0.58304  0.59656  1.0000
  O   O7        1.0  0.87873  0.08304  0.90343  1.0000
  O   O8        1.0  0.62127  0.41695  0.40344  1.0000
  O   O9        1.0  0.62997  0.20184  0.20290  1.0000
  O   O10       1.0  0.87004  0.29817  0.70290  1.0000
  O   O11       1.0  0.37004  0.79818  0.79710  1.0000
  O   O12       1.0  0.12997  0.70183  0.29710  1.0000
