data_image0
_chemical_formula_structural       CuH38C26N4O8
_chemical_formula_sum              "Cu1 H38 C26 N4 O8"
_cell_length_a       6.67748
_cell_length_b       10.1314
_cell_length_c       10.5407
_cell_angle_alpha    86.8189
_cell_angle_beta     82.7415
_cell_angle_gamma    85.8968

_space_group_name_H-M_alt    "P 1"
_space_group_IT_number       1

loop_
  _space_group_symop_operation_xyz
  'x, y, z'

loop_
  _atom_site_type_symbol
  _atom_site_label
  _atom_site_symmetry_multiplicity
  _atom_site_fract_x
  _atom_site_fract_y
  _atom_site_fract_z
  _atom_site_occupancy
  Cu  Cu1       1.0  0.00826  0.33278  0.50024  1.0000
  H   H1        1.0  0.70735  0.29880  0.02750  1.0000
  H   H2        1.0  0.31551  0.37840  0.05178  1.0000
  H   H3        1.0  0.28292  0.29774  0.80636  1.0000
  H   H4        1.0  0.08360  0.38360  0.25194  1.0000
  H   H5        1.0  0.80294  0.52086  0.33730  1.0000
  H   H6        1.0  0.94534  0.61633  0.06083  1.0000
  H   H7        1.0  0.07658  0.62725  0.19728  1.0000
  H   H8        1.0  0.84212  0.71903  0.18666  1.0000
  H   H9        1.0  0.50916  0.59915  0.23084  1.0000
  H   H10       1.0  0.51808  0.42427  0.24401  1.0000
  H   H11       1.0  0.59679  0.50881  0.09345  1.0000
  H   H12       1.0  0.00007  0.21913  0.70339  1.0000
  H   H13       1.0  0.62073  0.15991  0.88577  1.0000
  H   H14       1.0  0.77737  0.92476  0.88041  1.0000
  H   H15       1.0  0.92624  0.03093  0.95172  1.0000
  H   H16       1.0  0.99905  0.98471  0.79078  1.0000
  H   H17       1.0  0.76780  0.06849  0.61469  1.0000
  H   H18       1.0  0.55609  0.18004  0.65549  1.0000
  H   H19       1.0  0.55246  0.01300  0.71564  1.0000
  H   H20       1.0  0.17081  0.84057  0.51275  1.0000
  H   H21       1.0  0.78395  0.90058  0.38114  1.0000
  H   H22       1.0  0.76150  0.66017  0.52602  1.0000
  H   H23       1.0  0.49810  0.54104  0.63604  1.0000
  H   H24       1.0  0.25257  0.54501  0.80571  1.0000
  H   H25       1.0  0.37138  0.83301  0.77155  1.0000
  H   H26       1.0  0.52382  0.69340  0.82464  1.0000
  H   H27       1.0  0.29441  0.74621  0.91828  1.0000
  H   H28       1.0  0.95556  0.70469  0.84623  1.0000
  H   H29       1.0  0.94512  0.61901  0.70546  1.0000
  H   H30       1.0  0.01351  0.78649  0.69556  1.0000
  H   H31       1.0  0.30673  0.11011  0.18918  1.0000
  H   H32       1.0  0.07286  0.93870  0.15268  1.0000
  H   H33       1.0  0.01337  0.00187  0.30687  1.0000
  H   H34       1.0  0.14351  0.84163  0.28685  1.0000
  H   H35       1.0  0.51573  0.82989  0.17485  1.0000
  H   H36       1.0  0.63430  0.98060  0.12876  1.0000
  H   H37       1.0  0.43909  0.93050  0.04480  1.0000
  H   H38       1.0  0.54832  0.08103  0.33717  1.0000
  C   C1        1.0  0.86619  0.31014  0.00141  1.0000
  C   C2        1.0  0.18732  0.34780  0.01007  1.0000
  C   C3        1.0  0.17210  0.30703  0.89022  1.0000
  C   C4        1.0  0.94017  0.37662  0.21286  1.0000
  C   C5        1.0  0.81294  0.50946  0.23333  1.0000
  C   C6        1.0  0.92666  0.62426  0.16543  1.0000
  C   C7        1.0  0.59752  0.50910  0.19788  1.0000
  C   C8        1.0  0.87595  0.24825  0.77731  1.0000
  C   C9        1.0  0.74808  0.37239  0.73335  1.0000
  C   C10       1.0  0.74358  0.12964  0.81081  1.0000
  C   C11       1.0  0.86924  0.01095  0.86177  1.0000
  C   C12       1.0  0.64924  0.09633  0.69246  1.0000
  C   C13       1.0  0.33267  0.82347  0.49591  1.0000
  C   C14       1.0  0.65641  0.85075  0.43009  1.0000
  C   C15       1.0  0.64549  0.73413  0.50147  1.0000
  C   C16       1.0  0.36416  0.60552  0.61900  1.0000
  C   C17       1.0  0.25061  0.64085  0.75168  1.0000
  C   C18       1.0  0.36773  0.73389  0.81982  1.0000
  C   C19       1.0  0.02953  0.69050  0.74830  1.0000
  C   C20       1.0  0.23131  0.52847  0.54425  1.0000
  C   C21       1.0  0.33009  0.00860  0.23005  1.0000
  C   C22       1.0  0.12861  0.94366  0.24591  1.0000
  C   C23       1.0  0.48999  0.93329  0.13977  1.0000
  C   C24       1.0  0.40718  0.02992  0.35968  1.0000
  C   C25       1.0  0.25738  0.11981  0.44438  1.0000
  C   C26       1.0  0.83107  0.25864  0.28359  1.0000
  N   N1        1.0  0.99495  0.34914  0.07770  1.0000
  N   N2        1.0  0.97060  0.28410  0.88756  1.0000
  N   N3        1.0  0.44219  0.71949  0.54186  1.0000
  N   N4        1.0  0.46054  0.90507  0.42796  1.0000
  O   O1        1.0  0.78262  0.41475  0.61544  1.0000
  O   O2        1.0  0.61714  0.42336  0.81442  1.0000
  O   O3        1.0  0.20282  0.41130  0.59464  1.0000
  O   O4        1.0  0.15589  0.57957  0.44899  1.0000
  O   O5        1.0  0.23177  0.23722  0.39248  1.0000
  O   O6        1.0  0.17100  0.07888  0.54988  1.0000
  O   O7        1.0  0.81556  0.25473  0.40638  1.0000
  O   O8        1.0  0.75860  0.17720  0.22037  1.0000
