data_image0
_chemical_formula_structural       H64Au8C32S8I8
_chemical_formula_sum              "H64 Au8 C32 S8 I8"
_cell_length_a       8.07116
_cell_length_b       11.2745
_cell_length_c       15.956
_cell_angle_alpha    90
_cell_angle_beta     90
_cell_angle_gamma    90

_space_group_name_H-M_alt    "P 1"
_space_group_IT_number       1

loop_
  _space_group_symop_operation_xyz
  'x, y, z'

loop_
  _atom_site_type_symbol
  _atom_site_label
  _atom_site_symmetry_multiplicity
  _atom_site_fract_x
  _atom_site_fract_y
  _atom_site_fract_z
  _atom_site_occupancy
  H   H1        1.0  0.65387  0.07532  0.32553  1.0000
  H   H2        1.0  0.15387  0.57531  0.17447  1.0000
  H   H3        1.0  0.84613  0.07531  0.82553  1.0000
  H   H4        1.0  0.34613  0.57532  0.67447  1.0000
  H   H5        1.0  0.55058  0.21538  0.33527  1.0000
  H   H6        1.0  0.05057  0.71538  0.16473  1.0000
  H   H7        1.0  0.94942  0.21538  0.83527  1.0000
  H   H8        1.0  0.44943  0.71538  0.66473  1.0000
  H   H9        1.0  0.90408  0.17076  0.26944  1.0000
  H   H10       1.0  0.40408  0.67076  0.23056  1.0000
  H   H11       1.0  0.59592  0.17076  0.76944  1.0000
  H   H12       1.0  0.09592  0.67077  0.73056  1.0000
  H   H13       1.0  0.74184  0.24121  0.21430  1.0000
  H   H14       1.0  0.24184  0.74121  0.28571  1.0000
  H   H15       1.0  0.75816  0.24121  0.71429  1.0000
  H   H16       1.0  0.25816  0.74121  0.78571  1.0000
  H   H17       1.0  0.94748  0.38956  0.28538  1.0000
  H   H18       1.0  0.44748  0.88956  0.21462  1.0000
  H   H19       1.0  0.55252  0.38956  0.78538  1.0000
  H   H20       1.0  0.05252  0.88956  0.71462  1.0000
  H   H21       1.0  0.73807  0.40675  0.31790  1.0000
  H   H22       1.0  0.23807  0.90675  0.18210  1.0000
  H   H23       1.0  0.76193  0.40675  0.81790  1.0000
  H   H24       1.0  0.26193  0.90675  0.68210  1.0000
  H   H25       1.0  0.87750  0.38885  0.45256  1.0000
  H   H26       1.0  0.37750  0.88885  0.04744  1.0000
  H   H27       1.0  0.62250  0.38885  0.95256  1.0000
  H   H28       1.0  0.12250  0.88885  0.54744  1.0000
  H   H29       1.0  0.02228  0.28321  0.41107  1.0000
  H   H30       1.0  0.52228  0.78321  0.08893  1.0000
  H   H31       1.0  0.47772  0.28321  0.91107  1.0000
  H   H32       1.0  0.97772  0.78321  0.58893  1.0000
  H   H33       1.0  0.37431  0.11128  0.68381  1.0000
  H   H34       1.0  0.87431  0.61128  0.81619  1.0000
  H   H35       1.0  0.12569  0.11128  0.18381  1.0000
  H   H36       1.0  0.62569  0.61128  0.31619  1.0000
  H   H37       1.0  0.27736  0.21135  0.75633  1.0000
  H   H38       1.0  0.77736  0.71135  0.74367  1.0000
  H   H39       1.0  0.22264  0.21135  0.25633  1.0000
  H   H40       1.0  0.72264  0.71135  0.24367  1.0000
  H   H41       1.0  0.12887  0.10552  0.59574  1.0000
  H   H42       1.0  0.62888  0.60552  0.90426  1.0000
  H   H43       1.0  0.37113  0.10552  0.09574  1.0000
  H   H44       1.0  0.87113  0.60552  0.40426  1.0000
  H   H45       1.0  0.03880  0.11051  0.69722  1.0000
  H   H46       1.0  0.53880  0.61051  0.80278  1.0000
  H   H47       1.0  0.46120  0.11051  0.19722  1.0000
  H   H48       1.0  0.96120  0.61051  0.30278  1.0000
  H   H49       1.0  0.92673  0.27235  0.59353  1.0000
  H   H50       1.0  0.42674  0.77235  0.90647  1.0000
  H   H51       1.0  0.57326  0.27235  0.09353  1.0000
  H   H52       1.0  0.07326  0.77235  0.40647  1.0000
  H   H53       1.0  0.01250  0.33112  0.68700  1.0000
  H   H54       1.0  0.51250  0.83112  0.81300  1.0000
  H   H55       1.0  0.48750  0.33112  0.18700  1.0000
  H   H56       1.0  0.98750  0.83112  0.31300  1.0000
  H   H57       1.0  0.15620  0.44217  0.57721  1.0000
  H   H58       1.0  0.65620  0.94217  0.92279  1.0000
  H   H59       1.0  0.34380  0.44217  0.07721  1.0000
  H   H60       1.0  0.84379  0.94217  0.42279  1.0000
  H   H61       1.0  0.18490  0.31184  0.51532  1.0000
  H   H62       1.0  0.68490  0.81185  0.98468  1.0000
  H   H63       1.0  0.31510  0.31184  0.01532  1.0000
  H   H64       1.0  0.81510  0.81184  0.48468  1.0000
  Au  Au1       1.0  0.46234  0.00041  0.52399  1.0000
  Au  Au2       1.0  0.96234  0.50041  0.97601  1.0000
  Au  Au3       1.0  0.03766  0.00041  0.02399  1.0000
  Au  Au4       1.0  0.53766  0.50041  0.47601  1.0000
  Au  Au5       1.0  0.55456  0.25261  0.53047  1.0000
  Au  Au6       1.0  0.05456  0.75260  0.96953  1.0000
  Au  Au7       1.0  0.94544  0.25260  0.03047  1.0000
  Au  Au8       1.0  0.44544  0.75261  0.46953  1.0000
  C   C1        1.0  0.67140  0.17068  0.33573  1.0000
  C   C2        1.0  0.17140  0.67068  0.16428  1.0000
  C   C3        1.0  0.82860  0.17068  0.83572  1.0000
  C   C4        1.0  0.32860  0.67068  0.66428  1.0000
  C   C5        1.0  0.79562  0.22881  0.27684  1.0000
  C   C6        1.0  0.29561  0.72881  0.22316  1.0000
  C   C7        1.0  0.70439  0.22881  0.77684  1.0000
  C   C8        1.0  0.20439  0.72882  0.72316  1.0000
  C   C9        1.0  0.84447  0.34582  0.31808  1.0000
  C   C10       1.0  0.34447  0.84582  0.18192  1.0000
  C   C11       1.0  0.65553  0.34581  0.81808  1.0000
  C   C12       1.0  0.15553  0.84582  0.68192  1.0000
  C   C13       1.0  0.89440  0.31609  0.40777  1.0000
  C   C14       1.0  0.39440  0.81609  0.09223  1.0000
  C   C15       1.0  0.60560  0.31609  0.90777  1.0000
  C   C16       1.0  0.10560  0.81609  0.59223  1.0000
  C   C17       1.0  0.28592  0.18464  0.69025  1.0000
  C   C18       1.0  0.78592  0.68464  0.80975  1.0000
  C   C19       1.0  0.21408  0.18464  0.19025  1.0000
  C   C20       1.0  0.71408  0.68464  0.30975  1.0000
  C   C21       1.0  0.11584  0.15995  0.65258  1.0000
  C   C22       1.0  0.61584  0.65995  0.84742  1.0000
  C   C23       1.0  0.38415  0.15995  0.15258  1.0000
  C   C24       1.0  0.88416  0.65995  0.34742  1.0000
  C   C25       1.0  0.04174  0.28031  0.62999  1.0000
  C   C26       1.0  0.54174  0.78031  0.87001  1.0000
  C   C27       1.0  0.45826  0.28031  0.12999  1.0000
  C   C28       1.0  0.95827  0.78031  0.37001  1.0000
  C   C29       1.0  0.17312  0.34573  0.57941  1.0000
  C   C30       1.0  0.67312  0.84573  0.92059  1.0000
  C   C31       1.0  0.32687  0.34573  0.07941  1.0000
  C   C32       1.0  0.82688  0.84573  0.42059  1.0000
  S   S1        1.0  0.76424  0.18975  0.44017  1.0000
  S   S2        1.0  0.26424  0.68975  0.05983  1.0000
  S   S3        1.0  0.73576  0.18975  0.94017  1.0000
  S   S4        1.0  0.23576  0.68975  0.55983  1.0000
  S   S5        1.0  0.36900  0.31449  0.63411  1.0000
  S   S6        1.0  0.86900  0.81449  0.86589  1.0000
  S   S7        1.0  0.13100  0.31449  0.13411  1.0000
  S   S8        1.0  0.63100  0.81449  0.36589  1.0000
  I   I1        1.0  0.66482  0.94396  0.64460  1.0000
  I   I2        1.0  0.16482  0.44396  0.85539  1.0000
  I   I3        1.0  0.83518  0.94396  0.14460  1.0000
  I   I4        1.0  0.33518  0.44396  0.35540  1.0000
  I   I5        1.0  0.24230  0.05517  0.41098  1.0000
  I   I6        1.0  0.74229  0.55517  0.08901  1.0000
  I   I7        1.0  0.25771  0.05517  0.91098  1.0000
  I   I8        1.0  0.75771  0.55517  0.58902  1.0000
