data_image0
_chemical_formula_structural       Cd2H38C38N10O10
_chemical_formula_sum              "Cd2 H38 C38 N10 O10"
_cell_length_a       8.90743
_cell_length_b       10.4992
_cell_length_c       13.0492
_cell_angle_alpha    101.63
_cell_angle_beta     104.358
_cell_angle_gamma    101.348

_space_group_name_H-M_alt    "P 1"
_space_group_IT_number       1

loop_
  _space_group_symop_operation_xyz
  'x, y, z'

loop_
  _atom_site_type_symbol
  _atom_site_label
  _atom_site_symmetry_multiplicity
  _atom_site_fract_x
  _atom_site_fract_y
  _atom_site_fract_z
  _atom_site_occupancy
  Cd  Cd1       1.0  0.63864  0.15353  0.44298  1.0000
  Cd  Cd2       1.0  0.36137  0.84647  0.55702  1.0000
  H   H1        1.0  0.50926  0.35099  0.14851  1.0000
  H   H2        1.0  0.49075  0.64902  0.85149  1.0000
  H   H3        1.0  0.98309  0.42949  0.17870  1.0000
  H   H4        1.0  0.01691  0.57051  0.82130  1.0000
  H   H5        1.0  0.17987  0.49050  0.17501  1.0000
  H   H6        1.0  0.82013  0.50948  0.82498  1.0000
  H   H7        1.0  0.48656  0.76201  0.16162  1.0000
  H   H8        1.0  0.51344  0.23799  0.83838  1.0000
  H   H9        1.0  0.18166  0.35592  0.79227  1.0000
  H   H10       1.0  0.81834  0.64407  0.20773  1.0000
  H   H11       1.0  0.87571  0.37821  0.34566  1.0000
  H   H12       1.0  0.12428  0.62178  0.65433  1.0000
  H   H13       1.0  0.12219  0.15711  0.89955  1.0000
  H   H14       1.0  0.87779  0.84287  0.10044  1.0000
  H   H15       1.0  0.91590  0.09373  0.88320  1.0000
  H   H16       1.0  0.08409  0.90626  0.11680  1.0000
  H   H17       1.0  0.72214  0.08517  0.70608  1.0000
  H   H18       1.0  0.27785  0.91484  0.29391  1.0000
  H   H19       1.0  0.99185  0.19214  0.09988  1.0000
  H   H20       1.0  0.00814  0.80786  0.90012  1.0000
  H   H21       1.0  0.19178  0.25295  0.10105  1.0000
  H   H22       1.0  0.80821  0.74704  0.89894  1.0000
  H   H23       1.0  0.19902  0.13486  0.33251  1.0000
  H   H24       1.0  0.80100  0.86515  0.66750  1.0000
  H   H25       1.0  0.00823  0.34500  0.57990  1.0000
  H   H26       1.0  0.99178  0.65501  0.42011  1.0000
  H   H27       1.0  0.28006  0.35375  0.30197  1.0000
  H   H28       1.0  0.71994  0.64625  0.69803  1.0000
  H   H29       1.0  0.20006  0.48109  0.36213  1.0000
  H   H30       1.0  0.79994  0.51891  0.63787  1.0000
  H   H31       1.0  0.93433  0.99975  0.38312  1.0000
  H   H32       1.0  0.06571  0.00026  0.61689  1.0000
  H   H33       1.0  0.89733  0.32392  0.96737  1.0000
  H   H34       1.0  0.10266  0.67608  0.03263  1.0000
  H   H35       1.0  0.09816  0.39344  0.97368  1.0000
  H   H36       1.0  0.90183  0.60655  0.02632  1.0000
  H   H37       1.0  0.60898  0.63731  0.45927  1.0000
  H   H38       1.0  0.39101  0.36270  0.54074  1.0000
  C   C1        1.0  0.52073  0.45258  0.19516  1.0000
  C   C2        1.0  0.47928  0.54742  0.80484  1.0000
  C   C3        1.0  0.09807  0.40315  0.18443  1.0000
  C   C4        1.0  0.90192  0.59684  0.81557  1.0000
  C   C5        1.0  0.49799  0.55478  0.14401  1.0000
  C   C6        1.0  0.50202  0.44522  0.85599  1.0000
  C   C7        1.0  0.50782  0.68403  0.20293  1.0000
  C   C8        1.0  0.49218  0.31597  0.79707  1.0000
  C   C9        1.0  0.06213  0.29799  0.74182  1.0000
  C   C10       1.0  0.93788  0.70201  0.25818  1.0000
  C   C11       1.0  0.92307  0.29084  0.34671  1.0000
  C   C12       1.0  0.07694  0.70915  0.65329  1.0000
  C   C13       1.0  0.55990  0.48266  0.30942  1.0000
  C   C14       1.0  0.44011  0.51734  0.69058  1.0000
  C   C15       1.0  0.00651  0.18359  0.88675  1.0000
  C   C16       1.0  0.99347  0.81640  0.11325  1.0000
  C   C17       1.0  0.82254  0.15638  0.69872  1.0000
  C   C18       1.0  0.17745  0.84362  0.30128  1.0000
  C   C19       1.0  0.07595  0.27937  0.09188  1.0000
  C   C20       1.0  0.92404  0.72062  0.90812  1.0000
  C   C21       1.0  0.58266  0.37341  0.36605  1.0000
  C   C22       1.0  0.41734  0.62660  0.63395  1.0000
  C   C23       1.0  0.08944  0.16092  0.33926  1.0000
  C   C24       1.0  0.91058  0.83908  0.66075  1.0000
  C   C25       1.0  0.97424  0.29290  0.63779  1.0000
  C   C26       1.0  0.02577  0.70711  0.36222  1.0000
  C   C27       1.0  0.16992  0.38647  0.29833  1.0000
  C   C28       1.0  0.83008  0.61353  0.70167  1.0000
  C   C29       1.0  0.95948  0.09738  0.36603  1.0000
  C   C30       1.0  0.04055  0.90263  0.63398  1.0000
  C   C31       1.0  0.01610  0.30324  0.97890  1.0000
  C   C32       1.0  0.98389  0.69675  0.02110  1.0000
  C   C33       1.0  0.54776  0.71331  0.31736  1.0000
  C   C34       1.0  0.45224  0.28670  0.68264  1.0000
  C   C35       1.0  0.57608  0.61330  0.37019  1.0000
  C   C36       1.0  0.42392  0.38670  0.62981  1.0000
  C   C37       1.0  0.56338  0.85312  0.38313  1.0000
  C   C38       1.0  0.43661  0.14688  0.61687  1.0000
  N   N1        1.0  0.96437  0.21070  0.77918  1.0000
  N   N2        1.0  0.03562  0.78929  0.22082  1.0000
  N   N3        1.0  0.06389  0.28318  0.32696  1.0000
  N   N4        1.0  0.93612  0.71682  0.67304  1.0000
  N   N5        1.0  0.82486  0.20445  0.61194  1.0000
  N   N6        1.0  0.17514  0.79556  0.38806  1.0000
  N   N7        1.0  0.45303  0.52760  0.02574  1.0000
  N   N8        1.0  0.54697  0.47240  0.97426  1.0000
  N   N9        1.0  0.85662  0.17959  0.37036  1.0000
  N   N10       1.0  0.14340  0.82041  0.62965  1.0000
  O   O1        1.0  0.68317  0.40571  0.46075  1.0000
  O   O2        1.0  0.31683  0.59430  0.53925  1.0000
  O   O3        1.0  0.50016  0.25312  0.31415  1.0000
  O   O4        1.0  0.49985  0.74689  0.68585  1.0000
  O   O5        1.0  0.32921  0.55807  0.97407  1.0000
  O   O6        1.0  0.67080  0.44193  0.02593  1.0000
  O   O7        1.0  0.58432  0.87451  0.48560  1.0000
  O   O8        1.0  0.41568  0.12550  0.51439  1.0000
  O   O9        1.0  0.55562  0.94228  0.32968  1.0000
  O   O10       1.0  0.44437  0.05773  0.67031  1.0000
