data_image0
_chemical_formula_structural       Cu2H18C24I2N2O2
_chemical_formula_sum              "Cu2 H18 C24 I2 N2 O2"
_cell_length_a       3.9903
_cell_length_b       8.16111
_cell_length_c       18.0141
_cell_angle_alpha    92.1934
_cell_angle_beta     89.9645
_cell_angle_gamma    104.468

_space_group_name_H-M_alt    "P 1"
_space_group_IT_number       1

loop_
  _space_group_symop_operation_xyz
  'x, y, z'

loop_
  _atom_site_type_symbol
  _atom_site_label
  _atom_site_symmetry_multiplicity
  _atom_site_fract_x
  _atom_site_fract_y
  _atom_site_fract_z
  _atom_site_occupancy
  Cu  Cu1       1.0  0.96409  0.47706  0.54548  1.0000
  Cu  Cu2       1.0  0.48810  0.52276  0.45513  1.0000
  H   H1        1.0  0.87450  0.48490  0.70544  1.0000
  H   H2        1.0  0.37578  0.51598  0.29587  1.0000
  H   H3        1.0  0.11489  0.13539  0.55579  1.0000
  H   H4        1.0  0.98605  0.86534  0.44363  1.0000
  H   H5        1.0  0.79766  0.48246  0.95804  1.0000
  H   H6        1.0  0.31018  0.51267  0.04128  1.0000
  H   H7        1.0  0.25684  0.96307  0.65769  1.0000
  H   H8        1.0  0.29719  0.03676  0.34074  1.0000
  H   H9        1.0  0.20480  0.06333  0.79093  1.0000
  H   H10       1.0  0.13319  0.93574  0.20791  1.0000
  H   H11       1.0  0.43171  0.60284  0.76398  1.0000
  H   H12       1.0  0.82040  0.40110  0.23707  1.0000
  H   H13       1.0  0.62210  0.90085  0.81012  1.0000
  H   H14       1.0  0.72867  0.10367  0.19090  1.0000
  H   H15       1.0  0.40171  0.99365  0.92797  1.0000
  H   H16       1.0  0.42926  0.00777  0.07172  1.0000
  H   H17       1.0  0.97789  0.78381  0.00304  1.0000
  H   H18       1.0  0.20560  0.21223  0.99617  1.0000
  C   C1        1.0  0.96364  0.36939  0.69790  1.0000
  C   C2        1.0  0.58418  0.63119  0.30273  1.0000
  C   C3        1.0  0.99591  0.33970  0.83691  1.0000
  C   C4        1.0  0.63850  0.65921  0.16352  1.0000
  C   C5        1.0  0.09930  0.52247  0.85846  1.0000
  C   C6        1.0  0.56916  0.47693  0.14173  1.0000
  C   C7        1.0  0.09272  0.17255  0.61407  1.0000
  C   C8        1.0  0.92116  0.82807  0.38555  1.0000
  C   C9        1.0  0.04069  0.28300  0.75846  1.0000
  C   C10       1.0  0.74548  0.71703  0.24166  1.0000
  C   C11       1.0  0.97644  0.57598  0.92601  1.0000
  C   C12       1.0  0.39861  0.42127  0.07365  1.0000
  C   C13       1.0  0.17195  0.07760  0.67125  1.0000
  C   C14       1.0  0.09353  0.92258  0.32781  1.0000
  C   C15       1.0  0.14393  0.13270  0.74440  1.0000
  C   C16       1.0  0.00409  0.86705  0.25488  1.0000
  C   C17       1.0  0.32828  0.64158  0.81594  1.0000
  C   C18       1.0  0.68322  0.36045  0.18463  1.0000
  C   C19       1.0  0.43506  0.80977  0.84161  1.0000
  C   C20       1.0  0.63115  0.19280  0.15892  1.0000
  C   C21       1.0  0.31187  0.86160  0.90886  1.0000
  C   C22       1.0  0.46253  0.13902  0.09104  1.0000
  C   C23       1.0  0.07946  0.74452  0.95092  1.0000
  C   C24       1.0  0.34310  0.25335  0.04861  1.0000
  I   I1        1.0  0.89645  0.30643  0.41917  1.0000
  I   I2        1.0  0.59578  0.69402  0.58119  1.0000
  N   N1        1.0  0.98760  0.31559  0.62696  1.0000
  N   N2        1.0  0.66891  0.68505  0.37343  1.0000
  O   O1        1.0  0.87477  0.23086  0.88254  1.0000
  O   O2        1.0  0.61565  0.76684  0.11828  1.0000
