data_image0
_chemical_formula_structural       Cu4H12C16I4N4
_chemical_formula_sum              "Cu4 H12 C16 I4 N4"
_cell_length_a       4.14857
_cell_length_b       8.6627
_cell_length_c       15.0451
_cell_angle_alpha    92.028
_cell_angle_beta     92.2975
_cell_angle_gamma    99.9384

_space_group_name_H-M_alt    "P 1"
_space_group_IT_number       1

loop_
  _space_group_symop_operation_xyz
  'x, y, z'

loop_
  _atom_site_type_symbol
  _atom_site_label
  _atom_site_symmetry_multiplicity
  _atom_site_fract_x
  _atom_site_fract_y
  _atom_site_fract_z
  _atom_site_occupancy
  Cu  Cu1       1.0  0.24275  0.00006  0.44508  1.0000
  Cu  Cu2       1.0  0.75726  0.99994  0.55492  1.0000
  Cu  Cu3       1.0  0.33564  0.02287  0.06809  1.0000
  Cu  Cu4       1.0  0.66436  0.97712  0.93191  1.0000
  H   H1        1.0  0.11898  0.97925  0.24886  1.0000
  H   H2        1.0  0.88101  0.02075  0.75114  1.0000
  H   H3        1.0  0.67434  0.31173  0.42428  1.0000
  H   H4        1.0  0.32566  0.68827  0.57572  1.0000
  H   H5        1.0  0.08368  0.53159  0.36192  1.0000
  H   H6        1.0  0.91632  0.46841  0.63808  1.0000
  H   H7        1.0  0.34525  0.65405  0.22942  1.0000
  H   H8        1.0  0.65476  0.34595  0.77058  1.0000
  H   H9        1.0  0.19397  0.53295  0.07861  1.0000
  H   H10       1.0  0.80603  0.46704  0.92139  1.0000
  H   H11       1.0  0.76566  0.29268  0.05639  1.0000
  H   H12       1.0  0.23434  0.70732  0.94361  1.0000
  C   C1        1.0  0.30817  0.08387  0.25785  1.0000
  C   C2        1.0  0.69183  0.91613  0.74215  1.0000
  C   C3        1.0  0.61477  0.26815  0.35545  1.0000
  C   C4        1.0  0.38523  0.73184  0.64455  1.0000
  C   C5        1.0  0.77129  0.34440  0.28377  1.0000
  C   C6        1.0  0.22871  0.65560  0.71623  1.0000
  C   C7        1.0  0.01343  0.48138  0.29496  1.0000
  C   C8        1.0  0.98657  0.51861  0.70503  1.0000
  C   C9        1.0  0.15786  0.54878  0.22148  1.0000
  C   C10       1.0  0.84215  0.45122  0.77852  1.0000
  C   C11       1.0  0.06903  0.48017  0.13535  1.0000
  C   C12       1.0  0.93097  0.51983  0.86465  1.0000
  C   C13       1.0  0.83276  0.34690  0.12248  1.0000
  C   C14       1.0  0.16724  0.65310  0.87752  1.0000
  C   C15       1.0  0.67782  0.27745  0.19631  1.0000
  C   C16       1.0  0.32218  0.72255  0.80369  1.0000
  I   I1        1.0  0.31090  0.19368  0.58493  1.0000
  I   I2        1.0  0.68910  0.80632  0.41507  1.0000
  I   I3        1.0  0.23634  0.17174  0.92252  1.0000
  I   I4        1.0  0.76366  0.82826  0.07748  1.0000
  N   N1        1.0  0.38746  0.13937  0.34300  1.0000
  N   N2        1.0  0.61254  0.86063  0.65700  1.0000
  N   N3        1.0  0.43983  0.14493  0.18543  1.0000
  N   N4        1.0  0.56017  0.85507  0.81457  1.0000
