data_image0
_chemical_formula_structural       Cu4H16C32S8N8O16
_chemical_formula_sum              "Cu4 H16 C32 S8 N8 O16"
_cell_length_a       8.48857
_cell_length_b       10.6076
_cell_length_c       12.9146
_cell_angle_alpha    90
_cell_angle_beta     109.859
_cell_angle_gamma    89.9998

_space_group_name_H-M_alt    "P 1"
_space_group_IT_number       1

loop_
  _space_group_symop_operation_xyz
  'x, y, z'

loop_
  _atom_site_type_symbol
  _atom_site_label
  _atom_site_symmetry_multiplicity
  _atom_site_fract_x
  _atom_site_fract_y
  _atom_site_fract_z
  _atom_site_occupancy
  Cu  Cu1       1.0  0.20745  0.62025  0.49191  1.0000
  Cu  Cu2       1.0  0.29254  0.12025  0.00808  1.0000
  Cu  Cu3       1.0  0.79258  0.37975  0.50810  1.0000
  Cu  Cu4       1.0  0.70743  0.87975  0.99191  1.0000
  H   H1        1.0  0.12851  0.24775  0.77831  1.0000
  H   H2        1.0  0.37148  0.74774  0.72169  1.0000
  H   H3        1.0  0.87147  0.75227  0.22168  1.0000
  H   H4        1.0  0.62854  0.25227  0.27833  1.0000
  H   H5        1.0  0.59050  0.30411  0.03231  1.0000
  H   H6        1.0  0.90950  0.80411  0.46770  1.0000
  H   H7        1.0  0.40950  0.69587  0.96770  1.0000
  H   H8        1.0  0.09052  0.19587  0.53230  1.0000
  H   H9        1.0  0.40385  0.02344  0.25143  1.0000
  H   H10       1.0  0.09617  0.52345  0.24856  1.0000
  H   H11       1.0  0.59614  0.97656  0.74856  1.0000
  H   H12       1.0  0.90384  0.47656  0.75146  1.0000
  H   H13       1.0  0.07667  0.87487  0.95303  1.0000
  H   H14       1.0  0.42332  0.37485  0.54696  1.0000
  H   H15       1.0  0.92328  0.12514  0.04696  1.0000
  H   H16       1.0  0.57671  0.62514  0.45304  1.0000
  C   C1        1.0  0.23328  0.44387  0.66076  1.0000
  C   C2        1.0  0.26672  0.94387  0.83924  1.0000
  C   C3        1.0  0.76674  0.55612  0.33924  1.0000
  C   C4        1.0  0.73326  0.05613  0.16076  1.0000
  C   C5        1.0  0.31458  0.38614  0.77099  1.0000
  C   C6        1.0  0.18542  0.88613  0.72901  1.0000
  C   C7        1.0  0.68544  0.61386  0.22901  1.0000
  C   C8        1.0  0.81457  0.11387  0.27100  1.0000
  C   C9        1.0  0.24892  0.29274  0.81775  1.0000
  C   C10       1.0  0.25107  0.79274  0.68225  1.0000
  C   C11       1.0  0.75106  0.70726  0.18224  1.0000
  C   C12       1.0  0.74894  0.20726  0.31776  1.0000
  C   C13       1.0  0.49310  0.32133  0.95356  1.0000
  C   C14       1.0  0.00689  0.82134  0.54644  1.0000
  C   C15       1.0  0.50689  0.67865  0.04644  1.0000
  C   C16       1.0  0.99312  0.17866  0.45356  1.0000
  C   C17       1.0  0.29516  0.80079  0.35218  1.0000
  C   C18       1.0  0.20486  0.30080  0.14781  1.0000
  C   C19       1.0  0.70486  0.19921  0.64782  1.0000
  C   C20       1.0  0.79513  0.69921  0.85219  1.0000
  C   C21       1.0  0.25767  0.84918  0.23779  1.0000
  C   C22       1.0  0.24234  0.34918  0.26220  1.0000
  C   C23       1.0  0.74232  0.15082  0.76220  1.0000
  C   C24       1.0  0.75766  0.65082  0.73780  1.0000
  C   C25       1.0  0.31521  0.95536  0.20113  1.0000
  C   C26       1.0  0.18481  0.45537  0.29886  1.0000
  C   C27       1.0  0.68477  0.04464  0.79886  1.0000
  C   C28       1.0  0.81521  0.54464  0.70114  1.0000
  C   C29       1.0  0.14277  0.87984  0.04083  1.0000
  C   C30       1.0  0.35723  0.37983  0.45916  1.0000
  C   C31       1.0  0.85719  0.12017  0.95917  1.0000
  C   C32       1.0  0.64280  0.62017  0.54084  1.0000
  S   S1        1.0  0.51043  0.42846  0.85970  1.0000
  S   S2        1.0  0.98957  0.92846  0.64030  1.0000
  S   S3        1.0  0.48959  0.57153  0.14030  1.0000
  S   S4        1.0  0.01042  0.07152  0.35969  1.0000
  S   S5        1.0  0.11875  0.76903  0.12858  1.0000
  S   S6        1.0  0.38124  0.26903  0.37142  1.0000
  S   S7        1.0  0.88123  0.23096  0.87142  1.0000
  S   S8        1.0  0.61876  0.73096  0.62859  1.0000
  N   N1        1.0  0.35030  0.25752  0.92109  1.0000
  N   N2        1.0  0.14969  0.75752  0.57891  1.0000
  N   N3        1.0  0.64968  0.74248  0.07890  1.0000
  N   N4        1.0  0.85033  0.24249  0.42110  1.0000
  N   N5        1.0  0.24707  0.97244  0.08904  1.0000
  N   N6        1.0  0.25294  0.47243  0.41096  1.0000
  N   N7        1.0  0.75291  0.02757  0.91096  1.0000
  N   N8        1.0  0.74708  0.52756  0.58904  1.0000
  O   O1        1.0  0.31754  0.53428  0.63691  1.0000
  O   O2        1.0  0.18246  0.03428  0.86309  1.0000
  O   O3        1.0  0.68250  0.46573  0.36310  1.0000
  O   O4        1.0  0.81751  0.96573  0.13691  1.0000
  O   O5        1.0  0.09587  0.40153  0.60025  1.0000
  O   O6        1.0  0.40414  0.90153  0.89975  1.0000
  O   O7        1.0  0.90415  0.59847  0.39974  1.0000
  O   O8        1.0  0.59585  0.09847  0.10026  1.0000
  O   O9        1.0  0.17859  0.72532  0.35953  1.0000
  O   O10       1.0  0.32142  0.22531  0.14046  1.0000
  O   O11       1.0  0.82141  0.27468  0.64047  1.0000
  O   O12       1.0  0.67857  0.77469  0.85954  1.0000
  O   O13       1.0  0.42623  0.83287  0.42641  1.0000
  O   O14       1.0  0.07380  0.33289  0.07358  1.0000
  O   O15       1.0  0.57378  0.16713  0.57358  1.0000
  O   O16       1.0  0.92619  0.66712  0.92642  1.0000
