data_image0
_chemical_formula_structural       CuH36C58N6O10
_chemical_formula_sum              "Cu1 H36 C58 N6 O10"
_cell_length_a       9.29472
_cell_length_b       10.6013
_cell_length_c       13.27
_cell_angle_alpha    108.838
_cell_angle_beta     93.3132
_cell_angle_gamma    105.918

_space_group_name_H-M_alt    "P 1"
_space_group_IT_number       1

loop_
  _space_group_symop_operation_xyz
  'x, y, z'

loop_
  _atom_site_type_symbol
  _atom_site_label
  _atom_site_symmetry_multiplicity
  _atom_site_fract_x
  _atom_site_fract_y
  _atom_site_fract_z
  _atom_site_occupancy
  Cu  Cu1       1.0  0.50000  1.00000  1.00000  1.0000
  H   H1        1.0  0.50391  0.62180  0.89112  1.0000
  H   H2        1.0  0.49608  0.37820  0.10888  1.0000
  H   H3        1.0  0.49470  0.75475  0.27402  1.0000
  H   H4        1.0  0.50530  0.24525  0.72598  1.0000
  H   H5        1.0  0.56274  0.80719  0.10795  1.0000
  H   H6        1.0  0.43726  0.19281  0.89205  1.0000
  H   H7        1.0  0.37267  0.13015  0.18060  1.0000
  H   H8        1.0  0.62732  0.86984  0.81940  1.0000
  H   H9        1.0  0.30441  0.09638  0.35136  1.0000
  H   H10       1.0  0.69559  0.90362  0.64864  1.0000
  H   H11       1.0  0.29281  0.08095  0.49560  1.0000
  H   H12       1.0  0.70719  0.91905  0.50440  1.0000
  H   H13       1.0  0.16397  0.76361  0.64004  1.0000
  H   H14       1.0  0.83602  0.23639  0.35996  1.0000
  H   H15       1.0  0.35663  0.63317  0.66843  1.0000
  H   H16       1.0  0.64337  0.36683  0.33157  1.0000
  H   H17       1.0  0.35574  0.39057  0.64564  1.0000
  H   H18       1.0  0.64427  0.60943  0.35436  1.0000
  H   H19       1.0  0.19314  0.24650  0.31818  1.0000
  H   H20       1.0  0.80686  0.75350  0.68182  1.0000
  H   H21       1.0  0.19927  0.48662  0.32571  1.0000
  H   H22       1.0  0.80073  0.51338  0.67429  1.0000
  H   H23       1.0  0.11619  0.13687  0.54607  1.0000
  H   H24       1.0  0.88381  0.86313  0.45393  1.0000
  H   H25       1.0  0.99678  0.29226  0.66617  1.0000
  H   H26       1.0  0.00323  0.70774  0.33383  1.0000
  H   H27       1.0  0.02583  0.09392  0.90037  1.0000
  H   H28       1.0  0.97417  0.90608  0.09963  1.0000
  H   H29       1.0  0.15098  0.93991  0.78188  1.0000
  H   H30       1.0  0.84903  0.06009  0.21812  1.0000
  H   H31       1.0  0.19718  0.47315  0.86543  1.0000
  H   H32       1.0  0.80282  0.52685  0.13457  1.0000
  H   H33       1.0  0.00808  0.81135  0.91015  1.0000
  H   H34       1.0  0.99192  0.18864  0.08985  1.0000
  H   H35       1.0  0.71824  0.39772  0.86963  1.0000
  H   H36       1.0  0.28175  0.60229  0.13037  1.0000
  C   C1        1.0  0.46713  0.83957  0.25629  1.0000
  C   C2        1.0  0.53287  0.16043  0.74371  1.0000
  C   C3        1.0  0.50440  0.86758  0.16412  1.0000
  C   C4        1.0  0.49560  0.13242  0.83588  1.0000
  C   C5        1.0  0.40001  0.05020  0.20602  1.0000
  C   C6        1.0  0.59999  0.94980  0.79398  1.0000
  C   C7        1.0  0.36092  0.02904  0.29991  1.0000
  C   C8        1.0  0.63908  0.97096  0.70009  1.0000
  C   C9        1.0  0.39081  0.91950  0.32564  1.0000
  C   C10       1.0  0.60920  0.08050  0.67436  1.0000
  C   C11       1.0  0.33649  0.88489  0.41916  1.0000
  C   C12       1.0  0.66351  0.11511  0.58084  1.0000
  C   C13       1.0  0.28350  0.97720  0.49789  1.0000
  C   C14       1.0  0.71650  0.02280  0.50211  1.0000
  C   C15       1.0  0.21602  0.93552  0.57879  1.0000
  C   C16       1.0  0.78397  0.06448  0.42121  1.0000
  C   C17       1.0  0.21669  0.80416  0.58086  1.0000
  C   C18       1.0  0.78332  0.19584  0.41914  1.0000
  C   C19       1.0  0.27812  0.72055  0.50157  1.0000
  C   C20       1.0  0.72188  0.27945  0.49843  1.0000
  C   C21       1.0  0.27655  0.57904  0.49774  1.0000
  C   C22       1.0  0.72345  0.42096  0.50226  1.0000
  C   C23       1.0  0.31947  0.55075  0.58902  1.0000
  C   C24       1.0  0.68054  0.44925  0.41098  1.0000
  C   C25       1.0  0.31877  0.41457  0.57619  1.0000
  C   C26       1.0  0.68124  0.58543  0.42381  1.0000
  C   C27       1.0  0.23091  0.33513  0.39460  1.0000
  C   C28       1.0  0.76909  0.66487  0.60540  1.0000
  C   C29       1.0  0.23225  0.46801  0.39839  1.0000
  C   C30       1.0  0.76775  0.53199  0.60161  1.0000
  C   C31       1.0  0.14335  0.02548  0.65361  1.0000
  C   C32       1.0  0.85665  0.97452  0.34639  1.0000
  C   C33       1.0  0.09912  0.12696  0.62397  1.0000
  C   C34       1.0  0.90088  0.87304  0.37604  1.0000
  C   C35       1.0  0.03147  0.21543  0.69142  1.0000
  C   C36       1.0  0.96853  0.78457  0.30858  1.0000
  C   C37       1.0  0.00521  0.20272  0.79081  1.0000
  C   C38       1.0  0.99479  0.79728  0.20920  1.0000
  C   C39       1.0  0.04589  0.10168  0.82223  1.0000
  C   C40       1.0  0.95411  0.89832  0.17777  1.0000
  C   C41       1.0  0.11476  0.01420  0.75394  1.0000
  C   C42       1.0  0.88524  0.98580  0.24607  1.0000
  C   C43       1.0  0.95408  0.41988  0.86348  1.0000
  C   C44       1.0  0.04592  0.58012  0.13652  1.0000
  C   C45       1.0  0.09837  0.50982  0.86959  1.0000
  C   C46       1.0  0.90163  0.49018  0.13041  1.0000
  C   C47       1.0  0.11747  0.65106  0.88657  1.0000
  C   C48       1.0  0.88253  0.34894  0.11343  1.0000
  C   C49       1.0  0.99287  0.70104  0.89513  1.0000
  C   C50       1.0  0.00713  0.29896  0.10487  1.0000
  C   C51       1.0  0.84896  0.61013  0.88846  1.0000
  C   C52       1.0  0.15104  0.38988  0.11154  1.0000
  C   C53       1.0  0.82913  0.46892  0.87296  1.0000
  C   C54       1.0  0.17086  0.53108  0.12704  1.0000
  C   C55       1.0  0.27441  0.75089  0.90672  1.0000
  C   C56       1.0  0.72559  0.24911  0.09327  1.0000
  C   C57       1.0  0.72022  0.66923  0.90025  1.0000
  C   C58       1.0  0.27978  0.33078  0.09975  1.0000
  N   N1        1.0  0.46893  0.96965  0.13843  1.0000
  N   N2        1.0  0.53107  0.03035  0.86157  1.0000
  N   N3        1.0  0.33375  0.75793  0.42050  1.0000
  N   N4        1.0  0.66625  0.24207  0.57950  1.0000
  N   N5        1.0  0.27465  0.30731  0.48134  1.0000
  N   N6        1.0  0.72535  0.69269  0.51866  1.0000
  O   O1        1.0  0.28548  0.88187  0.93799  1.0000
  O   O2        1.0  0.71452  0.11813  0.06201  1.0000
  O   O3        1.0  0.38699  0.70589  0.89669  1.0000
  O   O4        1.0  0.61301  0.29411  0.10330  1.0000
  O   O5        1.0  0.73902  0.79548  0.92240  1.0000
  O   O6        1.0  0.26098  0.20452  0.07760  1.0000
  O   O7        1.0  0.58453  0.57309  0.88440  1.0000
  O   O8        1.0  0.41548  0.42692  0.11560  1.0000
  O   O9        1.0  0.93070  0.28300  0.85821  1.0000
  O   O10       1.0  0.06929  0.71699  0.14179  1.0000
