data_image0
_chemical_formula_structural       Ag4H30C34N12O18
_chemical_formula_sum              "Ag4 H30 C34 N12 O18"
_cell_length_a       6.98906
_cell_length_b       11.6877
_cell_length_c       13.2765
_cell_angle_alpha    104.891
_cell_angle_beta     95.8095
_cell_angle_gamma    95.8517

_space_group_name_H-M_alt    "P 1"
_space_group_IT_number       1

loop_
  _space_group_symop_operation_xyz
  'x, y, z'

loop_
  _atom_site_type_symbol
  _atom_site_label
  _atom_site_symmetry_multiplicity
  _atom_site_fract_x
  _atom_site_fract_y
  _atom_site_fract_z
  _atom_site_occupancy
  Ag  Ag1       1.0  0.44730  0.11413  0.19619  1.0000
  Ag  Ag2       1.0  0.55269  0.88588  0.80381  1.0000
  Ag  Ag3       1.0  0.16621  0.18373  0.56553  1.0000
  Ag  Ag4       1.0  0.83378  0.81627  0.43447  1.0000
  H   H1        1.0  0.23692  0.57797  0.68230  1.0000
  H   H2        1.0  0.76310  0.42204  0.31771  1.0000
  H   H3        1.0  0.19699  0.69708  0.52997  1.0000
  H   H4        1.0  0.80303  0.30293  0.47004  1.0000
  H   H5        1.0  0.24217  0.52952  0.34691  1.0000
  H   H6        1.0  0.75784  0.47049  0.65309  1.0000
  H   H7        1.0  0.33145  0.30024  0.30933  1.0000
  H   H8        1.0  0.66855  0.69976  0.69068  1.0000
  H   H9        1.0  0.29347  0.01017  0.45666  1.0000
  H   H10       1.0  0.70654  0.98983  0.54334  1.0000
  H   H11       1.0  0.35802  0.78233  0.42932  1.0000
  H   H12       1.0  0.64200  0.21767  0.57068  1.0000
  H   H13       1.0  0.47390  0.61658  0.26678  1.0000
  H   H14       1.0  0.52611  0.38342  0.73322  1.0000
  H   H15       1.0  0.53069  0.73685  0.11683  1.0000
  H   H16       1.0  0.46931  0.26316  0.88316  1.0000
  H   H17       1.0  0.92176  0.25201  0.17112  1.0000
  H   H18       1.0  0.07823  0.74799  0.82887  1.0000
  H   H19       1.0  0.74707  0.24962  0.97628  1.0000
  H   H20       1.0  0.25292  0.75038  0.02371  1.0000
  H   H21       1.0  0.97473  0.12507  0.83777  1.0000
  H   H22       1.0  0.02527  0.87493  0.16222  1.0000
  H   H23       1.0  0.29438  0.01249  0.87023  1.0000
  H   H24       1.0  0.70562  0.98752  0.12977  1.0000
  H   H25       1.0  0.14457  0.43317  0.94408  1.0000
  H   H26       1.0  0.85542  0.56682  0.05591  1.0000
  H   H27       1.0  0.94515  0.49743  0.88936  1.0000
  H   H28       1.0  0.05484  0.50255  0.11065  1.0000
  H   H29       1.0  0.19076  0.54506  0.87699  1.0000
  H   H30       1.0  0.80923  0.45494  0.12301  1.0000
  C   C1        1.0  0.23413  0.54747  0.59773  1.0000
  C   C2        1.0  0.76588  0.45254  0.40228  1.0000
  C   C3        1.0  0.22051  0.60443  0.51932  1.0000
  C   C4        1.0  0.77952  0.39558  0.48069  1.0000
  C   C5        1.0  0.24364  0.51875  0.42560  1.0000
  C   C6        1.0  0.75636  0.48126  0.57440  1.0000
  C   C7        1.0  0.26851  0.41341  0.45209  1.0000
  C   C8        1.0  0.73150  0.58659  0.54792  1.0000
  C   C9        1.0  0.29991  0.30102  0.38904  1.0000
  C   C10       1.0  0.70009  0.69898  0.61097  1.0000
  C   C11       1.0  0.34153  0.00936  0.38007  1.0000
  C   C12       1.0  0.65847  0.99064  0.61993  1.0000
  C   C13       1.0  0.39084  0.89826  0.32439  1.0000
  C   C14       1.0  0.60916  0.10174  0.67561  1.0000
  C   C15       1.0  0.39677  0.79390  0.35528  1.0000
  C   C16       1.0  0.60324  0.20610  0.64471  1.0000
  C   C17       1.0  0.45684  0.70888  0.27136  1.0000
  C   C18       1.0  0.54316  0.29112  0.72864  1.0000
  C   C19       1.0  0.48535  0.76549  0.19438  1.0000
  C   C20       1.0  0.51465  0.23452  0.80562  1.0000
  C   C21       1.0  0.96027  0.21630  0.09331  1.0000
  C   C22       1.0  0.03972  0.78370  0.90668  1.0000
  C   C23       1.0  0.87754  0.21195  0.99394  1.0000
  C   C24       1.0  0.12246  0.78805  0.00605  1.0000
  C   C25       1.0  0.99267  0.14737  0.92309  1.0000
  C   C26       1.0  0.00733  0.85263  0.07691  1.0000
  C   C27       1.0  0.14098  0.11615  0.98396  1.0000
  C   C28       1.0  0.85901  0.88385  0.01603  1.0000
  C   C29       1.0  0.29634  0.05157  0.95498  1.0000
  C   C30       1.0  0.70366  0.94844  0.04502  1.0000
  C   C31       1.0  0.07239  0.37640  0.78129  1.0000
  C   C32       1.0  0.92761  0.62360  0.21871  1.0000
  C   C33       1.0  0.08817  0.46790  0.87898  1.0000
  C   C34       1.0  0.91182  0.53209  0.12103  1.0000
  N   N1        1.0  0.29569  0.20334  0.42016  1.0000
  N   N2        1.0  0.70431  0.79667  0.57984  1.0000
  N   N3        1.0  0.34873  0.10668  0.34859  1.0000
  N   N4        1.0  0.65127  0.89332  0.65141  1.0000
  N   N5        1.0  0.43380  0.03514  0.02239  1.0000
  N   N6        1.0  0.56620  0.96486  0.97761  1.0000
  N   N7        1.0  0.06018  0.30304  0.70202  1.0000
  N   N8        1.0  0.93982  0.69696  0.29798  1.0000
  N   N9        1.0  0.43537  0.37097  0.12574  1.0000
  N   N10       1.0  0.56462  0.62903  0.87426  1.0000
  N   N11       1.0  0.83965  0.06241  0.35324  1.0000
  N   N12       1.0  0.16035  0.93758  0.64675  1.0000
  O   O1        1.0  0.26271  0.43159  0.55876  1.0000
  O   O2        1.0  0.73730  0.56842  0.44125  1.0000
  O   O3        1.0  0.44548  0.88044  0.22490  1.0000
  O   O4        1.0  0.55452  0.11957  0.77510  1.0000
  O   O5        1.0  0.12071  0.15909  0.08908  1.0000
  O   O6        1.0  0.87928  0.84091  0.91092  1.0000
  O   O7        1.0  0.57148  0.31961  0.16077  1.0000
  O   O8        1.0  0.42852  0.68040  0.83923  1.0000
  O   O9        1.0  0.32193  0.41941  0.18735  1.0000
  O   O10       1.0  0.67807  0.58059  0.81266  1.0000
  O   O11       1.0  0.41664  0.37290  0.03074  1.0000
  O   O12       1.0  0.58333  0.62708  0.96926  1.0000
  O   O13       1.0  0.83130  0.10708  0.45072  1.0000
  O   O14       1.0  0.16870  0.89292  0.54927  1.0000
  O   O15       1.0  0.81821  0.12503  0.28920  1.0000
  O   O16       1.0  0.18177  0.87496  0.71080  1.0000
  O   O17       1.0  0.87000  0.95414  0.32052  1.0000
  O   O18       1.0  0.12998  0.04585  0.67947  1.0000
