data_image0
_chemical_formula_structural       Si4Ag4H56C48N12O8
_chemical_formula_sum              "Si4 Ag4 H56 C48 N12 O8"
_cell_length_a       9.69538
_cell_length_b       13.2596
_cell_length_c       13.1785
_cell_angle_alpha    113.88
_cell_angle_beta     90.0047
_cell_angle_gamma    111.423

_space_group_name_H-M_alt    "P 1"
_space_group_IT_number       1

loop_
  _space_group_symop_operation_xyz
  'x, y, z'

loop_
  _atom_site_type_symbol
  _atom_site_label
  _atom_site_symmetry_multiplicity
  _atom_site_fract_x
  _atom_site_fract_y
  _atom_site_fract_z
  _atom_site_occupancy
  Si  Si1       1.0  0.63570  0.36304  0.89112  1.0000
  Si  Si2       1.0  0.27283  0.63684  0.60854  1.0000
  Si  Si3       1.0  0.36428  0.63695  0.10887  1.0000
  Si  Si4       1.0  0.72718  0.36316  0.39147  1.0000
  Ag  Ag1       1.0  0.10305  0.10095  0.60173  1.0000
  Ag  Ag2       1.0  0.00180  0.89909  0.89804  1.0000
  Ag  Ag3       1.0  0.89695  0.89905  0.39827  1.0000
  Ag  Ag4       1.0  0.99820  0.10091  0.10196  1.0000
  H   H1        1.0  0.09891  0.34944  0.72718  1.0000
  H   H2        1.0  0.74958  0.65106  0.77326  1.0000
  H   H3        1.0  0.90109  0.65056  0.27282  1.0000
  H   H4        1.0  0.25043  0.34895  0.22675  1.0000
  H   H5        1.0  0.93728  0.45195  0.82977  1.0000
  H   H6        1.0  0.48565  0.54830  0.67031  1.0000
  H   H7        1.0  0.06271  0.54805  0.17022  1.0000
  H   H8        1.0  0.51436  0.45171  0.32970  1.0000
  H   H9        1.0  0.59305  0.09872  0.74761  1.0000
  H   H10       1.0  0.49376  0.90136  0.75241  1.0000
  H   H11       1.0  0.40694  0.90128  0.25239  1.0000
  H   H12       1.0  0.50624  0.09864  0.24759  1.0000
  H   H13       1.0  0.76816  0.01203  0.64791  1.0000
  H   H14       1.0  0.75536  0.98830  0.85251  1.0000
  H   H15       1.0  0.23184  0.98796  0.35210  1.0000
  H   H16       1.0  0.24464  0.01170  0.14749  1.0000
  H   H17       1.0  0.07858  0.12779  0.85390  1.0000
  H   H18       1.0  0.95067  0.87210  0.64573  1.0000
  H   H19       1.0  0.92142  0.87221  0.14611  1.0000
  H   H20       1.0  0.04933  0.12791  0.35427  1.0000
  H   H21       1.0  0.29731  0.29216  0.84282  1.0000
  H   H22       1.0  0.00505  0.70760  0.65671  1.0000
  H   H23       1.0  0.70268  0.70783  0.15718  1.0000
  H   H24       1.0  0.99496  0.29241  0.34329  1.0000
  H   H25       1.0  0.58572  0.16231  0.95931  1.0000
  H   H26       1.0  0.42340  0.83748  0.54053  1.0000
  H   H27       1.0  0.41429  0.83768  0.04068  1.0000
  H   H28       1.0  0.57661  0.16252  0.45947  1.0000
  H   H29       1.0  0.35213  0.99689  0.95635  1.0000
  H   H30       1.0  0.35515  0.00286  0.54331  1.0000
  H   H31       1.0  0.64787  0.00311  0.04365  1.0000
  H   H32       1.0  0.64486  0.99714  0.45669  1.0000
  H   H33       1.0  0.79762  0.41647  0.06596  1.0000
  H   H34       1.0  0.38204  0.58364  0.43401  1.0000
  H   H35       1.0  0.20237  0.58352  0.93403  1.0000
  H   H36       1.0  0.61796  0.41637  0.56600  1.0000
  H   H37       1.0  0.69219  0.50814  0.09367  1.0000
  H   H38       1.0  0.18500  0.49191  0.40586  1.0000
  H   H39       1.0  0.30780  0.49186  0.90632  1.0000
  H   H40       1.0  0.81501  0.50810  0.59414  1.0000
  H   H41       1.0  0.85158  0.53710  0.02612  1.0000
  H   H42       1.0  0.31510  0.46289  0.47368  1.0000
  H   H43       1.0  0.14841  0.46289  0.97387  1.0000
  H   H44       1.0  0.68490  0.53712  0.52633  1.0000
  H   H45       1.0  0.53698  0.50975  0.88499  1.0000
  H   H46       1.0  0.02736  0.49025  0.61441  1.0000
  H   H47       1.0  0.46301  0.49025  0.11500  1.0000
  H   H48       1.0  0.97264  0.50975  0.38559  1.0000
  H   H49       1.0  0.51232  0.39578  0.74634  1.0000
  H   H50       1.0  0.11638  0.60419  0.75310  1.0000
  H   H51       1.0  0.48767  0.60423  0.25365  1.0000
  H   H52       1.0  0.88362  0.39581  0.24691  1.0000
  H   H53       1.0  0.69438  0.51086  0.81739  1.0000
  H   H54       1.0  0.18334  0.48896  0.68222  1.0000
  H   H55       1.0  0.30561  0.48913  0.18261  1.0000
  H   H56       1.0  0.81666  0.51104  0.31778  1.0000
  C   C1        1.0  0.98583  0.29802  0.73446  1.0000
  C   C2        1.0  0.68777  0.70240  0.76588  1.0000
  C   C3        1.0  0.01417  0.70198  0.26554  1.0000
  C   C4        1.0  0.31223  0.29761  0.23413  1.0000
  C   C5        1.0  0.89411  0.35387  0.79134  1.0000
  C   C6        1.0  0.54034  0.64641  0.70877  1.0000
  C   C7        1.0  0.10588  0.64613  0.20865  1.0000
  C   C8        1.0  0.45966  0.35359  0.29124  1.0000
  C   C9        1.0  0.74974  0.28420  0.80039  1.0000
  C   C10       1.0  0.46548  0.71592  0.69957  1.0000
  C   C11       1.0  0.25025  0.71579  0.19960  1.0000
  C   C12       1.0  0.53453  0.28408  0.30044  1.0000
  C   C13       1.0  0.70440  0.15904  0.74601  1.0000
  C   C14       1.0  0.54496  0.84111  0.75407  1.0000
  C   C15       1.0  0.29560  0.84096  0.25398  1.0000
  C   C16       1.0  0.45504  0.15889  0.24594  1.0000
  C   C17       1.0  0.80213  0.10926  0.69046  1.0000
  C   C18       1.0  0.69236  0.89106  0.80985  1.0000
  C   C19       1.0  0.19787  0.89074  0.30955  1.0000
  C   C20       1.0  0.30764  0.10895  0.19015  1.0000
  C   C21       1.0  0.19289  0.13733  0.87458  1.0000
  C   C22       1.0  0.05542  0.86245  0.62500  1.0000
  C   C23       1.0  0.80711  0.86266  0.12543  1.0000
  C   C24       1.0  0.94459  0.13756  0.37501  1.0000
  C   C25       1.0  0.31671  0.23017  0.86998  1.0000
  C   C26       1.0  0.08640  0.76959  0.62957  1.0000
  C   C27       1.0  0.68329  0.76982  0.13002  1.0000
  C   C28       1.0  0.91361  0.23042  0.37043  1.0000
  C   C29       1.0  0.46282  0.24229  0.89943  1.0000
  C   C30       1.0  0.22041  0.75747  0.60017  1.0000
  C   C31       1.0  0.53718  0.75770  0.10056  1.0000
  C   C32       1.0  0.77960  0.24254  0.39984  1.0000
  C   C33       1.0  0.47558  0.15773  0.93352  1.0000
  C   C34       1.0  0.31775  0.84202  0.56613  1.0000
  C   C35       1.0  0.52442  0.84227  0.06647  1.0000
  C   C36       1.0  0.68226  0.15798  0.43387  1.0000
  C   C37       1.0  0.34647  0.06544  0.93281  1.0000
  C   C38       1.0  0.28088  0.93429  0.56680  1.0000
  C   C39       1.0  0.65353  0.93455  0.06719  1.0000
  C   C40       1.0  0.71913  0.06571  0.43320  1.0000
  C   C41       1.0  0.75498  0.46570  0.03346  1.0000
  C   C42       1.0  0.28997  0.53432  0.46630  1.0000
  C   C43       1.0  0.24501  0.53429  0.96653  1.0000
  C   C44       1.0  0.71003  0.46569  0.53371  1.0000
  C   C45       1.0  0.58758  0.45153  0.82815  1.0000
  C   C46       1.0  0.13605  0.54838  0.67138  1.0000
  C   C47       1.0  0.41241  0.54847  0.17185  1.0000
  C   C48       1.0  0.86395  0.45162  0.32863  1.0000
  N   N1        1.0  0.94221  0.17771  0.68557  1.0000
  N   N2        1.0  0.76414  0.82268  0.81480  1.0000
  N   N3        1.0  0.05779  0.82229  0.31444  1.0000
  N   N4        1.0  0.23587  0.17732  0.18520  1.0000
  N   N5        1.0  0.20689  0.05484  0.90370  1.0000
  N   N6        1.0  0.15189  0.94494  0.59588  1.0000
  N   N7        1.0  0.79311  0.94516  0.09631  1.0000
  N   N8        1.0  0.84812  0.05507  0.40412  1.0000
  N   N9        1.0  0.34930  0.27388  0.53871  1.0000
  N   N10       1.0  0.07559  0.72616  0.96123  1.0000
  N   N11       1.0  0.65071  0.72612  0.46129  1.0000
  N   N12       1.0  0.92441  0.27383  0.03877  1.0000
  O   O1        1.0  0.31150  0.16068  0.50255  1.0000
  O   O2        1.0  0.15013  0.83946  0.99723  1.0000
  O   O3        1.0  0.68851  0.83933  0.49746  1.0000
  O   O4        1.0  0.84987  0.16054  0.00278  1.0000
  O   O5        1.0  0.27473  0.31785  0.60891  1.0000
  O   O6        1.0  0.95729  0.68149  0.89063  1.0000
  O   O7        1.0  0.72527  0.68215  0.39109  1.0000
  O   O8        1.0  0.04271  0.31851  0.10937  1.0000
