data_image0
_chemical_formula_structural       Cu4P4H36C12O16
_chemical_formula_sum              "Cu4 P4 H36 C12 O16"
_cell_length_a       7.4381
_cell_length_b       7.51388
_cell_length_c       11.7995
_cell_angle_alpha    90.0006
_cell_angle_beta     99.2511
_cell_angle_gamma    90.0001

_space_group_name_H-M_alt    "P 1"
_space_group_IT_number       1

loop_
  _space_group_symop_operation_xyz
  'x, y, z'

loop_
  _atom_site_type_symbol
  _atom_site_label
  _atom_site_symmetry_multiplicity
  _atom_site_fract_x
  _atom_site_fract_y
  _atom_site_fract_z
  _atom_site_occupancy
  Cu  Cu1       1.0  0.43931  0.18932  0.03545  1.0000
  Cu  Cu2       1.0  0.06068  0.68931  0.96454  1.0000
  Cu  Cu3       1.0  0.56067  0.81069  0.96455  1.0000
  Cu  Cu4       1.0  0.93932  0.31069  0.03546  1.0000
  P   P1        1.0  0.11410  0.05226  0.86386  1.0000
  P   P2        1.0  0.38592  0.55227  0.13615  1.0000
  P   P3        1.0  0.88590  0.94774  0.13614  1.0000
  P   P4        1.0  0.61408  0.44772  0.86385  1.0000
  H   H1        1.0  0.02524  0.13434  0.66757  1.0000
  H   H2        1.0  0.47476  0.63433  0.33243  1.0000
  H   H3        1.0  0.97477  0.86567  0.33243  1.0000
  H   H4        1.0  0.52524  0.36567  0.66757  1.0000
  H   H5        1.0  0.10981  0.81494  0.65329  1.0000
  H   H6        1.0  0.39019  0.31495  0.34671  1.0000
  H   H7        1.0  0.89019  0.18505  0.34671  1.0000
  H   H8        1.0  0.60982  0.68506  0.65330  1.0000
  H   H9        1.0  0.33430  0.85876  0.72052  1.0000
  H   H10       1.0  0.16570  0.35876  0.27948  1.0000
  H   H11       1.0  0.66570  0.14124  0.27948  1.0000
  H   H12       1.0  0.83430  0.64123  0.72053  1.0000
  H   H13       1.0  0.25443  0.19049  0.72192  1.0000
  H   H14       1.0  0.24557  0.69048  0.27808  1.0000
  H   H15       1.0  0.74558  0.80952  0.27808  1.0000
  H   H16       1.0  0.75443  0.30951  0.72193  1.0000
  H   H17       1.0  0.16384  0.01471  0.48620  1.0000
  H   H18       1.0  0.33615  0.51471  0.51380  1.0000
  H   H19       1.0  0.83615  0.98529  0.51380  1.0000
  H   H20       1.0  0.66385  0.48529  0.48620  1.0000
  H   H21       1.0  0.38818  0.05494  0.55810  1.0000
  H   H22       1.0  0.11182  0.55494  0.44189  1.0000
  H   H23       1.0  0.61183  0.94506  0.44190  1.0000
  H   H24       1.0  0.88819  0.44506  0.55811  1.0000
  H   H25       1.0  0.32415  0.83773  0.50850  1.0000
  H   H26       1.0  0.17584  0.33774  0.49149  1.0000
  H   H27       1.0  0.67585  0.16226  0.49149  1.0000
  H   H28       1.0  0.82417  0.66226  0.50852  1.0000
  H   H29       1.0  0.39933  0.93242  0.15108  1.0000
  H   H30       1.0  0.10067  0.43241  0.84892  1.0000
  H   H31       1.0  0.60066  0.06758  0.84892  1.0000
  H   H32       1.0  0.89933  0.56758  0.15108  1.0000
  H   H33       1.0  0.23593  0.06868  0.16106  1.0000
  H   H34       1.0  0.26407  0.56867  0.83894  1.0000
  H   H35       1.0  0.76406  0.93132  0.83894  1.0000
  H   H36       1.0  0.73593  0.43133  0.16106  1.0000
  C   C1        1.0  0.21810  0.91608  0.66286  1.0000
  C   C2        1.0  0.28190  0.41607  0.33714  1.0000
  C   C3        1.0  0.78190  0.08392  0.33714  1.0000
  C   C4        1.0  0.71810  0.58392  0.66286  1.0000
  C   C5        1.0  0.27623  0.95787  0.54749  1.0000
  C   C6        1.0  0.22376  0.45787  0.45250  1.0000
  C   C7        1.0  0.72377  0.04213  0.45250  1.0000
  C   C8        1.0  0.77624  0.54213  0.54750  1.0000
  C   C9        1.0  0.15231  0.08345  0.71790  1.0000
  C   C10       1.0  0.34768  0.58345  0.28210  1.0000
  C   C11       1.0  0.84770  0.91656  0.28210  1.0000
  C   C12       1.0  0.65231  0.41655  0.71790  1.0000
  O   O1        1.0  0.37304  0.05824  0.17093  1.0000
  O   O2        1.0  0.12696  0.55823  0.82907  1.0000
  O   O3        1.0  0.62696  0.94177  0.82907  1.0000
  O   O4        1.0  0.87304  0.44177  0.17094  1.0000
  O   O5        1.0  0.29666  0.00503  0.94055  1.0000
  O   O6        1.0  0.20335  0.50503  0.05945  1.0000
  O   O7        1.0  0.70334  0.99497  0.05945  1.0000
  O   O8        1.0  0.79665  0.49496  0.94055  1.0000
  O   O9        1.0  0.02971  0.23003  0.89611  1.0000
  O   O10       1.0  0.47029  0.73004  0.10389  1.0000
  O   O11       1.0  0.97030  0.76997  0.10390  1.0000
  O   O12       1.0  0.52971  0.26996  0.89610  1.0000
  O   O13       1.0  0.97915  0.89528  0.86767  1.0000
  O   O14       1.0  0.52085  0.39528  0.13232  1.0000
  O   O15       1.0  0.02085  0.10472  0.13232  1.0000
  O   O16       1.0  0.47915  0.60472  0.86768  1.0000
