data_image0
_chemical_formula_structural       Ag2H24C14S2N2O6
_chemical_formula_sum              "Ag2 H24 C14 S2 N2 O6"
_cell_length_a       4.7649
_cell_length_b       8.37046
_cell_length_c       13.8724
_cell_angle_alpha    83.9191
_cell_angle_beta     80.1161
_cell_angle_gamma    73.5322

_space_group_name_H-M_alt    "P 1"
_space_group_IT_number       1

loop_
  _space_group_symop_operation_xyz
  'x, y, z'

loop_
  _atom_site_type_symbol
  _atom_site_label
  _atom_site_symmetry_multiplicity
  _atom_site_fract_x
  _atom_site_fract_y
  _atom_site_fract_z
  _atom_site_occupancy
  Ag  Ag1       1.0  0.11737  0.64136  0.43164  1.0000
  Ag  Ag2       1.0  0.18677  0.35778  0.56883  1.0000
  H   H1        1.0  0.73376  0.23726  0.30878  1.0000
  H   H2        1.0  0.28321  0.76146  0.69161  1.0000
  H   H3        1.0  0.96201  0.98112  0.39629  1.0000
  H   H4        1.0  0.33971  0.01832  0.60356  1.0000
  H   H5        1.0  0.01606  0.94617  0.26949  1.0000
  H   H6        1.0  0.23340  0.05312  0.73029  1.0000
  H   H7        1.0  0.47005  0.98853  0.39072  1.0000
  H   H8        1.0  0.84818  0.01413  0.60780  1.0000
  H   H9        1.0  0.53958  0.99108  0.26016  1.0000
  H   H10       1.0  0.79358  0.00969  0.73839  1.0000
  H   H11       1.0  0.33537  0.73699  0.18970  1.0000
  H   H12       1.0  0.26987  0.25485  0.81164  1.0000
  H   H13       1.0  0.56055  0.53472  0.21907  1.0000
  H   H14       1.0  0.29818  0.46222  0.78170  1.0000
  H   H15       1.0  0.73178  0.69598  0.16507  1.0000
  H   H16       1.0  0.58985  0.30974  0.83482  1.0000
  H   H17       1.0  0.07843  0.18636  0.97349  1.0000
  H   H18       1.0  0.24576  0.81580  0.02609  1.0000
  H   H19       1.0  0.31533  0.28157  0.02094  1.0000
  H   H20       1.0  0.62343  0.71817  0.97851  1.0000
  H   H21       1.0  0.95850  0.40223  0.99355  1.0000
  H   H22       1.0  0.35640  0.59939  0.00731  1.0000
  H   H23       1.0  0.29409  0.25717  0.18217  1.0000
  H   H24       1.0  0.73680  0.74405  0.81757  1.0000
  C   C1        1.0  0.07263  0.29573  0.36982  1.0000
  C   C2        1.0  0.74095  0.70439  0.63037  1.0000
  C   C3        1.0  0.97742  0.19889  0.29887  1.0000
  C   C4        1.0  0.47789  0.80093  0.70118  1.0000
  C   C5        1.0  0.08045  0.00961  0.32415  1.0000
  C   C6        1.0  0.41549  0.99008  0.67551  1.0000
  C   C7        1.0  0.41212  0.94680  0.32616  1.0000
  C   C8        1.0  0.68546  0.05424  0.67292  1.0000
  C   C9        1.0  0.54443  0.66829  0.21509  1.0000
  C   C10       1.0  0.42434  0.33069  0.78552  1.0000
  C   C11       1.0  0.93739  0.24055  0.12344  1.0000
  C   C12       1.0  0.30554  0.75915  0.87667  1.0000
  C   C13       1.0  0.08540  0.28029  0.02193  1.0000
  C   C14       1.0  0.39243  0.72048  0.97810  1.0000
  S   S1        1.0  0.54833  0.72100  0.33766  1.0000
  S   S2        1.0  0.60374  0.28039  0.66259  1.0000
  N   N1        1.0  0.08488  0.24088  0.19771  1.0000
  N   N2        1.0  0.52666  0.76015  0.80230  1.0000
  O   O1        1.0  0.21387  0.40075  0.33492  1.0000
  O   O2        1.0  0.95168  0.59945  0.66543  1.0000
  O   O3        1.0  0.99932  0.25763  0.46033  1.0000
  O   O4        1.0  0.72067  0.74234  0.53985  1.0000
  O   O5        1.0  0.69012  0.21018  0.13551  1.0000
  O   O6        1.0  0.04023  0.78783  0.86479  1.0000
