data_image0
_chemical_formula_structural       Ag4H32C16S4N4O8
_chemical_formula_sum              "Ag4 H32 C16 S4 N4 O8"
_cell_length_a       4.99105
_cell_length_b       5.68608
_cell_length_c       23.3338
_cell_angle_alpha    89.9907
_cell_angle_beta     89.9976
_cell_angle_gamma    90.003

_space_group_name_H-M_alt    "P 1"
_space_group_IT_number       1

loop_
  _space_group_symop_operation_xyz
  'x, y, z'

loop_
  _atom_site_type_symbol
  _atom_site_label
  _atom_site_symmetry_multiplicity
  _atom_site_fract_x
  _atom_site_fract_y
  _atom_site_fract_z
  _atom_site_occupancy
  Ag  Ag1       1.0  0.42139  0.64936  0.83327  1.0000
  Ag  Ag2       1.0  0.07861  0.35060  0.33327  1.0000
  Ag  Ag3       1.0  0.57866  0.14936  0.66673  1.0000
  Ag  Ag4       1.0  0.92138  0.85067  0.16675  1.0000
  H   H1        1.0  0.02082  0.37343  0.85448  1.0000
  H   H2        1.0  0.47918  0.62653  0.35449  1.0000
  H   H3        1.0  0.97925  0.87343  0.64551  1.0000
  H   H4        1.0  0.52083  0.12659  0.14552  1.0000
  H   H5        1.0  0.83730  0.09906  0.93071  1.0000
  H   H6        1.0  0.66263  0.90088  0.43068  1.0000
  H   H7        1.0  0.16269  0.59910  0.56932  1.0000
  H   H8        1.0  0.33738  0.40096  0.06930  1.0000
  H   H9        1.0  0.52391  0.09508  0.89310  1.0000
  H   H10       1.0  0.97603  0.90494  0.39306  1.0000
  H   H11       1.0  0.47610  0.59513  0.60692  1.0000
  H   H12       1.0  0.02397  0.40492  0.10691  1.0000
  H   H13       1.0  0.84947  0.71469  0.99564  1.0000
  H   H14       1.0  0.65039  0.28525  0.49565  1.0000
  H   H15       1.0  0.15043  0.21474  0.50434  1.0000
  H   H16       1.0  0.34945  0.78530  0.00437  1.0000
  H   H17       1.0  0.01441  0.65077  0.92954  1.0000
  H   H18       1.0  0.48557  0.34930  0.42954  1.0000
  H   H19       1.0  0.98560  0.15066  0.57046  1.0000
  H   H20       1.0  0.51436  0.84928  0.07048  1.0000
  H   H21       1.0  0.01269  0.43719  0.98672  1.0000
  H   H22       1.0  0.48725  0.56281  0.48670  1.0000
  H   H23       1.0  0.98726  0.93716  0.51329  1.0000
  H   H24       1.0  0.51273  0.06282  0.01329  1.0000
  H   H25       1.0  0.56578  0.23694  0.78374  1.0000
  H   H26       1.0  0.93423  0.76307  0.28373  1.0000
  H   H27       1.0  0.43423  0.73691  0.71627  1.0000
  H   H28       1.0  0.06579  0.26308  0.21627  1.0000
  H   H29       1.0  0.80182  0.42967  0.77166  1.0000
  H   H30       1.0  0.69818  0.57035  0.27167  1.0000
  H   H31       1.0  0.19820  0.92962  0.72833  1.0000
  H   H32       1.0  0.30181  0.07037  0.22835  1.0000
  C   C1        1.0  0.97398  0.02058  0.82360  1.0000
  C   C2        1.0  0.52602  0.97941  0.32358  1.0000
  C   C3        1.0  0.02604  0.52055  0.67641  1.0000
  C   C4        1.0  0.47402  0.47943  0.17640  1.0000
  C   C5        1.0  0.85224  0.25275  0.84598  1.0000
  C   C6        1.0  0.64774  0.74721  0.34596  1.0000
  C   C7        1.0  0.14780  0.75275  0.65403  1.0000
  C   C8        1.0  0.35227  0.24727  0.15403  1.0000
  C   C9        1.0  0.70483  0.19909  0.90213  1.0000
  C   C10       1.0  0.79515  0.80088  0.40211  1.0000
  C   C11       1.0  0.29521  0.69914  0.59788  1.0000
  C   C12       1.0  0.20488  0.30092  0.09788  1.0000
  C   C13       1.0  0.89771  0.57526  0.96489  1.0000
  C   C14       1.0  0.60226  0.42472  0.46489  1.0000
  C   C15       1.0  0.10227  0.07526  0.53510  1.0000
  C   C16       1.0  0.39771  0.92476  0.03512  1.0000
  S   S1        1.0  0.58458  0.45313  0.94078  1.0000
  S   S2        1.0  0.91541  0.54686  0.44078  1.0000
  S   S3        1.0  0.41544  0.95317  0.55920  1.0000
  S   S4        1.0  0.08460  0.04690  0.05922  1.0000
  N   N1        1.0  0.67812  0.36527  0.80325  1.0000
  N   N2        1.0  0.82190  0.63471  0.30325  1.0000
  N   N3        1.0  0.32192  0.86525  0.69675  1.0000
  N   N4        1.0  0.17813  0.13476  0.19676  1.0000
  O   O1        1.0  0.86788  0.91713  0.78194  1.0000
  O   O2        1.0  0.63210  0.08290  0.28192  1.0000
  O   O3        1.0  0.13206  0.41706  0.71808  1.0000
  O   O4        1.0  0.36792  0.58289  0.21807  1.0000
  O   O5        1.0  0.18018  0.95222  0.85228  1.0000
  O   O6        1.0  0.31981  0.04773  0.35226  1.0000
  O   O7        1.0  0.81985  0.45222  0.64772  1.0000
  O   O8        1.0  0.68024  0.54778  0.14772  1.0000
