data_image0
_chemical_formula_structural       Ag4H40C20S4N4O8
_chemical_formula_sum              "Ag4 H40 C20 S4 N4 O8"
_cell_length_a       7.71862
_cell_length_b       11.0292
_cell_length_c       8.98482
_cell_angle_alpha    93.865
_cell_angle_beta     89.9992
_cell_angle_gamma    89.9986

_space_group_name_H-M_alt    "P 1"
_space_group_IT_number       1

loop_
  _space_group_symop_operation_xyz
  'x, y, z'

loop_
  _atom_site_type_symbol
  _atom_site_label
  _atom_site_symmetry_multiplicity
  _atom_site_fract_x
  _atom_site_fract_y
  _atom_site_fract_z
  _atom_site_occupancy
  Ag  Ag1       1.0  0.20873  0.10018  0.39249  1.0000
  Ag  Ag2       1.0  0.70872  0.39982  0.60752  1.0000
  Ag  Ag3       1.0  0.79126  0.89982  0.60752  1.0000
  Ag  Ag4       1.0  0.29128  0.60019  0.39247  1.0000
  H   H1        1.0  0.11580  0.25781  0.80585  1.0000
  H   H2        1.0  0.61584  0.24219  0.19415  1.0000
  H   H3        1.0  0.88420  0.74219  0.19415  1.0000
  H   H4        1.0  0.38417  0.75781  0.80585  1.0000
  H   H5        1.0  0.68354  0.16082  0.97783  1.0000
  H   H6        1.0  0.18355  0.33917  0.02218  1.0000
  H   H7        1.0  0.31643  0.83920  0.02216  1.0000
  H   H8        1.0  0.81644  0.66080  0.97785  1.0000
  H   H9        1.0  0.87254  0.07333  0.93261  1.0000
  H   H10       1.0  0.37254  0.42667  0.06739  1.0000
  H   H11       1.0  0.12744  0.92670  0.06741  1.0000
  H   H12       1.0  0.62746  0.57330  0.93261  1.0000
  H   H13       1.0  0.78815  0.17316  0.79993  1.0000
  H   H14       1.0  0.28816  0.32684  0.20008  1.0000
  H   H15       1.0  0.21183  0.82685  0.20006  1.0000
  H   H16       1.0  0.71184  0.67316  0.79996  1.0000
  H   H17       1.0  0.39923  0.00026  0.63411  1.0000
  H   H18       1.0  0.89923  0.49973  0.36589  1.0000
  H   H19       1.0  0.60076  0.99973  0.36589  1.0000
  H   H20       1.0  0.10078  0.50027  0.63410  1.0000
  H   H21       1.0  0.53373  0.13092  0.63640  1.0000
  H   H22       1.0  0.03374  0.36907  0.36358  1.0000
  H   H23       1.0  0.46627  0.86907  0.36359  1.0000
  H   H24       1.0  0.96626  0.63093  0.63641  1.0000
  H   H25       1.0  0.26464  0.07230  0.87616  1.0000
  H   H26       1.0  0.76465  0.42769  0.12383  1.0000
  H   H27       1.0  0.73535  0.92769  0.12383  1.0000
  H   H28       1.0  0.23536  0.57230  0.87615  1.0000
  H   H29       1.0  0.40179  0.20238  0.88861  1.0000
  H   H30       1.0  0.90181  0.29762  0.11138  1.0000
  H   H31       1.0  0.59822  0.79762  0.11139  1.0000
  H   H32       1.0  0.09820  0.70237  0.88862  1.0000
  H   H33       1.0  0.08889  0.04308  0.66287  1.0000
  H   H34       1.0  0.58890  0.45691  0.33714  1.0000
  H   H35       1.0  0.91110  0.95692  0.33714  1.0000
  H   H36       1.0  0.41109  0.54309  0.66285  1.0000
  H   H37       1.0  0.98144  0.15968  0.59646  1.0000
  H   H38       1.0  0.48146  0.34031  0.40354  1.0000
  H   H39       1.0  0.01856  0.84032  0.40354  1.0000
  H   H40       1.0  0.51855  0.65969  0.59647  1.0000
  C   C1        1.0  0.29686  0.31118  0.64395  1.0000
  C   C2        1.0  0.79690  0.18882  0.35605  1.0000
  C   C3        1.0  0.70313  0.68882  0.35604  1.0000
  C   C4        1.0  0.20312  0.81119  0.64394  1.0000
  C   C5        1.0  0.20275  0.20973  0.72356  1.0000
  C   C6        1.0  0.70277  0.29026  0.27643  1.0000
  C   C7        1.0  0.79725  0.79026  0.27643  1.0000
  C   C8        1.0  0.29724  0.70974  0.72357  1.0000
  C   C9        1.0  0.75484  0.11211  0.88696  1.0000
  C   C10       1.0  0.25485  0.38789  0.11305  1.0000
  C   C11       1.0  0.24514  0.88790  0.11304  1.0000
  C   C12       1.0  0.74515  0.61210  0.88697  1.0000
  C   C13       1.0  0.46331  0.07014  0.70741  1.0000
  C   C14       1.0  0.96332  0.42986  0.29258  1.0000
  C   C15       1.0  0.53669  0.92986  0.29259  1.0000
  C   C16       1.0  0.03668  0.57014  0.70741  1.0000
  C   C17       1.0  0.33407  0.13766  0.81091  1.0000
  C   C18       1.0  0.83408  0.36233  0.18908  1.0000
  C   C19       1.0  0.66593  0.86233  0.18908  1.0000
  C   C20       1.0  0.16593  0.63766  0.81092  1.0000
  S   S1        1.0  0.62458  0.98749  0.80800  1.0000
  S   S2        1.0  0.12459  0.51251  0.19200  1.0000
  S   S3        1.0  0.37542  0.01252  0.19200  1.0000
  S   S4        1.0  0.87542  0.48749  0.80800  1.0000
  N   N1        1.0  0.10302  0.12756  0.62080  1.0000
  N   N2        1.0  0.60303  0.37243  0.37921  1.0000
  N   N3        1.0  0.89698  0.87243  0.37920  1.0000
  N   N4        1.0  0.39698  0.62758  0.62079  1.0000
  O   O1        1.0  0.27237  0.31804  0.50470  1.0000
  O   O2        1.0  0.77241  0.18196  0.49529  1.0000
  O   O3        1.0  0.72764  0.68195  0.49529  1.0000
  O   O4        1.0  0.22763  0.81807  0.50473  1.0000
  O   O5        1.0  0.39219  0.38162  0.72659  1.0000
  O   O6        1.0  0.89222  0.11837  0.27339  1.0000
  O   O7        1.0  0.60780  0.61839  0.27341  1.0000
  O   O8        1.0  0.10776  0.88162  0.72661  1.0000
