data_image0
_chemical_formula_structural       Mn2H24C38N24
_chemical_formula_sum              "Mn2 H24 C38 N24"
_cell_length_a       7.47911
_cell_length_b       12.1715
_cell_length_c       12.6166
_cell_angle_alpha    65.2783
_cell_angle_beta     82.8241
_cell_angle_gamma    88.208

_space_group_name_H-M_alt    "P 1"
_space_group_IT_number       1

loop_
  _space_group_symop_operation_xyz
  'x, y, z'

loop_
  _atom_site_type_symbol
  _atom_site_label
  _atom_site_symmetry_multiplicity
  _atom_site_fract_x
  _atom_site_fract_y
  _atom_site_fract_z
  _atom_site_occupancy
  Mn  Mn1       1.0  1.00000  0.00000  1.00000  1.0000
  Mn  Mn2       1.0  0.00000  0.50000  0.00000  1.0000
  H   H1        1.0  0.03910  0.27542  0.90138  1.0000
  H   H2        1.0  0.96089  0.72458  0.09862  1.0000
  H   H3        1.0  0.03381  0.45908  0.71249  1.0000
  H   H4        1.0  0.96619  0.54092  0.28751  1.0000
  H   H5        1.0  0.01679  0.22039  0.53883  1.0000
  H   H6        1.0  0.98321  0.77961  0.46117  1.0000
  H   H7        1.0  0.02339  0.04561  0.73612  1.0000
  H   H8        1.0  0.97661  0.95439  0.26388  1.0000
  H   H9        1.0  0.29808  0.90768  0.68241  1.0000
  H   H10       1.0  0.70193  0.09232  0.31758  1.0000
  H   H11       1.0  0.26272  0.71460  0.86630  1.0000
  H   H12       1.0  0.73729  0.28540  0.13370  1.0000
  H   H13       1.0  0.75674  0.84487  0.63081  1.0000
  H   H14       1.0  0.24326  0.15512  0.36920  1.0000
  H   H15       1.0  0.73900  0.66030  0.82173  1.0000
  H   H16       1.0  0.26101  0.33971  0.17828  1.0000
  H   H17       1.0  0.49369  0.89575  0.20430  1.0000
  H   H18       1.0  0.50631  0.10425  0.79569  1.0000
  H   H19       1.0  0.47975  0.66900  0.29263  1.0000
  H   H20       1.0  0.52026  0.33101  0.70736  1.0000
  H   H21       1.0  0.47609  0.67424  0.63249  1.0000
  H   H22       1.0  0.52390  0.32576  0.36751  1.0000
  H   H23       1.0  0.49655  0.90158  0.52973  1.0000
  H   H24       1.0  0.50343  0.09842  0.47026  1.0000
  C   C1        1.0  0.62419  0.12191  0.05558  1.0000
  C   C2        1.0  0.37580  0.87809  0.94442  1.0000
  C   C3        1.0  0.31811  0.12756  0.06587  1.0000
  C   C4        1.0  0.68189  0.87245  0.93414  1.0000
  C   C5        1.0  0.03302  0.26718  0.81929  1.0000
  C   C6        1.0  0.96698  0.73282  0.18071  1.0000
  C   C7        1.0  0.02815  0.36897  0.71476  1.0000
  C   C8        1.0  0.97184  0.63103  0.28524  1.0000
  C   C9        1.0  0.02017  0.35341  0.61120  1.0000
  C   C10       1.0  0.97983  0.64659  0.38880  1.0000
  C   C11       1.0  0.01950  0.23546  0.61784  1.0000
  C   C12       1.0  0.98050  0.76454  0.38216  1.0000
  C   C13       1.0  0.02446  0.13868  0.72652  1.0000
  C   C14       1.0  0.97554  0.86132  0.27348  1.0000
  C   C15       1.0  0.62813  0.55369  0.12883  1.0000
  C   C16       1.0  0.37185  0.44630  0.87119  1.0000
  C   C17       1.0  0.32783  0.56405  0.11376  1.0000
  C   C18       1.0  0.67217  0.43594  0.88625  1.0000
  C   C19       1.0  0.17566  0.85142  0.70765  1.0000
  C   C20       1.0  0.82434  0.14857  0.29235  1.0000
  C   C21       1.0  0.15496  0.74620  0.81070  1.0000
  C   C22       1.0  0.84504  0.25380  0.18930  1.0000
  C   C23       1.0  0.03288  0.88662  0.63886  1.0000
  C   C24       1.0  0.96712  0.11338  0.36114  1.0000
  C   C25       1.0  0.87212  0.81654  0.67977  1.0000
  C   C26       1.0  0.12789  0.18345  0.32024  1.0000
  C   C27       1.0  0.86249  0.71508  0.78534  1.0000
  C   C28       1.0  0.13752  0.28492  0.21466  1.0000
  C   C29       1.0  0.49170  0.84417  0.29910  1.0000
  C   C30       1.0  0.50829  0.15583  0.70089  1.0000
  C   C31       1.0  0.48521  0.71827  0.34712  1.0000
  C   C32       1.0  0.51479  0.28173  0.65287  1.0000
  C   C33       1.0  0.48167  0.65552  0.46936  1.0000
  C   C34       1.0  0.51832  0.34449  0.53063  1.0000
  C   C35       1.0  0.48181  0.72166  0.53721  1.0000
  C   C36       1.0  0.51818  0.27834  0.46278  1.0000
  C   C37       1.0  0.49232  0.84752  0.47939  1.0000
  C   C38       1.0  0.50767  0.15248  0.52060  1.0000
  N   N1        1.0  0.76907  0.08313  0.04736  1.0000
  N   N2        1.0  0.23093  0.91688  0.95263  1.0000
  N   N3        1.0  0.47253  0.17254  0.06640  1.0000
  N   N4        1.0  0.52747  0.82746  0.93360  1.0000
  N   N5        1.0  0.17196  0.09341  0.06630  1.0000
  N   N6        1.0  0.82803  0.90660  0.93370  1.0000
  N   N7        1.0  0.03270  0.15360  0.82579  1.0000
  N   N8        1.0  0.96730  0.84640  0.17422  1.0000
  N   N9        1.0  0.01903  0.44904  0.49894  1.0000
  N   N10       1.0  0.98097  0.55096  0.50106  1.0000
  N   N11       1.0  0.78279  0.54941  0.09837  1.0000
  N   N12       1.0  0.21722  0.45058  0.90164  1.0000
  N   N13       1.0  0.46239  0.55705  0.17100  1.0000
  N   N14       1.0  0.53761  0.44294  0.82901  1.0000
  N   N15       1.0  0.19628  0.56884  0.06935  1.0000
  N   N16       1.0  0.80372  0.43116  0.93066  1.0000
  N   N17       1.0  0.00106  0.67911  0.85042  1.0000
  N   N18       1.0  0.99894  0.32090  0.14958  1.0000
  N   N19       1.0  0.05781  0.99358  0.53539  1.0000
  N   N20       1.0  0.94220  0.00641  0.46461  1.0000
  N   N21       1.0  0.49688  0.90943  0.36255  1.0000
  N   N22       1.0  0.50311  0.09058  0.63744  1.0000
  N   N23       1.0  0.47090  0.52772  0.53099  1.0000
  N   N24       1.0  0.52911  0.47229  0.46899  1.0000
