data_image0
_chemical_formula_structural       Cd4H40C64N32
_chemical_formula_sum              "Cd4 H40 C64 N32"
_cell_length_a       9.16483
_cell_length_b       12.5284
_cell_length_c       14.5889
_cell_angle_alpha    90.0001
_cell_angle_beta     90.0002
_cell_angle_gamma    90.0002

_space_group_name_H-M_alt    "P 1"
_space_group_IT_number       1

loop_
  _space_group_symop_operation_xyz
  'x, y, z'

loop_
  _atom_site_type_symbol
  _atom_site_label
  _atom_site_symmetry_multiplicity
  _atom_site_fract_x
  _atom_site_fract_y
  _atom_site_fract_z
  _atom_site_occupancy
  Cd  Cd1       1.0  0.87960  0.32673  0.18539  1.0000
  Cd  Cd2       1.0  0.62040  0.67328  0.68539  1.0000
  Cd  Cd3       1.0  0.12040  0.82673  0.31461  1.0000
  Cd  Cd4       1.0  0.37960  0.17328  0.81462  1.0000
  H   H1        1.0  0.01385  0.21985  0.35523  1.0000
  H   H2        1.0  0.48615  0.78015  0.85523  1.0000
  H   H3        1.0  0.98615  0.71985  0.14477  1.0000
  H   H4        1.0  0.51385  0.28015  0.64477  1.0000
  H   H5        1.0  0.06713  0.01661  0.59473  1.0000
  H   H6        1.0  0.43287  0.98339  0.09473  1.0000
  H   H7        1.0  0.93287  0.51661  0.90527  1.0000
  H   H8        1.0  0.56713  0.48339  0.40527  1.0000
  H   H9        1.0  0.61492  0.21037  0.50602  1.0000
  H   H10       1.0  0.88508  0.78963  0.00601  1.0000
  H   H11       1.0  0.38508  0.71037  0.99399  1.0000
  H   H12       1.0  0.11492  0.28963  0.49399  1.0000
  H   H13       1.0  0.03189  0.07403  0.43376  1.0000
  H   H14       1.0  0.46811  0.92598  0.93376  1.0000
  H   H15       1.0  0.96811  0.57402  0.06624  1.0000
  H   H16       1.0  0.53189  0.42597  0.56624  1.0000
  H   H17       1.0  0.87563  0.05405  0.71148  1.0000
  H   H18       1.0  0.62437  0.94594  0.21148  1.0000
  H   H19       1.0  0.12437  0.55405  0.78852  1.0000
  H   H20       1.0  0.37563  0.44594  0.28852  1.0000
  H   H21       1.0  0.55999  0.06929  0.40173  1.0000
  H   H22       1.0  0.94001  0.93071  0.90173  1.0000
  H   H23       1.0  0.44001  0.56929  0.09827  1.0000
  H   H24       1.0  0.05999  0.43071  0.59827  1.0000
  H   H25       1.0  0.31695  0.18290  0.16799  1.0000
  H   H26       1.0  0.18305  0.81710  0.66799  1.0000
  H   H27       1.0  0.68305  0.68290  0.33201  1.0000
  H   H28       1.0  0.81695  0.31710  0.83201  1.0000
  H   H29       1.0  0.53544  0.29593  0.12734  1.0000
  H   H30       1.0  0.96456  0.70408  0.62734  1.0000
  H   H31       1.0  0.46456  0.79593  0.37266  1.0000
  H   H32       1.0  0.03545  0.20407  0.87266  1.0000
  H   H33       1.0  0.33202  0.06580  0.30678  1.0000
  H   H34       1.0  0.16799  0.93420  0.80678  1.0000
  H   H35       1.0  0.66798  0.56580  0.19322  1.0000
  H   H36       1.0  0.83202  0.43420  0.69322  1.0000
  H   H37       1.0  0.65155  0.14816  0.66795  1.0000
  H   H38       1.0  0.84845  0.85184  0.16795  1.0000
  H   H39       1.0  0.34845  0.64816  0.83205  1.0000
  H   H40       1.0  0.15154  0.35183  0.33205  1.0000
  C   C1        1.0  0.96909  0.06031  0.57545  1.0000
  C   C2        1.0  0.53090  0.93969  0.07544  1.0000
  C   C3        1.0  0.03091  0.56031  0.92456  1.0000
  C   C4        1.0  0.46909  0.43969  0.42455  1.0000
  C   C5        1.0  0.71420  0.16810  0.52550  1.0000
  C   C6        1.0  0.78580  0.83190  0.02550  1.0000
  C   C7        1.0  0.28580  0.66810  0.97451  1.0000
  C   C8        1.0  0.21419  0.33190  0.47451  1.0000
  C   C9        1.0  0.82227  0.14840  0.45922  1.0000
  C   C10       1.0  0.67773  0.85160  0.95922  1.0000
  C   C11       1.0  0.17773  0.64840  0.04078  1.0000
  C   C12       1.0  0.32227  0.35160  0.54078  1.0000
  C   C13       1.0  0.94996  0.09397  0.48526  1.0000
  C   C14       1.0  0.55003  0.90603  0.98526  1.0000
  C   C15       1.0  0.05004  0.59397  0.01474  1.0000
  C   C16       1.0  0.44996  0.40603  0.51474  1.0000
  C   C17       1.0  0.86155  0.08070  0.64090  1.0000
  C   C18       1.0  0.63845  0.91930  0.14090  1.0000
  C   C19       1.0  0.13845  0.58070  0.85910  1.0000
  C   C20       1.0  0.36155  0.41929  0.35910  1.0000
  C   C21       1.0  0.66481  0.18623  0.31494  1.0000
  C   C22       1.0  0.83519  0.81378  0.81494  1.0000
  C   C23       1.0  0.33519  0.68623  0.18506  1.0000
  C   C24       1.0  0.16481  0.31377  0.68506  1.0000
  C   C25       1.0  0.54920  0.12042  0.34184  1.0000
  C   C26       1.0  0.95080  0.87958  0.84184  1.0000
  C   C27       1.0  0.45080  0.62042  0.15816  1.0000
  C   C28       1.0  0.04920  0.37958  0.65815  1.0000
  C   C29       1.0  0.41452  0.18183  0.21061  1.0000
  C   C30       1.0  0.08548  0.81817  0.71061  1.0000
  C   C31       1.0  0.58548  0.68184  0.28939  1.0000
  C   C32       1.0  0.91452  0.31816  0.78939  1.0000
  C   C33       1.0  0.53489  0.24504  0.18799  1.0000
  C   C34       1.0  0.96511  0.75496  0.68799  1.0000
  C   C35       1.0  0.46511  0.74504  0.31201  1.0000
  C   C36       1.0  0.03489  0.25496  0.81201  1.0000
  C   C37       1.0  0.80843  0.18727  0.36374  1.0000
  C   C38       1.0  0.69157  0.81273  0.86374  1.0000
  C   C39       1.0  0.19157  0.68727  0.13626  1.0000
  C   C40       1.0  0.30843  0.31273  0.63626  1.0000
  C   C41       1.0  0.42246  0.11818  0.28860  1.0000
  C   C42       1.0  0.07754  0.88182  0.78860  1.0000
  C   C43       1.0  0.57754  0.61818  0.21140  1.0000
  C   C44       1.0  0.92246  0.38182  0.71140  1.0000
  C   C45       1.0  0.85957  0.14578  0.01789  1.0000
  C   C46       1.0  0.64044  0.85422  0.51788  1.0000
  C   C47       1.0  0.14043  0.64578  0.48212  1.0000
  C   C48       1.0  0.35957  0.35422  0.98213  1.0000
  C   C49       1.0  0.71013  0.11327  0.89383  1.0000
  C   C50       1.0  0.78987  0.88674  0.39382  1.0000
  C   C51       1.0  0.28987  0.61326  0.60617  1.0000
  C   C52       1.0  0.21013  0.38674  0.10618  1.0000
  C   C53       1.0  0.86233  0.47749  0.36821  1.0000
  C   C54       1.0  0.63767  0.52251  0.86821  1.0000
  C   C55       1.0  0.13767  0.97748  0.13179  1.0000
  C   C56       1.0  0.36233  0.02251  0.63179  1.0000
  C   C57       1.0  0.80533  0.53273  0.51517  1.0000
  C   C58       1.0  0.69467  0.46727  0.01517  1.0000
  C   C59       1.0  0.19467  0.03273  0.98483  1.0000
  C   C60       1.0  0.30533  0.96727  0.48483  1.0000
  C   C61       1.0  0.73440  0.13453  0.61572  1.0000
  C   C62       1.0  0.76560  0.86547  0.11572  1.0000
  C   C63       1.0  0.26560  0.63453  0.88428  1.0000
  C   C64       1.0  0.23440  0.36547  0.38428  1.0000
  N   N1        1.0  0.91933  0.22190  0.31795  1.0000
  N   N2        1.0  0.58067  0.77810  0.81795  1.0000
  N   N3        1.0  0.08067  0.72190  0.18205  1.0000
  N   N4        1.0  0.41933  0.27810  0.68205  1.0000
  N   N5        1.0  0.86155  0.47352  0.28728  1.0000
  N   N6        1.0  0.63845  0.52648  0.78728  1.0000
  N   N7        1.0  0.13845  0.97352  0.21272  1.0000
  N   N8        1.0  0.36155  0.02648  0.71273  1.0000
  N   N9        1.0  0.65614  0.24704  0.23868  1.0000
  N   N10       1.0  0.84386  0.75296  0.73868  1.0000
  N   N11       1.0  0.34386  0.74704  0.26132  1.0000
  N   N12       1.0  0.15615  0.25296  0.76132  1.0000
  N   N13       1.0  0.61649  0.12442  0.83910  1.0000
  N   N14       1.0  0.88351  0.87559  0.33910  1.0000
  N   N15       1.0  0.38351  0.62441  0.66090  1.0000
  N   N16       1.0  0.11648  0.37559  0.16090  1.0000
  N   N17       1.0  0.90969  0.18777  0.08294  1.0000
  N   N18       1.0  0.59032  0.81223  0.58293  1.0000
  N   N19       1.0  0.09031  0.68777  0.41706  1.0000
  N   N20       1.0  0.40968  0.31223  0.91707  1.0000
  N   N21       1.0  0.75240  0.58136  0.57594  1.0000
  N   N22       1.0  0.74761  0.41863  0.07594  1.0000
  N   N23       1.0  0.24760  0.08137  0.92406  1.0000
  N   N24       1.0  0.25240  0.91863  0.42406  1.0000
  N   N25       1.0  0.87077  0.47266  0.45654  1.0000
  N   N26       1.0  0.62923  0.52734  0.95654  1.0000
  N   N27       1.0  0.12923  0.97265  0.04346  1.0000
  N   N28       1.0  0.37077  0.02735  0.54347  1.0000
  N   N29       1.0  0.81888  0.09223  0.94665  1.0000
  N   N30       1.0  0.68112  0.90777  0.44665  1.0000
  N   N31       1.0  0.18112  0.59223  0.55335  1.0000
  N   N32       1.0  0.31888  0.40777  0.05335  1.0000
