data_image0
_chemical_formula_structural       Cd2H20C28S4N8
_chemical_formula_sum              "Cd2 H20 C28 S4 N8"
_cell_length_a       8.61977
_cell_length_b       9.03633
_cell_length_c       10.4702
_cell_angle_alpha    85.4286
_cell_angle_beta     73.2778
_cell_angle_gamma    74.9846

_space_group_name_H-M_alt    "P 1"
_space_group_IT_number       1

loop_
  _space_group_symop_operation_xyz
  'x, y, z'

loop_
  _atom_site_type_symbol
  _atom_site_label
  _atom_site_symmetry_multiplicity
  _atom_site_fract_x
  _atom_site_fract_y
  _atom_site_fract_z
  _atom_site_occupancy
  Cd  Cd1       1.0  0.07868  0.36099  0.24063  1.0000
  Cd  Cd2       1.0  0.91619  0.64129  0.76674  1.0000
  H   H1        1.0  0.76124  0.92182  0.62611  1.0000
  H   H2        1.0  0.23426  0.07996  0.38100  1.0000
  H   H3        1.0  0.27168  0.85433  0.78325  1.0000
  H   H4        1.0  0.06374  0.02542  0.68299  1.0000
  H   H5        1.0  0.12163  0.26542  0.56578  1.0000
  H   H6        1.0  0.39589  0.32370  0.53903  1.0000
  H   H7        1.0  0.60435  0.15303  0.63794  1.0000
  H   H8        1.0  0.71107  0.51131  0.05969  1.0000
  H   H9        1.0  0.43158  0.57847  0.23062  1.0000
  H   H10       1.0  0.21333  0.80647  0.18768  1.0000
  H   H11       1.0  0.28203  0.95783  0.97892  1.0000
  H   H12       1.0  0.71260  0.04463  0.02744  1.0000
  H   H13       1.0  0.77993  0.19550  0.81819  1.0000
  H   H14       1.0  0.56105  0.42331  0.77581  1.0000
  H   H15       1.0  0.28254  0.49083  0.94784  1.0000
  H   H16       1.0  0.72304  0.14887  0.22352  1.0000
  H   H17       1.0  0.93178  0.97843  0.32339  1.0000
  H   H18       1.0  0.87523  0.73787  0.44030  1.0000
  H   H19       1.0  0.60160  0.67836  0.46714  1.0000
  H   H20       1.0  0.39227  0.84847  0.36870  1.0000
  C   C1        1.0  0.17581  0.57166  0.45999  1.0000
  C   C2        1.0  0.01568  0.32455  0.94208  1.0000
  C   C3        1.0  0.97955  0.67781  0.06460  1.0000
  C   C4        1.0  0.57970  0.89015  0.77616  1.0000
  C   C5        1.0  0.45132  0.99316  0.72061  1.0000
  C   C6        1.0  0.29870  0.95798  0.73130  1.0000
  C   C7        1.0  0.18170  0.05435  0.67419  1.0000
  C   C8        1.0  0.21503  0.18705  0.60658  1.0000
  C   C9        1.0  0.36851  0.22090  0.59250  1.0000
  C   C10       1.0  0.48581  0.12454  0.64860  1.0000
  C   C11       1.0  0.52985  0.80766  0.90504  1.0000
  C   C12       1.0  0.61187  0.60824  0.04462  1.0000
  C   C13       1.0  0.45694  0.64716  0.14030  1.0000
  C   C14       1.0  0.33626  0.77312  0.11600  1.0000
  C   C15       1.0  0.37352  0.85631  0.99772  1.0000
  C   C16       1.0  0.46486  0.19460  0.10197  1.0000
  C   C17       1.0  0.62082  0.14598  0.00886  1.0000
  C   C18       1.0  0.65741  0.22897  0.89038  1.0000
  C   C19       1.0  0.53642  0.35482  0.86635  1.0000
  C   C20       1.0  0.38194  0.39387  0.96256  1.0000
  C   C21       1.0  0.41548  0.11204  0.23085  1.0000
  C   C22       1.0  0.54422  0.00925  0.28616  1.0000
  C   C23       1.0  0.69657  0.04501  0.27539  1.0000
  C   C24       1.0  0.81402  0.94900  0.33231  1.0000
  C   C25       1.0  0.78145  0.81597  0.39974  1.0000
  C   C26       1.0  0.62826  0.78150  0.41387  1.0000
  C   C27       1.0  0.51052  0.87752  0.35798  1.0000
  C   C28       1.0  0.81903  0.43070  0.54750  1.0000
  S   S1        1.0  0.00716  0.19397  0.05831  1.0000
  S   S2        1.0  0.18534  0.68423  0.57098  1.0000
  S   S3        1.0  0.98771  0.80858  0.94850  1.0000
  S   S4        1.0  0.81005  0.31776  0.43651  1.0000
  N   N1        1.0  0.73784  0.86716  0.71664  1.0000
  N   N2        1.0  0.64648  0.68520  0.92981  1.0000
  N   N3        1.0  0.34800  0.31703  0.07751  1.0000
  N   N4        1.0  0.25739  0.13474  0.29052  1.0000
  N   N5        1.0  0.17302  0.49086  0.37768  1.0000
  N   N6        1.0  0.02338  0.41797  0.85616  1.0000
  N   N7        1.0  0.97232  0.58413  0.15028  1.0000
  N   N8        1.0  0.82120  0.51173  0.62986  1.0000
