data_image0
_chemical_formula_structural       Ag4H16C36N4O20
_chemical_formula_sum              "Ag4 H16 C36 N4 O20"
_cell_length_a       6.71559
_cell_length_b       8.9219
_cell_length_c       14.4224
_cell_angle_alpha    102.021
_cell_angle_beta     89.9999
_cell_angle_gamma    90

_space_group_name_H-M_alt    "P 1"
_space_group_IT_number       1

loop_
  _space_group_symop_operation_xyz
  'x, y, z'

loop_
  _atom_site_type_symbol
  _atom_site_label
  _atom_site_symmetry_multiplicity
  _atom_site_fract_x
  _atom_site_fract_y
  _atom_site_fract_z
  _atom_site_occupancy
  Ag  Ag1       1.0  0.97324  0.81996  0.88857  1.0000
  Ag  Ag2       1.0  0.47324  0.18004  0.61143  1.0000
  Ag  Ag3       1.0  0.02676  0.18004  0.11143  1.0000
  Ag  Ag4       1.0  0.52675  0.81996  0.38857  1.0000
  H   H1        1.0  0.28566  0.42591  0.37873  1.0000
  H   H2        1.0  0.78566  0.57409  0.12127  1.0000
  H   H3        1.0  0.71434  0.57409  0.62127  1.0000
  H   H4        1.0  0.21434  0.42591  0.87873  1.0000
  H   H5        1.0  0.18767  0.16301  0.40076  1.0000
  H   H6        1.0  0.68767  0.83699  0.09924  1.0000
  H   H7        1.0  0.81233  0.83699  0.59924  1.0000
  H   H8        1.0  0.31233  0.16301  0.90076  1.0000
  H   H9        1.0  0.08388  0.12642  0.56131  1.0000
  H   H10       1.0  0.58388  0.87358  0.93869  1.0000
  H   H11       1.0  0.91612  0.87358  0.43869  1.0000
  H   H12       1.0  0.41612  0.12642  0.06131  1.0000
  H   H13       1.0  0.09114  0.34767  0.69938  1.0000
  H   H14       1.0  0.59114  0.65233  0.80062  1.0000
  H   H15       1.0  0.90886  0.65233  0.30062  1.0000
  H   H16       1.0  0.40886  0.34767  0.19938  1.0000
  C   C1        1.0  0.26268  0.78359  0.67452  1.0000
  C   C2        1.0  0.76268  0.21641  0.82548  1.0000
  C   C3        1.0  0.73733  0.21641  0.32548  1.0000
  C   C4        1.0  0.23732  0.78359  0.17452  1.0000
  C   C5        1.0  0.31833  0.79550  0.58046  1.0000
  C   C6        1.0  0.81833  0.20450  0.91954  1.0000
  C   C7        1.0  0.68167  0.20450  0.41954  1.0000
  C   C8        1.0  0.18167  0.79550  0.08046  1.0000
  C   C9        1.0  0.25104  0.52535  0.52683  1.0000
  C   C10       1.0  0.75105  0.47465  0.97317  1.0000
  C   C11       1.0  0.74895  0.47465  0.47316  1.0000
  C   C12       1.0  0.24896  0.52535  0.02684  1.0000
  C   C13       1.0  0.24644  0.40388  0.44806  1.0000
  C   C14       1.0  0.74644  0.59612  0.05194  1.0000
  C   C15       1.0  0.75356  0.59612  0.55194  1.0000
  C   C16       1.0  0.25356  0.40388  0.94806  1.0000
  C   C17       1.0  0.19082  0.25972  0.46097  1.0000
  C   C18       1.0  0.69082  0.74028  0.03903  1.0000
  C   C19       1.0  0.80918  0.74028  0.53902  1.0000
  C   C20       1.0  0.30918  0.25972  0.96098  1.0000
  C   C21       1.0  0.13951  0.23716  0.55219  1.0000
  C   C22       1.0  0.63951  0.76284  0.94781  1.0000
  C   C23       1.0  0.86050  0.76284  0.44781  1.0000
  C   C24       1.0  0.36050  0.23716  0.05219  1.0000
  C   C25       1.0  0.14114  0.36111  0.62976  1.0000
  C   C26       1.0  0.64114  0.63889  0.87024  1.0000
  C   C27       1.0  0.85886  0.63889  0.37024  1.0000
  C   C28       1.0  0.35886  0.36111  0.12976  1.0000
  C   C29       1.0  0.19779  0.50795  0.61766  1.0000
  C   C30       1.0  0.69780  0.49205  0.88234  1.0000
  C   C31       1.0  0.80220  0.49205  0.38233  1.0000
  C   C32       1.0  0.30220  0.50795  0.11766  1.0000
  C   C33       1.0  0.19201  0.64169  0.69690  1.0000
  C   C34       1.0  0.69201  0.35831  0.80310  1.0000
  C   C35       1.0  0.80799  0.35831  0.30309  1.0000
  C   C36       1.0  0.30799  0.64169  0.19690  1.0000
  N   N1        1.0  0.27175  0.91862  0.74654  1.0000
  N   N2        1.0  0.77175  0.08138  0.75346  1.0000
  N   N3        1.0  0.72825  0.08138  0.25346  1.0000
  N   N4        1.0  0.22825  0.91862  0.24654  1.0000
  O   O1        1.0  0.29189  0.90355  0.83113  1.0000
  O   O2        1.0  0.79189  0.09645  0.66887  1.0000
  O   O3        1.0  0.70811  0.09645  0.16887  1.0000
  O   O4        1.0  0.20811  0.90355  0.33113  1.0000
  O   O5        1.0  0.25531  0.04911  0.72690  1.0000
  O   O6        1.0  0.75531  0.95088  0.77311  1.0000
  O   O7        1.0  0.74469  0.95089  0.27310  1.0000
  O   O8        1.0  0.24469  0.04912  0.22689  1.0000
  O   O9        1.0  0.38179  0.90842  0.55188  1.0000
  O   O10       1.0  0.88179  0.09158  0.94812  1.0000
  O   O11       1.0  0.61820  0.09158  0.44812  1.0000
  O   O12       1.0  0.11821  0.90842  0.05188  1.0000
  O   O13       1.0  0.30788  0.66489  0.51003  1.0000
  O   O14       1.0  0.80788  0.33511  0.98997  1.0000
  O   O15       1.0  0.69212  0.33511  0.48997  1.0000
  O   O16       1.0  0.19212  0.66489  0.01003  1.0000
  O   O17       1.0  0.12169  0.62613  0.77533  1.0000
  O   O18       1.0  0.62170  0.37388  0.72467  1.0000
  O   O19       1.0  0.87831  0.37387  0.22467  1.0000
  O   O20       1.0  0.37830  0.62612  0.27533  1.0000
