data_image0
_chemical_formula_structural       CdH30C50N4O10
_chemical_formula_sum              "Cd1 H30 C50 N4 O10"
_cell_length_a       4.57997
_cell_length_b       15.4078
_cell_length_c       17.5029
_cell_angle_alpha    65.8701
_cell_angle_beta     85.8322
_cell_angle_gamma    83.1719

_space_group_name_H-M_alt    "P 1"
_space_group_IT_number       1

loop_
  _space_group_symop_operation_xyz
  'x, y, z'

loop_
  _atom_site_type_symbol
  _atom_site_label
  _atom_site_symmetry_multiplicity
  _atom_site_fract_x
  _atom_site_fract_y
  _atom_site_fract_z
  _atom_site_occupancy
  Cd  Cd1       1.0  0.00000  0.00000  1.00000  1.0000
  H   H1        1.0  0.52545  0.18451  0.94311  1.0000
  H   H2        1.0  0.47455  0.81549  0.05690  1.0000
  H   H3        1.0  0.36637  0.33145  0.96733  1.0000
  H   H4        1.0  0.63364  0.66854  0.03267  1.0000
  H   H5        1.0  0.00369  0.23304  0.16293  1.0000
  H   H6        1.0  0.99632  0.76696  0.83707  1.0000
  H   H7        1.0  0.13921  0.09055  0.12904  1.0000
  H   H8        1.0  0.86080  0.90946  0.87096  1.0000
  H   H9        1.0  0.68935  0.44309  0.02903  1.0000
  H   H10       1.0  0.31066  0.55691  0.97097  1.0000
  H   H11       1.0  0.34038  0.40337  0.07054  1.0000
  H   H12       1.0  0.65962  0.59662  0.92946  1.0000
  H   H13       1.0  0.14366  0.58399  0.17014  1.0000
  H   H14       1.0  0.85633  0.41601  0.82986  1.0000
  H   H15       1.0  0.26876  0.59249  0.30352  1.0000
  H   H16       1.0  0.73124  0.40751  0.69648  1.0000
  H   H17       1.0  0.09194  0.47609  0.44004  1.0000
  H   H18       1.0  0.90805  0.52391  0.55996  1.0000
  H   H19       1.0  0.49095  0.21477  0.52152  1.0000
  H   H20       1.0  0.50905  0.78523  0.47848  1.0000
  H   H21       1.0  0.36487  0.21101  0.38603  1.0000
  H   H22       1.0  0.63512  0.78899  0.61397  1.0000
  H   H23       1.0  0.36154  0.37954  0.61699  1.0000
  H   H24       1.0  0.63848  0.62046  0.38300  1.0000
  H   H25       1.0  0.20407  0.27061  0.76248  1.0000
  H   H26       1.0  0.79593  0.72940  0.23751  1.0000
  H   H27       1.0  0.91082  0.06084  0.76481  1.0000
  H   H28       1.0  0.08918  0.93916  0.23519  1.0000
  H   H29       1.0  0.06356  0.16690  0.61842  1.0000
  H   H30       1.0  0.93645  0.83310  0.38159  1.0000
  C   C1        1.0  0.62932  0.19817  0.99058  1.0000
  C   C2        1.0  0.37068  0.80183  0.00943  1.0000
  C   C3        1.0  0.54018  0.27988  0.00455  1.0000
  C   C4        1.0  0.45983  0.72012  0.99546  1.0000
  C   C5        1.0  0.67123  0.29440  0.06771  1.0000
  C   C6        1.0  0.32877  0.70560  0.93229  1.0000
  C   C7        1.0  0.88910  0.22527  0.11396  1.0000
  C   C8        1.0  0.11091  0.77473  0.88604  1.0000
  C   C9        1.0  0.96616  0.14545  0.09567  1.0000
  C   C10       1.0  0.03385  0.85455  0.90433  1.0000
  C   C11       1.0  0.57870  0.38575  0.07845  1.0000
  C   C12       1.0  0.42130  0.61425  0.92155  1.0000
  C   C13       1.0  0.83102  0.45911  0.15249  1.0000
  C   C14       1.0  0.16898  0.54089  0.84751  1.0000
  C   C15       1.0  0.89621  0.46359  0.23202  1.0000
  C   C16       1.0  0.10378  0.53641  0.76798  1.0000
  C   C17       1.0  0.06568  0.53330  0.23046  1.0000
  C   C18       1.0  0.93431  0.46670  0.76954  1.0000
  C   C19       1.0  0.13542  0.53761  0.30559  1.0000
  C   C20       1.0  0.86457  0.46239  0.69442  1.0000
  C   C21       1.0  0.03544  0.47296  0.38185  1.0000
  C   C22       1.0  0.96455  0.52704  0.61815  1.0000
  C   C23       1.0  0.85975  0.40183  0.38523  1.0000
  C   C24       1.0  0.14024  0.59817  0.61477  1.0000
  C   C25       1.0  0.74731  0.33390  0.46198  1.0000
  C   C26       1.0  0.25268  0.66610  0.53802  1.0000
  C   C27       1.0  0.57449  0.26550  0.46228  1.0000
  C   C28       1.0  0.42551  0.73450  0.53772  1.0000
  C   C29       1.0  0.50486  0.26331  0.38641  1.0000
  C   C30       1.0  0.49512  0.73670  0.61359  1.0000
  C   C31       1.0  0.60951  0.32760  0.31028  1.0000
  C   C32       1.0  0.39048  0.67240  0.68972  1.0000
  C   C33       1.0  0.52676  0.32533  0.23167  1.0000
  C   C34       1.0  0.47324  0.67467  0.76833  1.0000
  C   C35       1.0  0.78907  0.39696  0.30908  1.0000
  C   C36       1.0  0.21092  0.60304  0.69092  1.0000
  C   C37       1.0  0.71973  0.27830  0.61088  1.0000
  C   C38       1.0  0.28028  0.72170  0.38911  1.0000
  C   C39       1.0  0.47876  0.30928  0.64970  1.0000
  C   C40       1.0  0.52126  0.69072  0.35029  1.0000
  C   C41       1.0  0.39276  0.24911  0.73035  1.0000
  C   C42       1.0  0.60724  0.75089  0.26965  1.0000
  C   C43       1.0  0.54710  0.15940  0.77180  1.0000
  C   C44       1.0  0.45290  0.84060  0.22819  1.0000
  C   C45       1.0  0.78861  0.12993  0.73135  1.0000
  C   C46       1.0  0.21138  0.87007  0.26865  1.0000
  C   C47       1.0  0.87481  0.18881  0.65030  1.0000
  C   C48       1.0  0.12520  0.81119  0.34970  1.0000
  C   C49       1.0  0.45041  0.09480  0.85891  1.0000
  C   C50       1.0  0.54958  0.90521  0.14108  1.0000
  N   N1        1.0  0.83955  0.13145  0.03525  1.0000
  N   N2        1.0  0.16046  0.86855  0.96475  1.0000
  N   N3        1.0  0.65700  0.38802  0.15724  1.0000
  N   N4        1.0  0.34299  0.61198  0.84276  1.0000
  O   O1        1.0  0.19458  0.11754  0.88327  1.0000
  O   O2        1.0  0.80541  0.88246  0.11672  1.0000
  O   O3        1.0  0.62345  0.02318  0.90110  1.0000
  O   O4        1.0  0.37655  0.97682  0.09890  1.0000
  O   O5        1.0  0.81921  0.34263  0.53260  1.0000
  O   O6        1.0  0.18080  0.65736  0.46740  1.0000
  O   O7        1.0  0.35029  0.27228  0.22836  1.0000
  O   O8        1.0  0.64969  0.72772  0.77164  1.0000
  O   O9        1.0  0.92363  0.51582  0.08418  1.0000
  O   O10       1.0  0.07638  0.48418  0.91582  1.0000
