data_image0
_chemical_formula_structural       Na2Sm2H24C24O24
_chemical_formula_sum              "Na2 Sm2 H24 C24 O24"
_cell_length_a       6.88348
_cell_length_b       7.56805
_cell_length_c       15.7026
_cell_angle_alpha    89.9997
_cell_angle_beta     102.643
_cell_angle_gamma    90.0004

_space_group_name_H-M_alt    "P 1"
_space_group_IT_number       1

loop_
  _space_group_symop_operation_xyz
  'x, y, z'

loop_
  _atom_site_type_symbol
  _atom_site_label
  _atom_site_symmetry_multiplicity
  _atom_site_fract_x
  _atom_site_fract_y
  _atom_site_fract_z
  _atom_site_occupancy
  Na  Na1       1.0  0.63937  0.74993  0.27802  1.0000
  Na  Na2       1.0  0.36063  0.24994  0.72198  1.0000
  Sm  Sm1       1.0  0.80508  0.24999  0.61047  1.0000
  Sm  Sm2       1.0  0.19491  0.74999  0.38953  1.0000
  H   H1        1.0  0.36248  0.74131  0.09907  1.0000
  H   H2        1.0  0.63752  0.24131  0.90093  1.0000
  H   H3        1.0  0.73780  0.75876  0.09924  1.0000
  H   H4        1.0  0.26221  0.25875  0.90076  1.0000
  H   H5        1.0  0.28116  0.73705  0.93630  1.0000
  H   H6        1.0  0.71884  0.23706  0.06370  1.0000
  H   H7        1.0  0.65618  0.76306  0.93645  1.0000
  H   H8        1.0  0.34382  0.26306  0.06355  1.0000
  H   H9        1.0  0.56838  0.73086  0.57921  1.0000
  H   H10       1.0  0.43162  0.23086  0.42080  1.0000
  H   H11       1.0  0.01064  0.76911  0.57914  1.0000
  H   H12       1.0  0.98936  0.26910  0.42086  1.0000
  H   H13       1.0  0.73917  0.87716  0.69761  1.0000
  H   H14       1.0  0.26083  0.37716  0.30239  1.0000
  H   H15       1.0  0.95842  0.62283  0.69754  1.0000
  H   H16       1.0  0.04158  0.12282  0.30246  1.0000
  H   H17       1.0  0.48373  0.41226  0.19820  1.0000
  H   H18       1.0  0.51627  0.91226  0.80180  1.0000
  H   H19       1.0  0.71481  0.08777  0.19825  1.0000
  H   H20       1.0  0.28519  0.58777  0.80175  1.0000
  H   H21       1.0  0.71658  0.40141  0.20898  1.0000
  H   H22       1.0  0.28342  0.90141  0.79102  1.0000
  H   H23       1.0  0.49261  0.09820  0.20891  1.0000
  H   H24       1.0  0.50739  0.59820  0.79110  1.0000
  C   C1        1.0  0.20838  0.74473  0.06282  1.0000
  C   C2        1.0  0.79163  0.24473  0.93718  1.0000
  C   C3        1.0  0.85558  0.75537  0.06291  1.0000
  C   C4        1.0  0.14443  0.25536  0.93709  1.0000
  C   C5        1.0  0.63672  0.91282  0.48496  1.0000
  C   C6        1.0  0.36327  0.41283  0.51504  1.0000
  C   C7        1.0  0.84817  0.58714  0.48491  1.0000
  C   C8        1.0  0.15181  0.08717  0.51509  1.0000
  C   C9        1.0  0.69557  0.81209  0.57086  1.0000
  C   C10       1.0  0.30442  0.31208  0.42914  1.0000
  C   C11       1.0  0.87515  0.68787  0.57083  1.0000
  C   C12       1.0  0.12486  0.18787  0.42917  1.0000
  C   C13       1.0  0.96348  0.75007  0.92606  1.0000
  C   C14       1.0  0.03653  0.25007  0.07394  1.0000
  C   C15       1.0  0.16258  0.74294  0.97214  1.0000
  C   C16       1.0  0.83742  0.24294  0.02786  1.0000
  C   C17       1.0  0.81056  0.75720  0.97223  1.0000
  C   C18       1.0  0.18945  0.25720  0.02777  1.0000
  C   C19       1.0  0.91451  0.75012  0.82854  1.0000
  C   C20       1.0  0.08549  0.25012  0.17146  1.0000
  C   C21       1.0  0.05485  0.75005  0.10859  1.0000
  C   C22       1.0  0.94516  0.25004  0.89141  1.0000
  C   C23       1.0  0.10327  0.75000  0.20554  1.0000
  C   C24       1.0  0.89674  0.25000  0.79446  1.0000
  O   O1        1.0  0.69712  0.06987  0.48294  1.0000
  O   O2        1.0  0.30286  0.56987  0.51706  1.0000
  O   O3        1.0  0.78567  0.43012  0.48288  1.0000
  O   O4        1.0  0.21432  0.93009  0.51711  1.0000
  O   O5        1.0  0.74397  0.93804  0.64001  1.0000
  O   O6        1.0  0.25603  0.43804  0.35999  1.0000
  O   O7        1.0  0.89590  0.56193  0.63997  1.0000
  O   O8        1.0  0.10411  0.06193  0.36002  1.0000
  O   O9        1.0  0.73639  0.78676  0.78799  1.0000
  O   O10       1.0  0.26361  0.28677  0.21201  1.0000
  O   O11       1.0  0.05186  0.71346  0.78781  1.0000
  O   O12       1.0  0.94814  0.21346  0.21219  1.0000
  O   O13       1.0  0.60446  0.48361  0.20069  1.0000
  O   O14       1.0  0.39554  0.98361  0.79931  1.0000
  O   O15       1.0  0.59667  0.01619  0.20067  1.0000
  O   O16       1.0  0.40333  0.51619  0.79934  1.0000
  O   O17       1.0  0.53088  0.83288  0.41947  1.0000
  O   O18       1.0  0.46912  0.33288  0.58053  1.0000
  O   O19       1.0  0.88875  0.66703  0.41943  1.0000
  O   O20       1.0  0.11124  0.16702  0.58056  1.0000
  O   O21       1.0  0.28530  0.75318  0.24752  1.0000
  O   O22       1.0  0.71470  0.25318  0.75248  1.0000
  O   O23       1.0  0.96302  0.74683  0.24748  1.0000
  O   O24       1.0  0.03698  0.24683  0.75252  1.0000
