data_image0
_chemical_formula_structural       Ag4H8C8N8O12
_chemical_formula_sum              "Ag4 H8 C8 N8 O12"
_cell_length_a       5.22298
_cell_length_b       5.81815
_cell_length_c       16.9062
_cell_angle_alpha    90.0025
_cell_angle_beta     90.0024
_cell_angle_gamma    113.828

_space_group_name_H-M_alt    "P 1"
_space_group_IT_number       1

loop_
  _space_group_symop_operation_xyz
  'x, y, z'

loop_
  _atom_site_type_symbol
  _atom_site_label
  _atom_site_symmetry_multiplicity
  _atom_site_fract_x
  _atom_site_fract_y
  _atom_site_fract_z
  _atom_site_occupancy
  Ag  Ag1       1.0  0.36841  0.78387  0.17961  1.0000
  Ag  Ag2       1.0  0.29442  0.68884  0.82434  1.0000
  Ag  Ag3       1.0  0.79444  0.18884  0.67566  1.0000
  Ag  Ag4       1.0  0.86843  0.28387  0.32039  1.0000
  H   H1        1.0  0.34016  0.63248  0.00474  1.0000
  H   H2        1.0  0.84020  0.13249  0.49526  1.0000
  H   H3        1.0  0.93571  0.98562  0.87067  1.0000
  H   H4        1.0  0.99873  0.06732  0.12433  1.0000
  H   H5        1.0  0.49873  0.56730  0.37567  1.0000
  H   H6        1.0  0.43573  0.48561  0.62932  1.0000
  H   H7        1.0  0.82072  0.16512  0.99480  1.0000
  H   H8        1.0  0.32073  0.66510  0.50520  1.0000
  C   C1        1.0  0.22589  0.75321  0.00238  1.0000
  C   C2        1.0  0.72593  0.25321  0.49762  1.0000
  C   C3        1.0  0.99957  0.94736  0.92872  1.0000
  C   C4        1.0  0.03494  0.99299  0.06836  1.0000
  C   C5        1.0  0.53495  0.49296  0.43165  1.0000
  C   C6        1.0  0.49959  0.44734  0.57128  1.0000
  C   C7        1.0  0.93750  0.04664  0.99722  1.0000
  C   C8        1.0  0.43751  0.54663  0.50277  1.0000
  N   N1        1.0  0.17892  0.84553  0.07078  1.0000
  N   N2        1.0  0.14379  0.80030  0.93140  1.0000
  N   N3        1.0  0.64383  0.30029  0.56859  1.0000
  N   N4        1.0  0.67893  0.34551  0.42922  1.0000
  N   N5        1.0  0.64941  0.42168  0.16674  1.0000
  N   N6        1.0  0.58822  0.34209  0.83169  1.0000
  N   N7        1.0  0.08824  0.84210  0.66831  1.0000
  N   N8        1.0  0.14941  0.92166  0.33326  1.0000
  O   O1        1.0  0.62826  0.56182  0.22250  1.0000
  O   O2        1.0  0.52758  0.45684  0.77481  1.0000
  O   O3        1.0  0.02759  0.95683  0.72519  1.0000
  O   O4        1.0  0.12828  0.06181  0.27751  1.0000
  O   O5        1.0  0.76416  0.26917  0.18272  1.0000
  O   O6        1.0  0.70438  0.19185  0.81471  1.0000
  O   O7        1.0  0.20441  0.69187  0.68528  1.0000
  O   O8        1.0  0.26415  0.76915  0.31728  1.0000
  O   O9        1.0  0.56306  0.43169  0.09848  1.0000
  O   O10       1.0  0.53693  0.37472  0.90204  1.0000
  O   O11       1.0  0.03695  0.87474  0.59796  1.0000
  O   O12       1.0  0.06305  0.93167  0.40152  1.0000
