data_image0
_chemical_formula_structural       Na2Gd2H24C24O24
_chemical_formula_sum              "Na2 Gd2 H24 C24 O24"
_cell_length_a       6.85821
_cell_length_b       7.51022
_cell_length_c       15.6588
_cell_angle_alpha    90.0002
_cell_angle_beta     102.654
_cell_angle_gamma    89.9999

_space_group_name_H-M_alt    "P 1"
_space_group_IT_number       1

loop_
  _space_group_symop_operation_xyz
  'x, y, z'

loop_
  _atom_site_type_symbol
  _atom_site_label
  _atom_site_symmetry_multiplicity
  _atom_site_fract_x
  _atom_site_fract_y
  _atom_site_fract_z
  _atom_site_occupancy
  Na  Na1       1.0  0.86027  0.24987  0.72063  1.0000
  Na  Na2       1.0  0.13973  0.74987  0.27937  1.0000
  Gd  Gd1       1.0  0.69526  0.75011  0.39045  1.0000
  Gd  Gd2       1.0  0.30474  0.25011  0.60955  1.0000
  H   H1        1.0  0.76295  0.25558  0.89869  1.0000
  H   H2        1.0  0.23705  0.75558  0.10131  1.0000
  H   H3        1.0  0.13583  0.24430  0.89871  1.0000
  H   H4        1.0  0.86417  0.74430  0.10129  1.0000
  H   H5        1.0  0.84470  0.26047  0.06176  1.0000
  H   H6        1.0  0.15530  0.76048  0.93824  1.0000
  H   H7        1.0  0.21718  0.23934  0.06178  1.0000
  H   H8        1.0  0.78281  0.73933  0.93822  1.0000
  H   H9        1.0  0.01953  0.91421  0.80498  1.0000
  H   H10       1.0  0.98047  0.41421  0.19502  1.0000
  H   H11       1.0  0.78552  0.58565  0.80495  1.0000
  H   H12       1.0  0.21447  0.08565  0.19505  1.0000
  H   H13       1.0  0.48755  0.26955  0.41904  1.0000
  H   H14       1.0  0.51245  0.76955  0.58096  1.0000
  H   H15       1.0  0.93134  0.23063  0.41910  1.0000
  H   H16       1.0  0.06866  0.73063  0.58090  1.0000
  H   H17       1.0  0.78599  0.90313  0.79449  1.0000
  H   H18       1.0  0.21401  0.40312  0.20551  1.0000
  H   H19       1.0  0.00854  0.59659  0.79443  1.0000
  H   H20       1.0  0.99146  0.09658  0.20557  1.0000
  H   H21       1.0  0.54135  0.11946  0.30124  1.0000
  H   H22       1.0  0.45865  0.61946  0.69876  1.0000
  H   H23       1.0  0.75993  0.38069  0.30128  1.0000
  H   H24       1.0  0.24007  0.88069  0.69873  1.0000
  C   C1        1.0  0.39589  0.25000  0.79200  1.0000
  C   C2        1.0  0.60412  0.75000  0.20800  1.0000
  C   C3        1.0  0.44458  0.24994  0.88917  1.0000
  C   C4        1.0  0.55542  0.74994  0.11083  1.0000
  C   C5        1.0  0.62357  0.18764  0.42795  1.0000
  C   C6        1.0  0.37643  0.68763  0.57205  1.0000
  C   C7        1.0  0.80420  0.31254  0.42798  1.0000
  C   C8        1.0  0.19580  0.81253  0.57202  1.0000
  C   C9        1.0  0.64949  0.08737  0.51424  1.0000
  C   C10       1.0  0.35051  0.58737  0.48576  1.0000
  C   C11       1.0  0.86457  0.41281  0.51430  1.0000
  C   C12       1.0  0.13543  0.91282  0.48570  1.0000
  C   C13       1.0  0.64459  0.25362  0.93497  1.0000
  C   C14       1.0  0.35541  0.75362  0.06503  1.0000
  C   C15       1.0  0.29046  0.24624  0.93501  1.0000
  C   C16       1.0  0.70954  0.74624  0.06499  1.0000
  C   C17       1.0  0.53618  0.24994  0.07216  1.0000
  C   C18       1.0  0.46382  0.74994  0.92784  1.0000
  C   C19       1.0  0.68969  0.25570  0.02589  1.0000
  C   C20       1.0  0.31031  0.75570  0.97411  1.0000
  C   C21       1.0  0.33634  0.24417  0.02593  1.0000
  C   C22       1.0  0.66365  0.74416  0.97407  1.0000
  C   C23       1.0  0.58511  0.25000  0.16994  1.0000
  C   C24       1.0  0.41488  0.75000  0.83006  1.0000
  O   O1        1.0  0.53606  0.24355  0.74972  1.0000
  O   O2        1.0  0.46394  0.74355  0.25028  1.0000
  O   O3        1.0  0.21345  0.25653  0.74973  1.0000
  O   O4        1.0  0.78656  0.75654  0.25026  1.0000
  O   O5        1.0  0.60350  0.05915  0.35929  1.0000
  O   O6        1.0  0.39650  0.55915  0.64071  1.0000
  O   O7        1.0  0.75567  0.44102  0.35930  1.0000
  O   O8        1.0  0.24433  0.94102  0.64070  1.0000
  O   O9        1.0  0.89832  0.98612  0.80272  1.0000
  O   O10       1.0  0.10168  0.48612  0.19728  1.0000
  O   O11       1.0  0.90440  0.51366  0.80269  1.0000
  O   O12       1.0  0.09560  0.01366  0.19731  1.0000
  O   O13       1.0  0.44764  0.21144  0.21071  1.0000
  O   O14       1.0  0.55236  0.71144  0.78929  1.0000
  O   O15       1.0  0.76335  0.28861  0.21073  1.0000
  O   O16       1.0  0.23665  0.78861  0.78927  1.0000
  O   O17       1.0  0.60803  0.16823  0.57965  1.0000
  O   O18       1.0  0.39197  0.66823  0.42035  1.0000
  O   O19       1.0  0.97151  0.33197  0.57968  1.0000
  O   O20       1.0  0.02849  0.83196  0.42032  1.0000
  O   O21       1.0  0.71237  0.92918  0.51651  1.0000
  O   O22       1.0  0.28764  0.42918  0.48349  1.0000
  O   O23       1.0  0.80399  0.57102  0.51656  1.0000
  O   O24       1.0  0.19600  0.07101  0.48344  1.0000
