data_image0
_chemical_formula_structural       Na2Gd2H32C36O24
_chemical_formula_sum              "Na2 Gd2 H32 C36 O24"
_cell_length_a       6.81246
_cell_length_b       7.503
_cell_length_c       19.8913
_cell_angle_alpha    90.0007
_cell_angle_beta     99.9031
_cell_angle_gamma    90.0003

_space_group_name_H-M_alt    "P 1"
_space_group_IT_number       1

loop_
  _space_group_symop_operation_xyz
  'x, y, z'

loop_
  _atom_site_type_symbol
  _atom_site_label
  _atom_site_symmetry_multiplicity
  _atom_site_fract_x
  _atom_site_fract_y
  _atom_site_fract_z
  _atom_site_occupancy
  Na  Na1       1.0  0.83779  0.75025  0.67407  1.0000
  Na  Na2       1.0  0.16222  0.25024  0.32593  1.0000
  Gd  Gd1       1.0  0.70666  0.25015  0.41376  1.0000
  Gd  Gd2       1.0  0.29335  0.75015  0.58625  1.0000
  H   H1        1.0  0.22173  0.64752  0.03192  1.0000
  H   H2        1.0  0.77827  0.14753  0.96808  1.0000
  H   H3        1.0  0.81270  0.85171  0.03236  1.0000
  H   H4        1.0  0.18730  0.35171  0.96764  1.0000
  H   H5        1.0  0.11043  0.84859  0.81215  1.0000
  H   H6        1.0  0.88955  0.34858  0.18786  1.0000
  H   H7        1.0  0.70469  0.65085  0.81219  1.0000
  H   H8        1.0  0.29530  0.15084  0.18781  1.0000
  H   H9        1.0  0.17516  0.85168  0.93888  1.0000
  H   H10       1.0  0.82484  0.35168  0.06113  1.0000
  H   H11       1.0  0.76690  0.64746  0.93900  1.0000
  H   H12       1.0  0.23309  0.14746  0.06100  1.0000
  H   H13       1.0  0.94216  0.73140  0.43737  1.0000
  H   H14       1.0  0.05783  0.23140  0.56262  1.0000
  H   H15       1.0  0.49544  0.76906  0.43726  1.0000
  H   H16       1.0  0.50456  0.26906  0.56273  1.0000
  H   H17       1.0  0.75516  0.09150  0.73568  1.0000
  H   H18       1.0  0.24485  0.59149  0.26432  1.0000
  H   H19       1.0  0.98132  0.40881  0.73560  1.0000
  H   H20       1.0  0.01867  0.90881  0.26440  1.0000
  H   H21       1.0  0.98117  0.10282  0.72738  1.0000
  H   H22       1.0  0.01883  0.60282  0.27262  1.0000
  H   H23       1.0  0.74694  0.39821  0.72735  1.0000
  H   H24       1.0  0.25306  0.89821  0.27265  1.0000
  H   H25       1.0  0.78196  0.88029  0.34512  1.0000
  H   H26       1.0  0.21805  0.38032  0.65488  1.0000
  H   H27       1.0  0.56323  0.62013  0.34503  1.0000
  H   H28       1.0  0.43678  0.12014  0.65497  1.0000
  H   H29       1.0  0.28481  0.64575  0.15829  1.0000
  H   H30       1.0  0.71520  0.14576  0.84171  1.0000
  H   H31       1.0  0.87448  0.85429  0.15872  1.0000
  H   H32       1.0  0.12551  0.35430  0.84129  1.0000
  C   C1        1.0  0.62147  0.75010  0.24296  1.0000
  C   C2        1.0  0.37853  0.25012  0.75704  1.0000
  C   C3        1.0  0.36444  0.69443  0.05975  1.0000
  C   C4        1.0  0.63556  0.19443  0.94025  1.0000
  C   C5        1.0  0.69753  0.80489  0.06001  1.0000
  C   C6        1.0  0.30248  0.30490  0.93999  1.0000
  C   C7        1.0  0.36556  0.74989  0.72885  1.0000
  C   C8        1.0  0.63444  0.24986  0.27115  1.0000
  C   C9        1.0  0.40378  0.74976  0.80451  1.0000
  C   C10       1.0  0.59622  0.24975  0.19549  1.0000
  C   C11       1.0  0.81272  0.81298  0.44408  1.0000
  C   C12       1.0  0.18728  0.31297  0.55592  1.0000
  C   C13       1.0  0.63159  0.68747  0.44400  1.0000
  C   C14       1.0  0.36841  0.18747  0.55600  1.0000
  C   C15       1.0  0.25355  0.80365  0.84032  1.0000
  C   C16       1.0  0.74644  0.30364  0.15968  1.0000
  C   C17       1.0  0.58990  0.69577  0.84037  1.0000
  C   C18       1.0  0.41010  0.19576  0.15963  1.0000
  C   C19       1.0  0.47551  0.74944  0.94789  1.0000
  C   C20       1.0  0.52448  0.24944  0.05211  1.0000
  C   C21       1.0  0.29003  0.80398  0.91124  1.0000
  C   C22       1.0  0.70996  0.30398  0.08876  1.0000
  C   C23       1.0  0.62440  0.69516  0.91129  1.0000
  C   C24       1.0  0.37560  0.19516  0.08871  1.0000
  C   C25       1.0  0.51282  0.74951  0.02310  1.0000
  C   C26       1.0  0.48718  0.24952  0.97690  1.0000
  C   C27       1.0  0.86305  0.91395  0.51126  1.0000
  C   C28       1.0  0.13696  0.41394  0.48874  1.0000
  C   C29       1.0  0.64840  0.58653  0.51116  1.0000
  C   C30       1.0  0.35160  0.08653  0.48884  1.0000
  C   C31       1.0  0.58385  0.75001  0.16700  1.0000
  C   C32       1.0  0.41615  0.25002  0.83300  1.0000
  C   C33       1.0  0.39951  0.69315  0.13065  1.0000
  C   C34       1.0  0.60048  0.19316  0.86936  1.0000
  C   C35       1.0  0.73237  0.80663  0.13090  1.0000
  C   C36       1.0  0.26763  0.30665  0.86910  1.0000
  O   O1        1.0  0.79574  0.79023  0.27501  1.0000
  O   O2        1.0  0.20427  0.29025  0.72499  1.0000
  O   O3        1.0  0.47900  0.71002  0.27483  1.0000
  O   O4        1.0  0.52102  0.21004  0.72517  1.0000
  O   O5        1.0  0.18702  0.76318  0.69590  1.0000
  O   O6        1.0  0.81298  0.26315  0.30410  1.0000
  O   O7        1.0  0.51061  0.73666  0.69573  1.0000
  O   O8        1.0  0.48940  0.23663  0.30427  1.0000
  O   O9        1.0  0.80247  0.07256  0.51268  1.0000
  O   O10       1.0  0.19755  0.57256  0.48732  1.0000
  O   O11       1.0  0.71040  0.42790  0.51264  1.0000
  O   O12       1.0  0.28961  0.92788  0.48736  1.0000
  O   O13       1.0  0.77147  0.94122  0.39036  1.0000
  O   O14       1.0  0.22852  0.44123  0.60964  1.0000
  O   O15       1.0  0.61914  0.55931  0.39027  1.0000
  O   O16       1.0  0.38087  0.05932  0.60973  1.0000
  O   O17       1.0  0.87585  0.01996  0.73461  1.0000
  O   O18       1.0  0.12415  0.51995  0.26539  1.0000
  O   O19       1.0  0.85982  0.48071  0.73464  1.0000
  O   O20       1.0  0.14017  0.98070  0.26536  1.0000
  O   O21       1.0  0.96233  0.83351  0.56255  1.0000
  O   O22       1.0  0.03768  0.33351  0.43744  1.0000
  O   O23       1.0  0.60040  0.66701  0.56240  1.0000
  O   O24       1.0  0.39960  0.16699  0.43760  1.0000
