data_image0
_chemical_formula_structural       Na2Sm2H32C36O24
_chemical_formula_sum              "Na2 Sm2 H32 C36 O24"
_cell_length_a       6.84132
_cell_length_b       7.55966
_cell_length_c       19.9442
_cell_angle_alpha    90.0013
_cell_angle_beta     99.914
_cell_angle_gamma    89.9992

_space_group_name_H-M_alt    "P 1"
_space_group_IT_number       1

loop_
  _space_group_symop_operation_xyz
  'x, y, z'

loop_
  _atom_site_type_symbol
  _atom_site_label
  _atom_site_symmetry_multiplicity
  _atom_site_fract_x
  _atom_site_fract_y
  _atom_site_fract_z
  _atom_site_occupancy
  Na  Na1       1.0  0.66134  0.75024  0.32392  1.0000
  Na  Na2       1.0  0.33865  0.25024  0.67608  1.0000
  Sm  Sm1       1.0  0.79367  0.25013  0.58693  1.0000
  Sm  Sm2       1.0  0.20632  0.75012  0.41307  1.0000
  H   H1        1.0  0.38622  0.85180  0.18612  1.0000
  H   H2        1.0  0.61378  0.35180  0.81388  1.0000
  H   H3        1.0  0.20239  0.14792  0.81408  1.0000
  H   H4        1.0  0.79761  0.64792  0.18592  1.0000
  H   H5        1.0  0.32180  0.85485  0.05964  1.0000
  H   H6        1.0  0.67818  0.35485  0.94036  1.0000
  H   H7        1.0  0.26398  0.14449  0.94061  1.0000
  H   H8        1.0  0.73601  0.64449  0.05939  1.0000
  H   H9        1.0  0.69040  0.85575  0.96637  1.0000
  H   H10       1.0  0.30959  0.35574  0.03362  1.0000
  H   H11       1.0  0.72507  0.14392  0.03331  1.0000
  H   H12       1.0  0.27493  0.64392  0.96670  1.0000
  H   H13       1.0  0.62840  0.85768  0.84039  1.0000
  H   H14       1.0  0.37162  0.35766  0.15961  1.0000
  H   H15       1.0  0.78819  0.14228  0.15926  1.0000
  H   H16       1.0  0.21183  0.64228  0.84074  1.0000
  H   H17       1.0  0.55791  0.73040  0.56096  1.0000
  H   H18       1.0  0.44209  0.23040  0.43904  1.0000
  H   H19       1.0  0.99687  0.26993  0.43905  1.0000
  H   H20       1.0  0.00313  0.76991  0.56094  1.0000
  H   H21       1.0  0.93768  0.62368  0.65391  1.0000
  H   H22       1.0  0.06234  0.12368  0.34609  1.0000
  H   H23       1.0  0.28339  0.37651  0.34608  1.0000
  H   H24       1.0  0.71663  0.87651  0.65392  1.0000
  H   H25       1.0  0.74572  0.09185  0.26510  1.0000
  H   H26       1.0  0.25428  0.59185  0.73490  1.0000
  H   H27       1.0  0.48150  0.90837  0.73480  1.0000
  H   H28       1.0  0.51851  0.40837  0.26520  1.0000
  H   H29       1.0  0.52035  0.10246  0.27264  1.0000
  H   H30       1.0  0.47965  0.60245  0.72736  1.0000
  H   H31       1.0  0.24855  0.89821  0.72729  1.0000
  H   H32       1.0  0.75146  0.39821  0.27271  1.0000
  C   C1        1.0  0.09574  0.74989  0.19370  1.0000
  C   C2        1.0  0.90425  0.24989  0.80630  1.0000
  C   C3        1.0  0.13364  0.75000  0.26917  1.0000
  C   C4        1.0  0.86635  0.25001  0.73083  1.0000
  C   C5        1.0  0.02447  0.74973  0.05066  1.0000
  C   C6        1.0  0.97552  0.24973  0.94933  1.0000
  C   C7        1.0  0.98713  0.74973  0.97561  1.0000
  C   C8        1.0  0.01286  0.24973  0.02439  1.0000
  C   C9        1.0  0.24458  0.80532  0.15799  1.0000
  C   C10       1.0  0.75542  0.30532  0.84201  1.0000
  C   C11       1.0  0.08875  0.19436  0.84211  1.0000
  C   C12       1.0  0.91125  0.69437  0.15789  1.0000
  C   C13       1.0  0.20837  0.80578  0.08725  1.0000
  C   C14       1.0  0.79161  0.30578  0.91275  1.0000
  C   C15       1.0  0.12300  0.19372  0.91287  1.0000
  C   C16       1.0  0.87699  0.69373  0.08713  1.0000
  C   C17       1.0  0.91584  0.74987  0.83201  1.0000
  C   C18       1.0  0.08417  0.24987  0.16799  1.0000
  C   C19       1.0  0.80406  0.80690  0.93880  1.0000
  C   C20       1.0  0.19594  0.30690  0.06120  1.0000
  C   C21       1.0  0.86624  0.19269  0.06102  1.0000
  C   C22       1.0  0.13376  0.69269  0.93898  1.0000
  C   C23       1.0  0.76909  0.80834  0.86808  1.0000
  C   C24       1.0  0.23093  0.30834  0.13192  1.0000
  C   C25       1.0  0.90147  0.19140  0.13173  1.0000
  C   C26       1.0  0.09854  0.69140  0.86827  1.0000
  C   C27       1.0  0.87820  0.74995  0.75619  1.0000
  C   C28       1.0  0.12182  0.24994  0.24381  1.0000
  C   C29       1.0  0.68688  0.81216  0.55486  1.0000
  C   C30       1.0  0.31313  0.31216  0.44514  1.0000
  C   C31       1.0  0.13195  0.18818  0.44514  1.0000
  C   C32       1.0  0.86805  0.68817  0.55485  1.0000
  C   C33       1.0  0.63821  0.91361  0.48801  1.0000
  C   C34       1.0  0.36178  0.41362  0.51199  1.0000
  C   C35       1.0  0.15040  0.08667  0.51199  1.0000
  C   C36       1.0  0.84959  0.58666  0.48800  1.0000
  O   O1        1.0  0.31171  0.76258  0.30195  1.0000
  O   O2        1.0  0.68828  0.26259  0.69806  1.0000
  O   O3        1.0  0.01134  0.23756  0.69799  1.0000
  O   O4        1.0  0.98864  0.73755  0.30201  1.0000
  O   O5        1.0  0.78781  0.42922  0.48703  1.0000
  O   O6        1.0  0.21215  0.92923  0.51297  1.0000
  O   O7        1.0  0.30112  0.57109  0.51298  1.0000
  O   O8        1.0  0.69889  0.07109  0.48702  1.0000
  O   O9        1.0  0.62525  0.02053  0.26521  1.0000
  O   O10       1.0  0.37475  0.52053  0.73479  1.0000
  O   O11       1.0  0.36109  0.97989  0.73478  1.0000
  O   O12       1.0  0.63891  0.47989  0.26522  1.0000
  O   O13       1.0  0.70436  0.78928  0.72429  1.0000
  O   O14       1.0  0.29567  0.28927  0.27571  1.0000
  O   O15       1.0  0.97969  0.21068  0.27556  1.0000
  O   O16       1.0  0.02034  0.71068  0.72444  1.0000
  O   O17       1.0  0.88246  0.56232  0.60893  1.0000
  O   O18       1.0  0.11754  0.06232  0.39107  1.0000
  O   O19       1.0  0.27321  0.43795  0.39104  1.0000
  O   O20       1.0  0.72681  0.93796  0.60896  1.0000
  O   O21       1.0  0.54023  0.83428  0.43656  1.0000
  O   O22       1.0  0.45977  0.33428  0.56345  1.0000
  O   O23       1.0  0.10385  0.16588  0.56344  1.0000
  O   O24       1.0  0.89614  0.66585  0.43656  1.0000
