data_image0
_chemical_formula_structural       Na2Tb2H24C24O24
_chemical_formula_sum              "Na2 Tb2 H24 C24 O24"
_cell_length_a       6.85277
_cell_length_b       7.50111
_cell_length_c       15.6391
_cell_angle_alpha    90
_cell_angle_beta     102.66
_cell_angle_gamma    89.9999

_space_group_name_H-M_alt    "P 1"
_space_group_IT_number       1

loop_
  _space_group_symop_operation_xyz
  'x, y, z'

loop_
  _atom_site_type_symbol
  _atom_site_label
  _atom_site_symmetry_multiplicity
  _atom_site_fract_x
  _atom_site_fract_y
  _atom_site_fract_z
  _atom_site_occupancy
  Na  Na1       1.0  0.85933  0.24989  0.71864  1.0000
  Na  Na2       1.0  0.14067  0.74989  0.28136  1.0000
  Tb  Tb1       1.0  0.69544  0.75012  0.39095  1.0000
  Tb  Tb2       1.0  0.30456  0.25012  0.60905  1.0000
  H   H1        1.0  0.76294  0.25511  0.89783  1.0000
  H   H2        1.0  0.23706  0.75511  0.10217  1.0000
  H   H3        1.0  0.86473  0.74473  0.10215  1.0000
  H   H4        1.0  0.13527  0.24472  0.89785  1.0000
  H   H5        1.0  0.84482  0.26031  0.06134  1.0000
  H   H6        1.0  0.15517  0.76031  0.93866  1.0000
  H   H7        1.0  0.78304  0.73952  0.93863  1.0000
  H   H8        1.0  0.21696  0.23952  0.06137  1.0000
  H   H9        1.0  0.48692  0.26810  0.41770  1.0000
  H   H10       1.0  0.51309  0.76810  0.58230  1.0000
  H   H11       1.0  0.06927  0.73211  0.58236  1.0000
  H   H12       1.0  0.93074  0.23211  0.41763  1.0000
  H   H13       1.0  0.75767  0.38316  0.30065  1.0000
  H   H14       1.0  0.24232  0.88316  0.69935  1.0000
  H   H15       1.0  0.45708  0.61702  0.69935  1.0000
  H   H16       1.0  0.54292  0.11702  0.30065  1.0000
  H   H17       1.0  0.78103  0.90079  0.79001  1.0000
  H   H18       1.0  0.21897  0.40078  0.20999  1.0000
  H   H19       1.0  0.99099  0.09905  0.21003  1.0000
  H   H20       1.0  0.00900  0.59905  0.78997  1.0000
  H   H21       1.0  0.01532  0.91238  0.80219  1.0000
  H   H22       1.0  0.98467  0.41238  0.19781  1.0000
  H   H23       1.0  0.21306  0.08738  0.19782  1.0000
  H   H24       1.0  0.78693  0.58738  0.80218  1.0000
  C   C1        1.0  0.44432  0.24991  0.88835  1.0000
  C   C2        1.0  0.55568  0.74992  0.11165  1.0000
  C   C3        1.0  0.39545  0.25005  0.79102  1.0000
  C   C4        1.0  0.60455  0.75005  0.20898  1.0000
  C   C5        1.0  0.64864  0.08723  0.51383  1.0000
  C   C6        1.0  0.35137  0.58724  0.48617  1.0000
  C   C7        1.0  0.13478  0.91294  0.48620  1.0000
  C   C8        1.0  0.86523  0.41293  0.51380  1.0000
  C   C9        1.0  0.62379  0.18693  0.42726  1.0000
  C   C10       1.0  0.37622  0.68693  0.57274  1.0000
  C   C11       1.0  0.19659  0.81327  0.57277  1.0000
  C   C12       1.0  0.80342  0.31326  0.42723  1.0000
  C   C13       1.0  0.64457  0.25344  0.93424  1.0000
  C   C14       1.0  0.35543  0.75344  0.06576  1.0000
  C   C15       1.0  0.70993  0.74635  0.06573  1.0000
  C   C16       1.0  0.29007  0.24635  0.93427  1.0000
  C   C17       1.0  0.53607  0.24991  0.07165  1.0000
  C   C18       1.0  0.46393  0.74991  0.92835  1.0000
  C   C19       1.0  0.68973  0.25560  0.02532  1.0000
  C   C20       1.0  0.31027  0.75560  0.97468  1.0000
  C   C21       1.0  0.66398  0.74421  0.97465  1.0000
  C   C22       1.0  0.33602  0.24421  0.02535  1.0000
  C   C23       1.0  0.58500  0.24996  0.16958  1.0000
  C   C24       1.0  0.41500  0.74997  0.83042  1.0000
  O   O1        1.0  0.53567  0.24447  0.74864  1.0000
  O   O2        1.0  0.46433  0.74447  0.25136  1.0000
  O   O3        1.0  0.78718  0.75577  0.25131  1.0000
  O   O4        1.0  0.21282  0.25577  0.74869  1.0000
  O   O5        1.0  0.71099  0.92863  0.51651  1.0000
  O   O6        1.0  0.28902  0.42863  0.48349  1.0000
  O   O7        1.0  0.19454  0.07152  0.48352  1.0000
  O   O8        1.0  0.80548  0.57152  0.51648  1.0000
  O   O9        1.0  0.75302  0.44273  0.35891  1.0000
  O   O10       1.0  0.24699  0.94274  0.64109  1.0000
  O   O11       1.0  0.39433  0.55746  0.64106  1.0000
  O   O12       1.0  0.60568  0.05746  0.35894  1.0000
  O   O13       1.0  0.60627  0.16895  0.57893  1.0000
  O   O14       1.0  0.39373  0.66894  0.42107  1.0000
  O   O15       1.0  0.02718  0.83128  0.42110  1.0000
  O   O16       1.0  0.97283  0.33127  0.57890  1.0000
  O   O17       1.0  0.89328  0.98406  0.79817  1.0000
  O   O18       1.0  0.10671  0.48406  0.20183  1.0000
  O   O19       1.0  0.09509  0.01573  0.20192  1.0000
  O   O20       1.0  0.90490  0.51573  0.79808  1.0000
  O   O21       1.0  0.44778  0.21010  0.21040  1.0000
  O   O22       1.0  0.55221  0.71011  0.78960  1.0000
  O   O23       1.0  0.23700  0.78985  0.78954  1.0000
  O   O24       1.0  0.76299  0.28984  0.21046  1.0000
