data_image0
_chemical_formula_structural       Na2Dy2H24C24O24
_chemical_formula_sum              "Na2 Dy2 H24 C24 O24"
_cell_length_a       6.83957
_cell_length_b       7.47397
_cell_length_c       15.6247
_cell_angle_alpha    90.0002
_cell_angle_beta     102.635
_cell_angle_gamma    90.0001

_space_group_name_H-M_alt    "P 1"
_space_group_IT_number       1

loop_
  _space_group_symop_operation_xyz
  'x, y, z'

loop_
  _atom_site_type_symbol
  _atom_site_label
  _atom_site_symmetry_multiplicity
  _atom_site_fract_x
  _atom_site_fract_y
  _atom_site_fract_z
  _atom_site_occupancy
  Na  Na1       1.0  0.14056  0.74986  0.28135  1.0000
  Na  Na2       1.0  0.85944  0.24985  0.71865  1.0000
  Dy  Dy1       1.0  0.30445  0.25014  0.60881  1.0000
  Dy  Dy2       1.0  0.69555  0.75014  0.39119  1.0000
  H   H1        1.0  0.51354  0.76852  0.58299  1.0000
  H   H2        1.0  0.48646  0.26853  0.41701  1.0000
  H   H3        1.0  0.06932  0.73178  0.58309  1.0000
  H   H4        1.0  0.93068  0.23177  0.41691  1.0000
  H   H5        1.0  0.45771  0.61591  0.69986  1.0000
  H   H6        1.0  0.54229  0.11591  0.30014  1.0000
  H   H7        1.0  0.24225  0.88431  0.69987  1.0000
  H   H8        1.0  0.75775  0.38430  0.30013  1.0000
  H   H9        1.0  0.98989  0.09789  0.20742  1.0000
  H   H10       1.0  0.01011  0.59789  0.79258  1.0000
  H   H11       1.0  0.21750  0.40163  0.20751  1.0000
  H   H12       1.0  0.78250  0.90163  0.79249  1.0000
  H   H13       1.0  0.21282  0.08641  0.19589  1.0000
  H   H14       1.0  0.78718  0.58641  0.80411  1.0000
  H   H15       1.0  0.98303  0.41317  0.19599  1.0000
  H   H16       1.0  0.01697  0.91318  0.80401  1.0000
  H   H17       1.0  0.78395  0.73819  0.93947  1.0000
  H   H18       1.0  0.21605  0.23819  0.06053  1.0000
  H   H19       1.0  0.15516  0.76165  0.93944  1.0000
  H   H20       1.0  0.84484  0.26166  0.06055  1.0000
  H   H21       1.0  0.86559  0.74339  0.10299  1.0000
  H   H22       1.0  0.13441  0.24339  0.89701  1.0000
  H   H23       1.0  0.23675  0.75644  0.10295  1.0000
  H   H24       1.0  0.76325  0.25644  0.89705  1.0000
  C   C1        1.0  0.60475  0.75010  0.20984  1.0000
  C   C2        1.0  0.39525  0.25009  0.79016  1.0000
  C   C3        1.0  0.55597  0.74997  0.11252  1.0000
  C   C4        1.0  0.44404  0.24997  0.88747  1.0000
  C   C5        1.0  0.37663  0.68687  0.57323  1.0000
  C   C6        1.0  0.62337  0.18687  0.42677  1.0000
  C   C7        1.0  0.19648  0.81339  0.57325  1.0000
  C   C8        1.0  0.80353  0.31338  0.42675  1.0000
  C   C9        1.0  0.35219  0.58721  0.48653  1.0000
  C   C10       1.0  0.64781  0.08720  0.51347  1.0000
  C   C11       1.0  0.13418  0.91303  0.48656  1.0000
  C   C12       1.0  0.86582  0.41303  0.51344  1.0000
  C   C13       1.0  0.46437  0.74995  0.92913  1.0000
  C   C14       1.0  0.53563  0.24995  0.07087  1.0000
  C   C15       1.0  0.41546  0.74997  0.83116  1.0000
  C   C16       1.0  0.58455  0.24996  0.16884  1.0000
  C   C17       1.0  0.66463  0.74356  0.97549  1.0000
  C   C18       1.0  0.33537  0.24355  0.02451  1.0000
  C   C19       1.0  0.31046  0.75636  0.97548  1.0000
  C   C20       1.0  0.68954  0.25636  0.02452  1.0000
  C   C21       1.0  0.71053  0.74570  0.06660  1.0000
  C   C22       1.0  0.28947  0.24569  0.93340  1.0000
  C   C23       1.0  0.35548  0.75419  0.06660  1.0000
  C   C24       1.0  0.64452  0.25418  0.93340  1.0000
  O   O1        1.0  0.46454  0.74366  0.25238  1.0000
  O   O2        1.0  0.53546  0.24365  0.74762  1.0000
  O   O3        1.0  0.78754  0.75666  0.25227  1.0000
  O   O4        1.0  0.21245  0.25666  0.74773  1.0000
  O   O5        1.0  0.28946  0.42813  0.48380  1.0000
  O   O6        1.0  0.71053  0.92814  0.51621  1.0000
  O   O7        1.0  0.19421  0.07208  0.48378  1.0000
  O   O8        1.0  0.80579  0.57206  0.51622  1.0000
  O   O9        1.0  0.09435  0.01426  0.19948  1.0000
  O   O10       1.0  0.90565  0.51426  0.80052  1.0000
  O   O11       1.0  0.10513  0.48528  0.19962  1.0000
  O   O12       1.0  0.89487  0.98528  0.80038  1.0000
  O   O13       1.0  0.39493  0.55645  0.64143  1.0000
  O   O14       1.0  0.60507  0.05645  0.35857  1.0000
  O   O15       1.0  0.24667  0.94380  0.64146  1.0000
  O   O16       1.0  0.75333  0.44380  0.35854  1.0000
  O   O17       1.0  0.39505  0.66905  0.42140  1.0000
  O   O18       1.0  0.60494  0.16907  0.57860  1.0000
  O   O19       1.0  0.02616  0.83120  0.42144  1.0000
  O   O20       1.0  0.97385  0.33118  0.57857  1.0000
  O   O21       1.0  0.23723  0.79013  0.79022  1.0000
  O   O22       1.0  0.76278  0.29012  0.20978  1.0000
  O   O23       1.0  0.55283  0.70978  0.79026  1.0000
  O   O24       1.0  0.44718  0.20977  0.20974  1.0000
