data_image0
_chemical_formula_structural       Na2Dy2H32C36O24
_chemical_formula_sum              "Na2 Dy2 H32 C36 O24"
_cell_length_a       6.79135
_cell_length_b       7.47797
_cell_length_c       19.8632
_cell_angle_alpha    90.0002
_cell_angle_beta     99.8392
_cell_angle_gamma    89.9999

_space_group_name_H-M_alt    "P 1"
_space_group_IT_number       1

loop_
  _space_group_symop_operation_xyz
  'x, y, z'

loop_
  _atom_site_type_symbol
  _atom_site_label
  _atom_site_symmetry_multiplicity
  _atom_site_fract_x
  _atom_site_fract_y
  _atom_site_fract_z
  _atom_site_occupancy
  Na  Na1       1.0  0.83683  0.75008  0.67280  1.0000
  Na  Na2       1.0  0.16317  0.25008  0.32720  1.0000
  Dy  Dy1       1.0  0.70708  0.25018  0.41447  1.0000
  Dy  Dy2       1.0  0.29293  0.75018  0.58553  1.0000
  H   H1        1.0  0.70418  0.65076  0.81072  1.0000
  H   H2        1.0  0.29580  0.15075  0.18928  1.0000
  H   H3        1.0  0.89223  0.34868  0.18934  1.0000
  H   H4        1.0  0.10776  0.84871  0.81066  1.0000
  H   H5        1.0  0.76572  0.64643  0.93757  1.0000
  H   H6        1.0  0.23427  0.14643  0.06243  1.0000
  H   H7        1.0  0.82737  0.35278  0.06251  1.0000
  H   H8        1.0  0.17262  0.85280  0.93749  1.0000
  H   H9        1.0  0.21955  0.64695  0.03112  1.0000
  H   H10       1.0  0.78045  0.14695  0.96888  1.0000
  H   H11       1.0  0.18787  0.35278  0.96891  1.0000
  H   H12       1.0  0.81213  0.85277  0.03108  1.0000
  H   H13       1.0  0.28354  0.64483  0.15746  1.0000
  H   H14       1.0  0.71647  0.14482  0.84255  1.0000
  H   H15       1.0  0.12560  0.35514  0.84257  1.0000
  H   H16       1.0  0.87440  0.85514  0.15743  1.0000
  H   H17       1.0  0.49429  0.76860  0.43616  1.0000
  H   H18       1.0  0.50572  0.26860  0.56384  1.0000
  H   H19       1.0  0.05775  0.23192  0.56382  1.0000
  H   H20       1.0  0.94227  0.73193  0.43618  1.0000
  H   H21       1.0  0.56411  0.61660  0.34462  1.0000
  H   H22       1.0  0.43590  0.11659  0.65538  1.0000
  H   H23       1.0  0.21958  0.38388  0.65535  1.0000
  H   H24       1.0  0.78043  0.88388  0.34465  1.0000
  H   H25       1.0  0.74619  0.39789  0.72730  1.0000
  H   H26       1.0  0.25381  0.89790  0.27269  1.0000
  H   H27       1.0  0.01859  0.60224  0.27263  1.0000
  H   H28       1.0  0.98141  0.10225  0.72737  1.0000
  H   H29       1.0  0.98118  0.40939  0.73552  1.0000
  H   H30       1.0  0.01882  0.90939  0.26448  1.0000
  H   H31       1.0  0.24530  0.59046  0.26439  1.0000
  H   H32       1.0  0.75470  0.09047  0.73562  1.0000
  C   C1        1.0  0.36420  0.74988  0.72720  1.0000
  C   C2        1.0  0.63579  0.24988  0.27279  1.0000
  C   C3        1.0  0.40209  0.74976  0.80290  1.0000
  C   C4        1.0  0.59788  0.24974  0.19709  1.0000
  C   C5        1.0  0.47365  0.74967  0.94653  1.0000
  C   C6        1.0  0.52634  0.24967  0.05347  1.0000
  C   C7        1.0  0.51121  0.74977  0.02188  1.0000
  C   C8        1.0  0.48879  0.24977  0.97812  1.0000
  C   C9        1.0  0.58874  0.69585  0.83883  1.0000
  C   C10       1.0  0.41123  0.19584  0.16116  1.0000
  C   C11       1.0  0.74877  0.30356  0.16121  1.0000
  C   C12       1.0  0.25122  0.80358  0.83879  1.0000
  C   C13       1.0  0.62302  0.69496  0.90985  1.0000
  C   C14       1.0  0.37697  0.19495  0.09015  1.0000
  C   C15       1.0  0.71223  0.30446  0.09020  1.0000
  C   C16       1.0  0.28776  0.80447  0.90980  1.0000
  C   C17       1.0  0.58332  0.74995  0.16611  1.0000
  C   C18       1.0  0.41668  0.24995  0.83389  1.0000
  C   C19       1.0  0.36273  0.69434  0.05878  1.0000
  C   C20       1.0  0.63727  0.19434  0.94122  1.0000
  C   C21       1.0  0.30338  0.30533  0.94123  1.0000
  C   C22       1.0  0.69661  0.80533  0.05877  1.0000
  C   C23       1.0  0.62110  0.75009  0.24219  1.0000
  C   C24       1.0  0.37890  0.25007  0.75781  1.0000
  C   C25       1.0  0.63111  0.68703  0.44341  1.0000
  C   C26       1.0  0.36891  0.18702  0.55660  1.0000
  C   C27       1.0  0.18732  0.31346  0.55657  1.0000
  C   C28       1.0  0.81270  0.81346  0.44343  1.0000
  C   C29       1.0  0.64656  0.58656  0.51074  1.0000
  C   C30       1.0  0.35345  0.08655  0.48926  1.0000
  C   C31       1.0  0.13554  0.41395  0.48923  1.0000
  C   C32       1.0  0.86446  0.91397  0.51077  1.0000
  C   C33       1.0  0.39844  0.69285  0.12977  1.0000
  C   C34       1.0  0.60156  0.19285  0.87024  1.0000
  C   C35       1.0  0.26814  0.30704  0.87023  1.0000
  C   C36       1.0  0.73186  0.80704  0.12977  1.0000
  O   O1        1.0  0.50933  0.73568  0.69390  1.0000
  O   O2        1.0  0.49066  0.23567  0.30611  1.0000
  O   O3        1.0  0.81433  0.26427  0.30602  1.0000
  O   O4        1.0  0.18565  0.76427  0.69397  1.0000
  O   O5        1.0  0.47902  0.70727  0.27415  1.0000
  O   O6        1.0  0.52098  0.20723  0.72585  1.0000
  O   O7        1.0  0.20502  0.29306  0.72578  1.0000
  O   O8        1.0  0.79498  0.79305  0.27422  1.0000
  O   O9        1.0  0.85894  0.48114  0.73443  1.0000
  O   O10       1.0  0.14106  0.98114  0.26557  1.0000
  O   O11       1.0  0.12400  0.51889  0.26541  1.0000
  O   O12       1.0  0.87600  0.01889  0.73459  1.0000
  O   O13       1.0  0.70786  0.42713  0.51225  1.0000
  O   O14       1.0  0.29215  0.92713  0.48775  1.0000
  O   O15       1.0  0.19558  0.57331  0.48774  1.0000
  O   O16       1.0  0.80442  0.07331  0.51226  1.0000
  O   O17       1.0  0.61982  0.55693  0.39015  1.0000
  O   O18       1.0  0.38021  0.05692  0.60985  1.0000
  O   O19       1.0  0.22938  0.44359  0.60980  1.0000
  O   O20       1.0  0.77062  0.94359  0.39020  1.0000
  O   O21       1.0  0.59785  0.66759  0.56192  1.0000
  O   O22       1.0  0.40215  0.16758  0.43808  1.0000
  O   O23       1.0  0.03556  0.33307  0.43803  1.0000
  O   O24       1.0  0.96445  0.83308  0.56197  1.0000
