data_image0
_chemical_formula_structural       Na2Tb2H32C36O24
_chemical_formula_sum              "Na2 Tb2 H32 C36 O24"
_cell_length_a       6.80626
_cell_length_b       7.4881
_cell_length_c       19.8763
_cell_angle_alpha    90.0009
_cell_angle_beta     99.8979
_cell_angle_gamma    89.9998

_space_group_name_H-M_alt    "P 1"
_space_group_IT_number       1

loop_
  _space_group_symop_operation_xyz
  'x, y, z'

loop_
  _atom_site_type_symbol
  _atom_site_label
  _atom_site_symmetry_multiplicity
  _atom_site_fract_x
  _atom_site_fract_y
  _atom_site_fract_z
  _atom_site_occupancy
  Na  Na1       1.0  0.83781  0.25016  0.67351  1.0000
  Na  Na2       1.0  0.16218  0.75015  0.32649  1.0000
  Tb  Tb1       1.0  0.70670  0.75007  0.41415  1.0000
  Tb  Tb2       1.0  0.29329  0.25006  0.58585  1.0000
  H   H1        1.0  0.76803  0.14974  0.93847  1.0000
  H   H2        1.0  0.23197  0.64975  0.06153  1.0000
  H   H3        1.0  0.82591  0.84986  0.06171  1.0000
  H   H4        1.0  0.17408  0.34987  0.93829  1.0000
  H   H5        1.0  0.70585  0.15260  0.81163  1.0000
  H   H6        1.0  0.29414  0.65261  0.18837  1.0000
  H   H7        1.0  0.89057  0.84695  0.18850  1.0000
  H   H8        1.0  0.10943  0.34696  0.81150  1.0000
  H   H9        1.0  0.28363  0.14778  0.15782  1.0000
  H   H10       1.0  0.71639  0.64778  0.84218  1.0000
  H   H11       1.0  0.12452  0.85246  0.84167  1.0000
  H   H12       1.0  0.87549  0.35246  0.15833  1.0000
  H   H13       1.0  0.22050  0.14960  0.03150  1.0000
  H   H14       1.0  0.77950  0.64960  0.96850  1.0000
  H   H15       1.0  0.18612  0.85004  0.96798  1.0000
  H   H16       1.0  0.81388  0.35005  0.03202  1.0000
  H   H17       1.0  0.49500  0.26904  0.43647  1.0000
  H   H18       1.0  0.50500  0.76903  0.56353  1.0000
  H   H19       1.0  0.05821  0.73131  0.56343  1.0000
  H   H20       1.0  0.94178  0.23132  0.43657  1.0000
  H   H21       1.0  0.56334  0.11844  0.34476  1.0000
  H   H22       1.0  0.43666  0.61844  0.65524  1.0000
  H   H23       1.0  0.21858  0.88188  0.65517  1.0000
  H   H24       1.0  0.78143  0.38189  0.34483  1.0000
  H   H25       1.0  0.98154  0.90849  0.73580  1.0000
  H   H26       1.0  0.01846  0.40849  0.26420  1.0000
  H   H27       1.0  0.24464  0.09136  0.26400  1.0000
  H   H28       1.0  0.75535  0.59137  0.73600  1.0000
  H   H29       1.0  0.74728  0.89698  0.72741  1.0000
  H   H30       1.0  0.25272  0.39698  0.27259  1.0000
  H   H31       1.0  0.01893  0.10351  0.27247  1.0000
  H   H32       1.0  0.98106  0.60351  0.72753  1.0000
  C   C1        1.0  0.47552  0.24977  0.94733  1.0000
  C   C2        1.0  0.52448  0.74977  0.05267  1.0000
  C   C3        1.0  0.36563  0.24987  0.72807  1.0000
  C   C4        1.0  0.63437  0.74986  0.27193  1.0000
  C   C5        1.0  0.40375  0.24974  0.80378  1.0000
  C   C6        1.0  0.59625  0.74975  0.19622  1.0000
  C   C7        1.0  0.51276  0.24975  0.02258  1.0000
  C   C8        1.0  0.48724  0.74973  0.97742  1.0000
  C   C9        1.0  0.62494  0.19650  0.91071  1.0000
  C   C10       1.0  0.37506  0.69650  0.08929  1.0000
  C   C11       1.0  0.71052  0.80312  0.08939  1.0000
  C   C12       1.0  0.28947  0.30312  0.91060  1.0000
  C   C13       1.0  0.59047  0.19701  0.83973  1.0000
  C   C14       1.0  0.40953  0.69701  0.16027  1.0000
  C   C15       1.0  0.74704  0.80257  0.16037  1.0000
  C   C16       1.0  0.25295  0.30256  0.83963  1.0000
  C   C17       1.0  0.58382  0.25000  0.16668  1.0000
  C   C18       1.0  0.41619  0.74999  0.83333  1.0000
  C   C19       1.0  0.39892  0.19436  0.13021  1.0000
  C   C20       1.0  0.60109  0.69436  0.86979  1.0000
  C   C21       1.0  0.26710  0.80554  0.86948  1.0000
  C   C22       1.0  0.73291  0.30554  0.13052  1.0000
  C   C23       1.0  0.62135  0.25010  0.24270  1.0000
  C   C24       1.0  0.37866  0.75011  0.75730  1.0000
  C   C25       1.0  0.63124  0.18727  0.44353  1.0000
  C   C26       1.0  0.36875  0.68726  0.55647  1.0000
  C   C27       1.0  0.18745  0.81305  0.55640  1.0000
  C   C28       1.0  0.81255  0.31306  0.44360  1.0000
  C   C29       1.0  0.64749  0.08660  0.51081  1.0000
  C   C30       1.0  0.35250  0.58658  0.48918  1.0000
  C   C31       1.0  0.13633  0.91370  0.48908  1.0000
  C   C32       1.0  0.86366  0.41372  0.51092  1.0000
  C   C33       1.0  0.36379  0.19568  0.05927  1.0000
  C   C34       1.0  0.63621  0.69567  0.94073  1.0000
  C   C35       1.0  0.30194  0.80388  0.94042  1.0000
  C   C36       1.0  0.69806  0.30388  0.05958  1.0000
  O   O1        1.0  0.51066  0.23721  0.69484  1.0000
  O   O2        1.0  0.48934  0.73722  0.30516  1.0000
  O   O3        1.0  0.81304  0.76270  0.30497  1.0000
  O   O4        1.0  0.18696  0.26269  0.69503  1.0000
  O   O5        1.0  0.85973  0.98027  0.73470  1.0000
  O   O6        1.0  0.14027  0.48026  0.26530  1.0000
  O   O7        1.0  0.12379  0.01991  0.26519  1.0000
  O   O8        1.0  0.87621  0.51991  0.73481  1.0000
  O   O9        1.0  0.47868  0.21009  0.27459  1.0000
  O   O10       1.0  0.52134  0.71010  0.72541  1.0000
  O   O11       1.0  0.20420  0.79009  0.72518  1.0000
  O   O12       1.0  0.79581  0.29008  0.27482  1.0000
  O   O13       1.0  0.70964  0.92766  0.51244  1.0000
  O   O14       1.0  0.29036  0.42766  0.48756  1.0000
  O   O15       1.0  0.19709  0.07256  0.48747  1.0000
  O   O16       1.0  0.80290  0.57259  0.51253  1.0000
  O   O17       1.0  0.61909  0.05787  0.39009  1.0000
  O   O18       1.0  0.38091  0.55787  0.60991  1.0000
  O   O19       1.0  0.22885  0.94248  0.60984  1.0000
  O   O20       1.0  0.77115  0.44249  0.39016  1.0000
  O   O21       1.0  0.59892  0.16754  0.56195  1.0000
  O   O22       1.0  0.40108  0.66753  0.43805  1.0000
  O   O23       1.0  0.03642  0.83282  0.43793  1.0000
  O   O24       1.0  0.96357  0.33284  0.56207  1.0000
