data_image0
_chemical_formula_structural       Na2Ho2H24C24O24
_chemical_formula_sum              "Na2 Ho2 H24 C24 O24"
_cell_length_a       6.83787
_cell_length_b       7.45181
_cell_length_c       15.6052
_cell_angle_alpha    89.9999
_cell_angle_beta     102.661
_cell_angle_gamma    90

_space_group_name_H-M_alt    "P 1"
_space_group_IT_number       1

loop_
  _space_group_symop_operation_xyz
  'x, y, z'

loop_
  _atom_site_type_symbol
  _atom_site_label
  _atom_site_symmetry_multiplicity
  _atom_site_fract_x
  _atom_site_fract_y
  _atom_site_fract_z
  _atom_site_occupancy
  Na  Na1       1.0  0.14097  0.24991  0.28208  1.0000
  Na  Na2       1.0  0.85903  0.74991  0.71792  1.0000
  Ho  Ho1       1.0  0.30415  0.75016  0.60833  1.0000
  Ho  Ho2       1.0  0.69585  0.25016  0.39167  1.0000
  H   H1        1.0  0.23702  0.24951  0.10362  1.0000
  H   H2        1.0  0.76298  0.74951  0.89638  1.0000
  H   H3        1.0  0.13384  0.75025  0.89628  1.0000
  H   H4        1.0  0.86616  0.25026  0.10373  1.0000
  H   H5        1.0  0.15510  0.25503  0.93974  1.0000
  H   H6        1.0  0.84491  0.75503  0.06026  1.0000
  H   H7        1.0  0.21547  0.74474  0.06016  1.0000
  H   H8        1.0  0.78454  0.24475  0.93985  1.0000
  H   H9        1.0  0.51422  0.26823  0.58391  1.0000
  H   H10       1.0  0.48577  0.76822  0.41609  1.0000
  H   H11       1.0  0.93023  0.73207  0.41605  1.0000
  H   H12       1.0  0.06976  0.23208  0.58396  1.0000
  H   H13       1.0  0.45686  0.11417  0.70020  1.0000
  H   H14       1.0  0.54314  0.61417  0.29979  1.0000
  H   H15       1.0  0.75651  0.88606  0.29980  1.0000
  H   H16       1.0  0.24349  0.38606  0.70020  1.0000
  H   H17       1.0  0.21304  0.58605  0.19575  1.0000
  H   H18       1.0  0.78696  0.08605  0.80425  1.0000
  H   H19       1.0  0.01738  0.41368  0.80418  1.0000
  H   H20       1.0  0.98262  0.91367  0.19583  1.0000
  H   H21       1.0  0.99073  0.59830  0.20838  1.0000
  H   H22       1.0  0.00926  0.09830  0.79162  1.0000
  H   H23       1.0  0.78241  0.40141  0.79156  1.0000
  H   H24       1.0  0.21759  0.90142  0.20844  1.0000
  C   C1        1.0  0.55642  0.24988  0.11324  1.0000
  C   C2        1.0  0.44358  0.74988  0.88676  1.0000
  C   C3        1.0  0.60531  0.25001  0.21077  1.0000
  C   C4        1.0  0.39469  0.75001  0.78923  1.0000
  C   C5        1.0  0.35574  0.25057  0.06718  1.0000
  C   C6        1.0  0.64427  0.75056  0.93282  1.0000
  C   C7        1.0  0.28895  0.74923  0.93278  1.0000
  C   C8        1.0  0.71106  0.24923  0.06722  1.0000
  C   C9        1.0  0.46466  0.24991  0.92955  1.0000
  C   C10       1.0  0.53536  0.74992  0.07045  1.0000
  C   C11       1.0  0.31053  0.25282  0.97591  1.0000
  C   C12       1.0  0.68948  0.75282  0.02409  1.0000
  C   C13       1.0  0.33484  0.74702  0.02405  1.0000
  C   C14       1.0  0.66517  0.24702  0.97595  1.0000
  C   C15       1.0  0.37694  0.18656  0.57372  1.0000
  C   C16       1.0  0.62305  0.68656  0.42628  1.0000
  C   C17       1.0  0.80312  0.81368  0.42626  1.0000
  C   C18       1.0  0.19687  0.31369  0.57374  1.0000
  C   C19       1.0  0.41565  0.24998  0.83144  1.0000
  C   C20       1.0  0.58436  0.74998  0.16856  1.0000
  C   C21       1.0  0.35330  0.08704  0.48688  1.0000
  C   C22       1.0  0.64670  0.58703  0.51312  1.0000
  C   C23       1.0  0.86644  0.91319  0.51308  1.0000
  C   C24       1.0  0.13354  0.41319  0.48692  1.0000
  O   O1        1.0  0.46529  0.24238  0.25343  1.0000
  O   O2        1.0  0.53471  0.74237  0.74656  1.0000
  O   O3        1.0  0.21198  0.75782  0.74660  1.0000
  O   O4        1.0  0.78801  0.25781  0.25340  1.0000
  O   O5        1.0  0.29029  0.92750  0.48384  1.0000
  O   O6        1.0  0.70968  0.42750  0.51616  1.0000
  O   O7        1.0  0.80667  0.07277  0.51612  1.0000
  O   O8        1.0  0.19333  0.57279  0.48389  1.0000
  O   O9        1.0  0.39373  0.05514  0.64160  1.0000
  O   O10       1.0  0.60627  0.55514  0.35840  1.0000
  O   O11       1.0  0.75188  0.94510  0.35838  1.0000
  O   O12       1.0  0.24812  0.44511  0.64162  1.0000
  O   O13       1.0  0.55266  0.20858  0.79047  1.0000
  O   O14       1.0  0.44735  0.70858  0.20953  1.0000
  O   O15       1.0  0.76230  0.79140  0.20957  1.0000
  O   O16       1.0  0.23771  0.29141  0.79043  1.0000
  O   O17       1.0  0.09457  0.51421  0.19995  1.0000
  O   O18       1.0  0.90542  0.01421  0.80004  1.0000
  O   O19       1.0  0.89468  0.48551  0.79993  1.0000
  O   O20       1.0  0.10532  0.98551  0.20007  1.0000
  O   O21       1.0  0.39692  0.16941  0.42194  1.0000
  O   O22       1.0  0.60307  0.66942  0.57806  1.0000
  O   O23       1.0  0.97488  0.83070  0.57804  1.0000
  O   O24       1.0  0.02512  0.33072  0.42196  1.0000
