data_image0
_chemical_formula_structural       Na2Er2H24C24O24
_chemical_formula_sum              "Na2 Er2 H24 C24 O24"
_cell_length_a       6.8271
_cell_length_b       7.44567
_cell_length_c       15.587
_cell_angle_alpha    90.0005
_cell_angle_beta     102.654
_cell_angle_gamma    90.0003

_space_group_name_H-M_alt    "P 1"
_space_group_IT_number       1

loop_
  _space_group_symop_operation_xyz
  'x, y, z'

loop_
  _atom_site_type_symbol
  _atom_site_label
  _atom_site_symmetry_multiplicity
  _atom_site_fract_x
  _atom_site_fract_y
  _atom_site_fract_z
  _atom_site_occupancy
  Na  Na1       1.0  0.35855  0.74990  0.71697  1.0000
  Na  Na2       1.0  0.64146  0.24989  0.28302  1.0000
  Er  Er1       1.0  0.19594  0.25002  0.39186  1.0000
  Er  Er2       1.0  0.80405  0.75001  0.60814  1.0000
  H   H1        1.0  0.63305  0.75149  0.89583  1.0000
  H   H2        1.0  0.36695  0.25148  0.10416  1.0000
  H   H3        1.0  0.26297  0.74862  0.89590  1.0000
  H   H4        1.0  0.73703  0.24863  0.10409  1.0000
  H   H5        1.0  0.71468  0.74581  0.05975  1.0000
  H   H6        1.0  0.28532  0.24581  0.94024  1.0000
  H   H7        1.0  0.34510  0.75425  0.05984  1.0000
  H   H8        1.0  0.65491  0.25426  0.94016  1.0000
  H   H9        1.0  0.43024  0.73263  0.41538  1.0000
  H   H10       1.0  0.56974  0.23263  0.58462  1.0000
  H   H11       1.0  0.98516  0.76748  0.41541  1.0000
  H   H12       1.0  0.01483  0.26746  0.58459  1.0000
  H   H13       1.0  0.25606  0.88739  0.29945  1.0000
  H   H14       1.0  0.74394  0.38738  0.70055  1.0000
  H   H15       1.0  0.04333  0.61270  0.29944  1.0000
  H   H16       1.0  0.95666  0.11270  0.70056  1.0000
  H   H17       1.0  0.51657  0.41315  0.80373  1.0000
  H   H18       1.0  0.48346  0.91314  0.19628  1.0000
  H   H19       1.0  0.28738  0.08672  0.80367  1.0000
  H   H20       1.0  0.71261  0.58671  0.19633  1.0000
  H   H21       1.0  0.28118  0.40065  0.79063  1.0000
  H   H22       1.0  0.71884  0.90064  0.20939  1.0000
  H   H23       1.0  0.50963  0.09923  0.79057  1.0000
  H   H24       1.0  0.49037  0.59923  0.20943  1.0000
  C   C1        1.0  0.89437  0.75001  0.78865  1.0000
  C   C2        1.0  0.10562  0.25001  0.21134  1.0000
  C   C3        1.0  0.94322  0.75001  0.88627  1.0000
  C   C4        1.0  0.05679  0.25002  0.11373  1.0000
  C   C5        1.0  0.30288  0.81384  0.42584  1.0000
  C   C6        1.0  0.69711  0.31383  0.57416  1.0000
  C   C7        1.0  0.12290  0.68620  0.42586  1.0000
  C   C8        1.0  0.87708  0.18618  0.57414  1.0000
  C   C9        1.0  0.36678  0.91303  0.51285  1.0000
  C   C10       1.0  0.63323  0.41302  0.48716  1.0000
  C   C11       1.0  0.14610  0.58697  0.51285  1.0000
  C   C12       1.0  0.85389  0.08694  0.48716  1.0000
  C   C13       1.0  0.78834  0.74987  0.93231  1.0000
  C   C14       1.0  0.21167  0.24987  0.06768  1.0000
  C   C15       1.0  0.14412  0.75017  0.93235  1.0000
  C   C16       1.0  0.85588  0.25018  0.06765  1.0000
  C   C17       1.0  0.03507  0.75000  0.07006  1.0000
  C   C18       1.0  0.96494  0.25001  0.92993  1.0000
  C   C19       1.0  0.83426  0.74752  0.02364  1.0000
  C   C20       1.0  0.16575  0.24753  0.97635  1.0000
  C   C21       1.0  0.18944  0.75245  0.02368  1.0000
  C   C22       1.0  0.81057  0.25245  0.97632  1.0000
  C   C23       1.0  0.08415  0.75004  0.16825  1.0000
  C   C24       1.0  0.91584  0.25006  0.83175  1.0000
  O   O1        1.0  0.25154  0.94609  0.35818  1.0000
  O   O2        1.0  0.74846  0.44608  0.64182  1.0000
  O   O3        1.0  0.10638  0.55394  0.35819  1.0000
  O   O4        1.0  0.89358  0.05394  0.64181  1.0000
  O   O5        1.0  0.39347  0.48501  0.79901  1.0000
  O   O6        1.0  0.60655  0.98499  0.20102  1.0000
  O   O7        1.0  0.40570  0.01485  0.79889  1.0000
  O   O8        1.0  0.59429  0.51485  0.20111  1.0000
  O   O9        1.0  0.71151  0.75813  0.74588  1.0000
  O   O10       1.0  0.28851  0.25814  0.25412  1.0000
  O   O11       1.0  0.03448  0.74186  0.74588  1.0000
  O   O12       1.0  0.96553  0.24185  0.25412  1.0000
  O   O13       1.0  0.47550  0.83042  0.57781  1.0000
  O   O14       1.0  0.52449  0.33041  0.42219  1.0000
  O   O15       1.0  0.10216  0.66949  0.57779  1.0000
  O   O16       1.0  0.89785  0.16945  0.42221  1.0000
  O   O17       1.0  0.30713  0.07280  0.51585  1.0000
  O   O18       1.0  0.69289  0.57278  0.48415  1.0000
  O   O19       1.0  0.20898  0.42726  0.51585  1.0000
  O   O20       1.0  0.79101  0.92725  0.48415  1.0000
  O   O21       1.0  0.26237  0.79152  0.20930  1.0000
  O   O22       1.0  0.73763  0.29154  0.79070  1.0000
  O   O23       1.0  0.94701  0.70856  0.20930  1.0000
  O   O24       1.0  0.05298  0.20859  0.79069  1.0000
