data_image0
_chemical_formula_structural       Na2Er2H32C36O24
_chemical_formula_sum              "Na2 Er2 H32 C36 O24"
_cell_length_a       6.78697
_cell_length_b       7.442
_cell_length_c       19.8257
_cell_angle_alpha    89.9995
_cell_angle_beta     99.8672
_cell_angle_gamma    90.0001

_space_group_name_H-M_alt    "P 1"
_space_group_IT_number       1

loop_
  _space_group_symop_operation_xyz
  'x, y, z'

loop_
  _atom_site_type_symbol
  _atom_site_label
  _atom_site_symmetry_multiplicity
  _atom_site_fract_x
  _atom_site_fract_y
  _atom_site_fract_z
  _atom_site_occupancy
  Na  Na1       1.0  0.16413  0.25005  0.32839  1.0000
  Na  Na2       1.0  0.83587  0.75004  0.67161  1.0000
  Er  Er1       1.0  0.29248  0.74986  0.58490  1.0000
  Er  Er2       1.0  0.70750  0.24986  0.41510  1.0000
  H   H1        1.0  0.23559  0.14476  0.06332  1.0000
  H   H2        1.0  0.76442  0.64477  0.93668  1.0000
  H   H3        1.0  0.82726  0.35550  0.06336  1.0000
  H   H4        1.0  0.17275  0.85551  0.93664  1.0000
  H   H5        1.0  0.29773  0.14806  0.19044  1.0000
  H   H6        1.0  0.70227  0.64807  0.80956  1.0000
  H   H7        1.0  0.89225  0.35213  0.19049  1.0000
  H   H8        1.0  0.10775  0.85213  0.80951  1.0000
  H   H9        1.0  0.78072  0.14600  0.96975  1.0000
  H   H10       1.0  0.21930  0.64600  0.03025  1.0000
  H   H11       1.0  0.18864  0.35420  0.96962  1.0000
  H   H12       1.0  0.81138  0.85418  0.03037  1.0000
  H   H13       1.0  0.71648  0.14313  0.84306  1.0000
  H   H14       1.0  0.28354  0.64312  0.15693  1.0000
  H   H15       1.0  0.12639  0.35685  0.84295  1.0000
  H   H16       1.0  0.87363  0.85684  0.15705  1.0000
  H   H17       1.0  0.50652  0.26729  0.56522  1.0000
  H   H18       1.0  0.49347  0.76729  0.43478  1.0000
  H   H19       1.0  0.05874  0.23244  0.56517  1.0000
  H   H20       1.0  0.94124  0.73244  0.43482  1.0000
  H   H21       1.0  0.43434  0.11300  0.65598  1.0000
  H   H22       1.0  0.56564  0.61301  0.34402  1.0000
  H   H23       1.0  0.22156  0.38680  0.65595  1.0000
  H   H24       1.0  0.77843  0.88680  0.34405  1.0000
  H   H25       1.0  0.24571  0.59059  0.26434  1.0000
  H   H26       1.0  0.75427  0.09058  0.73566  1.0000
  H   H27       1.0  0.01845  0.90957  0.26431  1.0000
  H   H28       1.0  0.98157  0.40956  0.73570  1.0000
  H   H29       1.0  0.01978  0.60399  0.27366  1.0000
  H   H30       1.0  0.98020  0.10397  0.72634  1.0000
  H   H31       1.0  0.25371  0.89636  0.27355  1.0000
  H   H32       1.0  0.74631  0.39636  0.72646  1.0000
  C   C1        1.0  0.52695  0.25013  0.05436  1.0000
  C   C2        1.0  0.47307  0.75014  0.94564  1.0000
  C   C3        1.0  0.48929  0.25011  0.97887  1.0000
  C   C4        1.0  0.51073  0.75011  0.02113  1.0000
  C   C5        1.0  0.37807  0.19414  0.09111  1.0000
  C   C6        1.0  0.62194  0.69414  0.90889  1.0000
  C   C7        1.0  0.71258  0.30610  0.09115  1.0000
  C   C8        1.0  0.28743  0.80611  0.90886  1.0000
  C   C9        1.0  0.41264  0.19454  0.16227  1.0000
  C   C10       1.0  0.58736  0.69455  0.83772  1.0000
  C   C11       1.0  0.74918  0.30560  0.16229  1.0000
  C   C12       1.0  0.25082  0.80560  0.83771  1.0000
  C   C13       1.0  0.63768  0.19391  0.94194  1.0000
  C   C14       1.0  0.36234  0.69391  0.05806  1.0000
  C   C15       1.0  0.30400  0.30625  0.94189  1.0000
  C   C16       1.0  0.69602  0.80625  0.05811  1.0000
  C   C17       1.0  0.41713  0.25003  0.83439  1.0000
  C   C18       1.0  0.58289  0.75003  0.16562  1.0000
  C   C19       1.0  0.60191  0.19213  0.87081  1.0000
  C   C20       1.0  0.39811  0.69212  0.12919  1.0000
  C   C21       1.0  0.26870  0.30792  0.87077  1.0000
  C   C22       1.0  0.73133  0.80791  0.12923  1.0000
  C   C23       1.0  0.37908  0.24997  0.75816  1.0000
  C   C24       1.0  0.62094  0.74998  0.24184  1.0000
  C   C25       1.0  0.36913  0.18603  0.55736  1.0000
  C   C26       1.0  0.63086  0.68602  0.44263  1.0000
  C   C27       1.0  0.18825  0.31374  0.55734  1.0000
  C   C28       1.0  0.81173  0.81374  0.44265  1.0000
  C   C29       1.0  0.35507  0.08625  0.48969  1.0000
  C   C30       1.0  0.64492  0.58624  0.51031  1.0000
  C   C31       1.0  0.13456  0.41355  0.48967  1.0000
  C   C32       1.0  0.86541  0.91356  0.51032  1.0000
  C   C33       1.0  0.59893  0.25004  0.19830  1.0000
  C   C34       1.0  0.40107  0.75004  0.80170  1.0000
  C   C35       1.0  0.63695  0.24991  0.27419  1.0000
  C   C36       1.0  0.36304  0.74990  0.72580  1.0000
  O   O1        1.0  0.12437  0.51943  0.26631  1.0000
  O   O2        1.0  0.87562  0.01941  0.73371  1.0000
  O   O3        1.0  0.14168  0.98082  0.26619  1.0000
  O   O4        1.0  0.85835  0.48082  0.73382  1.0000
  O   O5        1.0  0.52062  0.20575  0.72608  1.0000
  O   O6        1.0  0.47938  0.70577  0.27393  1.0000
  O   O7        1.0  0.20540  0.29412  0.72604  1.0000
  O   O8        1.0  0.79461  0.79411  0.27397  1.0000
  O   O9        1.0  0.29333  0.92612  0.48775  1.0000
  O   O10       1.0  0.70664  0.42612  0.51225  1.0000
  O   O11       1.0  0.19431  0.57369  0.48773  1.0000
  O   O12       1.0  0.80568  0.07369  0.51227  1.0000
  O   O13       1.0  0.40502  0.16826  0.43873  1.0000
  O   O14       1.0  0.59495  0.66825  0.56126  1.0000
  O   O15       1.0  0.03363  0.33153  0.43872  1.0000
  O   O16       1.0  0.96634  0.83153  0.56128  1.0000
  O   O17       1.0  0.37849  0.05391  0.61019  1.0000
  O   O18       1.0  0.62150  0.55392  0.38980  1.0000
  O   O19       1.0  0.23164  0.44586  0.61018  1.0000
  O   O20       1.0  0.76832  0.94586  0.38982  1.0000
  O   O21       1.0  0.49199  0.23480  0.30762  1.0000
  O   O22       1.0  0.50800  0.73480  0.69237  1.0000
  O   O23       1.0  0.81540  0.26482  0.30761  1.0000
  O   O24       1.0  0.18459  0.76480  0.69239  1.0000
