data_image0
_chemical_formula_structural       Na2Ho2H32C36O24
_chemical_formula_sum              "Na2 Ho2 H32 C36 O24"
_cell_length_a       6.78817
_cell_length_b       7.45638
_cell_length_c       19.8454
_cell_angle_alpha    90.0007
_cell_angle_beta     99.8652
_cell_angle_gamma    90.0004

_space_group_name_H-M_alt    "P 1"
_space_group_IT_number       1

loop_
  _space_group_symop_operation_xyz
  'x, y, z'

loop_
  _atom_site_type_symbol
  _atom_site_label
  _atom_site_symmetry_multiplicity
  _atom_site_fract_x
  _atom_site_fract_y
  _atom_site_fract_z
  _atom_site_occupancy
  Na  Na1       1.0  0.83647  0.24997  0.67226  1.0000
  Na  Na2       1.0  0.16353  0.74996  0.32774  1.0000
  Ho  Ho1       1.0  0.70718  0.74997  0.41471  1.0000
  Ho  Ho2       1.0  0.29283  0.24996  0.58529  1.0000
  H   H1        1.0  0.76597  0.14795  0.93726  1.0000
  H   H2        1.0  0.23403  0.64794  0.06274  1.0000
  H   H3        1.0  0.17175  0.35234  0.93705  1.0000
  H   H4        1.0  0.82824  0.85233  0.06295  1.0000
  H   H5        1.0  0.70424  0.15141  0.81030  1.0000
  H   H6        1.0  0.29575  0.65142  0.18970  1.0000
  H   H7        1.0  0.10709  0.34889  0.81008  1.0000
  H   H8        1.0  0.89290  0.84889  0.18992  1.0000
  H   H9        1.0  0.28210  0.14627  0.15723  1.0000
  H   H10       1.0  0.71789  0.64626  0.84277  1.0000
  H   H11       1.0  0.87482  0.35348  0.15740  1.0000
  H   H12       1.0  0.12518  0.85347  0.84260  1.0000
  H   H13       1.0  0.49374  0.26830  0.43549  1.0000
  H   H14       1.0  0.50628  0.76829  0.56452  1.0000
  H   H15       1.0  0.94184  0.23170  0.43555  1.0000
  H   H16       1.0  0.05817  0.73167  0.56445  1.0000
  H   H17       1.0  0.56425  0.11513  0.34431  1.0000
  H   H18       1.0  0.43576  0.61512  0.65569  1.0000
  H   H19       1.0  0.78004  0.38488  0.34435  1.0000
  H   H20       1.0  0.21996  0.88487  0.65565  1.0000
  H   H21       1.0  0.98074  0.90894  0.73567  1.0000
  H   H22       1.0  0.01926  0.40895  0.26432  1.0000
  H   H23       1.0  0.75523  0.59097  0.73559  1.0000
  H   H24       1.0  0.24477  0.09097  0.26441  1.0000
  H   H25       1.0  0.74565  0.89713  0.72713  1.0000
  H   H26       1.0  0.25435  0.39714  0.27287  1.0000
  H   H27       1.0  0.98168  0.60319  0.72701  1.0000
  H   H28       1.0  0.01831  0.10318  0.27299  1.0000
  H   H29       1.0  0.21834  0.14836  0.03069  1.0000
  H   H30       1.0  0.78166  0.64834  0.96931  1.0000
  H   H31       1.0  0.81244  0.35155  0.03089  1.0000
  H   H32       1.0  0.18757  0.85154  0.96911  1.0000
  C   C1        1.0  0.62293  0.19584  0.90948  1.0000
  C   C2        1.0  0.37706  0.69584  0.09052  1.0000
  C   C3        1.0  0.28714  0.30435  0.90936  1.0000
  C   C4        1.0  0.71285  0.80435  0.09064  1.0000
  C   C5        1.0  0.58864  0.19643  0.83840  1.0000
  C   C6        1.0  0.41134  0.69644  0.16160  1.0000
  C   C7        1.0  0.25067  0.30378  0.83829  1.0000
  C   C8        1.0  0.74932  0.80377  0.16171  1.0000
  C   C9        1.0  0.39733  0.19367  0.12951  1.0000
  C   C10       1.0  0.60266  0.69366  0.87049  1.0000
  C   C11       1.0  0.73191  0.30612  0.12961  1.0000
  C   C12       1.0  0.26809  0.80611  0.87039  1.0000
  C   C13       1.0  0.64567  0.08637  0.51051  1.0000
  C   C14       1.0  0.35435  0.58635  0.48949  1.0000
  C   C15       1.0  0.86498  0.41376  0.51054  1.0000
  C   C16       1.0  0.13504  0.91376  0.48946  1.0000
  C   C17       1.0  0.36375  0.24983  0.72655  1.0000
  C   C18       1.0  0.63625  0.74983  0.27344  1.0000
  C   C19       1.0  0.40170  0.25001  0.80239  1.0000
  C   C20       1.0  0.59829  0.75001  0.19761  1.0000
  C   C21       1.0  0.63075  0.18662  0.44300  1.0000
  C   C22       1.0  0.36927  0.68660  0.55700  1.0000
  C   C23       1.0  0.81233  0.31342  0.44303  1.0000
  C   C24       1.0  0.18768  0.81340  0.55697  1.0000
  C   C25       1.0  0.58276  0.24991  0.16592  1.0000
  C   C26       1.0  0.41723  0.74990  0.83408  1.0000
  C   C27       1.0  0.62083  0.24992  0.24207  1.0000
  C   C28       1.0  0.37916  0.74990  0.75793  1.0000
  C   C29       1.0  0.51080  0.24996  0.02158  1.0000
  C   C30       1.0  0.48919  0.74996  0.97842  1.0000
  C   C31       1.0  0.47332  0.25003  0.94618  1.0000
  C   C32       1.0  0.52668  0.75002  0.05382  1.0000
  C   C33       1.0  0.36181  0.19524  0.05846  1.0000
  C   C34       1.0  0.63818  0.69523  0.94154  1.0000
  C   C35       1.0  0.69659  0.30468  0.05857  1.0000
  C   C36       1.0  0.30341  0.80466  0.94144  1.0000
  O   O1        1.0  0.47874  0.20766  0.27415  1.0000
  O   O2        1.0  0.52125  0.70764  0.72585  1.0000
  O   O3        1.0  0.79505  0.29220  0.27417  1.0000
  O   O4        1.0  0.20495  0.79218  0.72583  1.0000
  O   O5        1.0  0.85831  0.98081  0.73426  1.0000
  O   O6        1.0  0.14168  0.48082  0.26573  1.0000
  O   O7        1.0  0.87635  0.51929  0.73411  1.0000
  O   O8        1.0  0.12365  0.01929  0.26589  1.0000
  O   O9        1.0  0.59633  0.16786  0.56160  1.0000
  O   O10       1.0  0.40368  0.66786  0.43840  1.0000
  O   O11       1.0  0.96563  0.33243  0.56163  1.0000
  O   O12       1.0  0.03438  0.83240  0.43837  1.0000
  O   O13       1.0  0.70723  0.92649  0.51219  1.0000
  O   O14       1.0  0.29280  0.42648  0.48781  1.0000
  O   O15       1.0  0.80491  0.57358  0.51218  1.0000
  O   O16       1.0  0.19509  0.07357  0.48782  1.0000
  O   O17       1.0  0.50887  0.23578  0.69320  1.0000
  O   O18       1.0  0.49113  0.73577  0.30680  1.0000
  O   O19       1.0  0.18514  0.26370  0.69322  1.0000
  O   O20       1.0  0.81485  0.76369  0.30678  1.0000
  O   O21       1.0  0.62018  0.05546  0.38992  1.0000
  O   O22       1.0  0.37984  0.55544  0.61008  1.0000
  O   O23       1.0  0.76987  0.44456  0.38995  1.0000
  O   O24       1.0  0.23013  0.94456  0.61005  1.0000
