data_image0
_chemical_formula_structural       Cd2H28C24N8O10
_chemical_formula_sum              "Cd2 H28 C24 N8 O10"
_cell_length_a       8.4428
_cell_length_b       9.67479
_cell_length_c       11.3236
_cell_angle_alpha    110.249
_cell_angle_beta     89.9984
_cell_angle_gamma    89.9998

_space_group_name_H-M_alt    "P 1"
_space_group_IT_number       1

loop_
  _space_group_symop_operation_xyz
  'x, y, z'

loop_
  _atom_site_type_symbol
  _atom_site_label
  _atom_site_symmetry_multiplicity
  _atom_site_fract_x
  _atom_site_fract_y
  _atom_site_fract_z
  _atom_site_occupancy
  Cd  Cd1       1.0  0.49720  0.48907  0.89866  1.0000
  Cd  Cd2       1.0  0.99718  0.51094  0.10133  1.0000
  H   H1        1.0  0.71563  0.55249  0.76208  1.0000
  H   H2        1.0  0.21561  0.44750  0.23791  1.0000
  H   H3        1.0  0.81258  0.43238  0.79792  1.0000
  H   H4        1.0  0.31255  0.56761  0.20208  1.0000
  H   H5        1.0  0.53413  0.38810  0.58478  1.0000
  H   H6        1.0  0.03410  0.61191  0.41520  1.0000
  H   H7        1.0  0.36361  0.32499  0.39165  1.0000
  H   H8        1.0  0.86359  0.67501  0.60835  1.0000
  H   H9        1.0  0.06980  0.31865  0.41635  1.0000
  H   H10       1.0  0.56978  0.68135  0.58366  1.0000
  H   H11       1.0  0.95613  0.36670  0.63306  1.0000
  H   H12       1.0  0.45610  0.63331  0.36696  1.0000
  H   H13       1.0  0.72849  0.93726  0.72261  1.0000
  H   H14       1.0  0.22847  0.06274  0.27738  1.0000
  H   H15       1.0  0.68679  0.20286  0.74531  1.0000
  H   H16       1.0  0.18677  0.79713  0.25468  1.0000
  H   H17       1.0  0.37294  0.26642  0.04061  1.0000
  H   H18       1.0  0.87296  0.73358  0.95938  1.0000
  H   H19       1.0  0.39460  0.00135  0.02503  1.0000
  H   H20       1.0  0.89462  0.99865  0.97496  1.0000
  H   H21       1.0  0.64259  0.19194  0.23760  1.0000
  H   H22       1.0  0.14260  0.80804  0.76242  1.0000
  H   H23       1.0  0.79631  0.20841  0.32993  1.0000
  H   H24       1.0  0.29631  0.79156  0.67007  1.0000
  H   H25       1.0  0.69368  0.98712  0.31802  1.0000
  H   H26       1.0  0.19369  0.01287  0.68199  1.0000
  H   H27       1.0  0.60999  0.10153  0.44624  1.0000
  H   H28       1.0  0.10998  0.89847  0.55378  1.0000
  C   C1        1.0  0.40538  0.38239  0.59081  1.0000
  C   C2        1.0  0.90536  0.61761  0.40918  1.0000
  C   C3        1.0  0.31012  0.34784  0.48384  1.0000
  C   C4        1.0  0.81010  0.65216  0.51615  1.0000
  C   C5        1.0  0.14654  0.34285  0.49834  1.0000
  C   C6        1.0  0.64652  0.65715  0.50168  1.0000
  C   C7        1.0  0.08337  0.36945  0.61794  1.0000
  C   C8        1.0  0.58335  0.63055  0.38207  1.0000
  C   C9        1.0  0.18719  0.40215  0.72010  1.0000
  C   C10       1.0  0.68717  0.59786  0.27990  1.0000
  C   C11       1.0  0.12795  0.43071  0.85212  1.0000
  C   C12       1.0  0.62793  0.56929  0.14788  1.0000
  C   C13       1.0  0.58208  0.78884  0.85709  1.0000
  C   C14       1.0  0.08207  0.21117  0.14291  1.0000
  C   C15       1.0  0.56153  0.94897  0.87101  1.0000
  C   C16       1.0  0.06153  0.05104  0.12898  1.0000
  C   C17       1.0  0.64609  0.00642  0.79213  1.0000
  C   C18       1.0  0.14608  0.99359  0.20786  1.0000
  C   C19       1.0  0.62491  0.15346  0.80532  1.0000
  C   C20       1.0  0.12490  0.84655  0.19468  1.0000
  C   C21       1.0  0.44883  0.18960  0.97024  1.0000
  C   C22       1.0  0.94885  0.81040  0.02974  1.0000
  C   C23       1.0  0.46104  0.04281  0.96183  1.0000
  C   C24       1.0  0.96105  0.95720  0.03816  1.0000
  N   N1        1.0  0.34516  0.40987  0.70634  1.0000
  N   N2        1.0  0.84513  0.59014  0.29366  1.0000
  N   N3        1.0  0.52825  0.24371  0.89269  1.0000
  N   N4        1.0  0.02825  0.75629  0.10729  1.0000
  N   N5        1.0  0.67510  0.20263  0.32717  1.0000
  N   N6        1.0  0.17510  0.79735  0.67284  1.0000
  N   N7        1.0  0.61762  0.07472  0.35096  1.0000
  N   N8        1.0  0.11762  0.92527  0.64906  1.0000
  O   O1        1.0  0.22701  0.46309  0.94218  1.0000
  O   O2        1.0  0.72698  0.53691  0.05782  1.0000
  O   O3        1.0  0.71407  0.44479  0.75395  1.0000
  O   O4        1.0  0.21405  0.55521  0.24604  1.0000
  O   O5        1.0  0.98036  0.42209  0.87061  1.0000
  O   O6        1.0  0.48034  0.57793  0.12940  1.0000
  O   O7        1.0  0.47977  0.73305  0.90986  1.0000
  O   O8        1.0  0.97976  0.26696  0.09015  1.0000
  O   O9        1.0  0.70068  0.72445  0.79234  1.0000
  O   O10       1.0  0.20066  0.27555  0.20767  1.0000
