data_image0
_chemical_formula_structural       Cd2H20C28N8O8
_chemical_formula_sum              "Cd2 H20 C28 N8 O8"
_cell_length_a       7.88002
_cell_length_b       8.90227
_cell_length_c       10.1998
_cell_angle_alpha    89.7973
_cell_angle_beta     101.568
_cell_angle_gamma    104.859

_space_group_name_H-M_alt    "P 1"
_space_group_IT_number       1

loop_
  _space_group_symop_operation_xyz
  'x, y, z'

loop_
  _atom_site_type_symbol
  _atom_site_label
  _atom_site_symmetry_multiplicity
  _atom_site_fract_x
  _atom_site_fract_y
  _atom_site_fract_z
  _atom_site_occupancy
  Cd  Cd1       1.0  0.43254  0.66296  0.84292  1.0000
  Cd  Cd2       1.0  0.56746  0.33704  0.15707  1.0000
  H   H1        1.0  0.10112  0.36605  0.58846  1.0000
  H   H2        1.0  0.89888  0.63395  0.41154  1.0000
  H   H3        1.0  0.73663  0.32423  0.58279  1.0000
  H   H4        1.0  0.26337  0.67578  0.41721  1.0000
  H   H5        1.0  0.06428  0.93424  0.14880  1.0000
  H   H6        1.0  0.93572  0.06576  0.85120  1.0000
  H   H7        1.0  0.39850  0.94661  0.09853  1.0000
  H   H8        1.0  0.60150  0.05339  0.90147  1.0000
  H   H9        1.0  0.52982  0.61960  0.39613  1.0000
  H   H10       1.0  0.47019  0.38040  0.60387  1.0000
  H   H11       1.0  0.78722  0.99501  0.17855  1.0000
  H   H12       1.0  0.21277  0.00498  0.82145  1.0000
  H   H13       1.0  0.88286  0.16818  0.38643  1.0000
  H   H14       1.0  0.11713  0.83182  0.61356  1.0000
  H   H15       1.0  0.79419  0.06504  0.59892  1.0000
  H   H16       1.0  0.20582  0.93496  0.40108  1.0000
  H   H17       1.0  0.72220  0.48195  0.78359  1.0000
  H   H18       1.0  0.27780  0.51805  0.21641  1.0000
  H   H19       1.0  0.84612  0.72409  0.99239  1.0000
  H   H20       1.0  0.15388  0.27591  0.00761  1.0000
  C   C1        1.0  0.03518  0.41685  0.65330  1.0000
  C   C2        1.0  0.96482  0.58315  0.34669  1.0000
  C   C3        1.0  0.85481  0.39267  0.65088  1.0000
  C   C4        1.0  0.14519  0.60733  0.34912  1.0000
  C   C5        1.0  0.01133  0.56604  0.81384  1.0000
  C   C6        1.0  0.98867  0.43396  0.18617  1.0000
  C   C7        1.0  0.07345  0.68772  0.91869  1.0000
  C   C8        1.0  0.92655  0.31228  0.08132  1.0000
  C   C9        1.0  0.10366  0.86522  0.07918  1.0000
  C   C10       1.0  0.89634  0.13478  0.92082  1.0000
  C   C11       1.0  0.26952  0.87049  0.05256  1.0000
  C   C12       1.0  0.73047  0.12951  0.94745  1.0000
  C   C13       1.0  0.65463  0.83719  0.50954  1.0000
  C   C14       1.0  0.34537  0.16281  0.49046  1.0000
  C   C15       1.0  0.60366  0.74061  0.39270  1.0000
  C   C16       1.0  0.39635  0.25939  0.60730  1.0000
  C   C17       1.0  0.65049  0.79748  0.27337  1.0000
  C   C18       1.0  0.34951  0.20252  0.72663  1.0000
  C   C19       1.0  0.75264  0.95177  0.27224  1.0000
  C   C20       1.0  0.24736  0.04823  0.72775  1.0000
  C   C21       1.0  0.80503  0.04801  0.38871  1.0000
  C   C22       1.0  0.19497  0.95198  0.61128  1.0000
  C   C23       1.0  0.75627  0.99111  0.50735  1.0000
  C   C24       1.0  0.24373  0.00889  0.49265  1.0000
  C   C25       1.0  0.58914  0.77648  0.63254  1.0000
  C   C26       1.0  0.41088  0.22353  0.36746  1.0000
  C   C27       1.0  0.58561  0.69588  0.14725  1.0000
  C   C28       1.0  0.41439  0.30412  0.85275  1.0000
  N   N1        1.0  0.13139  0.52377  0.75532  1.0000
  N   N2        1.0  0.86861  0.47623  0.24468  1.0000
  N   N3        1.0  0.84171  0.48750  0.75285  1.0000
  N   N4        1.0  0.15829  0.51249  0.24715  1.0000
  N   N5        1.0  0.24940  0.76047  0.95273  1.0000
  N   N6        1.0  0.75060  0.23953  0.04728  1.0000
  N   N7        1.0  0.98189  0.74971  0.99422  1.0000
  N   N8        1.0  0.01811  0.25029  0.00578  1.0000
  O   O1        1.0  0.46022  0.65263  0.61751  1.0000
  O   O2        1.0  0.53980  0.34737  0.38250  1.0000
  O   O3        1.0  0.65717  0.84946  0.74595  1.0000
  O   O4        1.0  0.34284  0.15055  0.25405  1.0000
  O   O5        1.0  0.46858  0.56578  0.14677  1.0000
  O   O6        1.0  0.53141  0.43421  0.85324  1.0000
  O   O7        1.0  0.64575  0.74569  0.04345  1.0000
  O   O8        1.0  0.35425  0.25431  0.95655  1.0000
