data_image0
_chemical_formula_structural       Ni2H12C16N4O8
_chemical_formula_sum              "Ni2 H12 C16 N4 O8"
_cell_length_a       6.87427
_cell_length_b       7.15598
_cell_length_c       8.62115
_cell_angle_alpha    90.0009
_cell_angle_beta     112.842
_cell_angle_gamma    89.999

_space_group_name_H-M_alt    "P 1"
_space_group_IT_number       1

loop_
  _space_group_symop_operation_xyz
  'x, y, z'

loop_
  _atom_site_type_symbol
  _atom_site_label
  _atom_site_symmetry_multiplicity
  _atom_site_fract_x
  _atom_site_fract_y
  _atom_site_fract_z
  _atom_site_occupancy
  Ni  Ni1       1.0  0.50000  0.00000  0.50000  1.0000
  Ni  Ni2       1.0  0.50000  0.50000  0.00000  1.0000
  H   H1        1.0  0.00691  0.45302  0.37370  1.0000
  H   H2        1.0  0.99309  0.95302  0.12630  1.0000
  H   H3        1.0  0.99309  0.54698  0.62631  1.0000
  H   H4        1.0  0.00691  0.04698  0.87369  1.0000
  H   H5        1.0  0.15779  0.32698  0.28146  1.0000
  H   H6        1.0  0.84221  0.82698  0.21854  1.0000
  H   H7        1.0  0.84221  0.67302  0.71854  1.0000
  H   H8        1.0  0.15779  0.17302  0.78146  1.0000
  H   H9        1.0  0.27552  0.38495  0.49571  1.0000
  H   H10       1.0  0.72447  0.88494  0.00430  1.0000
  H   H11       1.0  0.72448  0.61506  0.50430  1.0000
  H   H12       1.0  0.27552  0.11505  0.99570  1.0000
  C   C1        1.0  0.84567  0.12144  0.41813  1.0000
  C   C2        1.0  0.15433  0.62144  0.08188  1.0000
  C   C3        1.0  0.15433  0.87856  0.58187  1.0000
  C   C4        1.0  0.84566  0.37855  0.91812  1.0000
  C   C5        1.0  0.05586  0.16352  0.44263  1.0000
  C   C6        1.0  0.94414  0.66351  0.05738  1.0000
  C   C7        1.0  0.94413  0.83648  0.55737  1.0000
  C   C8        1.0  0.05586  0.33648  0.94262  1.0000
  C   C9        1.0  0.65640  0.23392  0.30854  1.0000
  C   C10       1.0  0.34359  0.73391  0.19146  1.0000
  C   C11       1.0  0.34359  0.76609  0.69145  1.0000
  C   C12       1.0  0.65641  0.26609  0.80854  1.0000
  C   C13       1.0  0.12561  0.34411  0.39546  1.0000
  C   C14       1.0  0.87438  0.84412  0.10454  1.0000
  C   C15       1.0  0.87439  0.65588  0.60454  1.0000
  C   C16       1.0  0.12562  0.15588  0.89546  1.0000
  N   N1        1.0  0.79423  0.96425  0.47890  1.0000
  N   N2        1.0  0.20578  0.46425  0.02110  1.0000
  N   N3        1.0  0.20577  0.03575  0.52110  1.0000
  N   N4        1.0  0.79422  0.53575  0.97889  1.0000
  O   O1        1.0  0.48566  0.20774  0.32940  1.0000
  O   O2        1.0  0.51434  0.70775  0.17060  1.0000
  O   O3        1.0  0.51434  0.79227  0.67060  1.0000
  O   O4        1.0  0.48566  0.29226  0.82940  1.0000
  O   O5        1.0  0.68265  0.33461  0.19746  1.0000
  O   O6        1.0  0.31735  0.83460  0.30255  1.0000
  O   O7        1.0  0.31734  0.66538  0.80255  1.0000
  O   O8        1.0  0.68265  0.16540  0.69745  1.0000
