data_image0
_chemical_formula_structural       Cu2H12C16N4O8
_chemical_formula_sum              "Cu2 H12 C16 N4 O8"
_cell_length_a       6.90172
_cell_length_b       8.02254
_cell_length_c       8.07105
_cell_angle_alpha    90.0016
_cell_angle_beta     109.419
_cell_angle_gamma    90.0001

_space_group_name_H-M_alt    "P 1"
_space_group_IT_number       1

loop_
  _space_group_symop_operation_xyz
  'x, y, z'

loop_
  _atom_site_type_symbol
  _atom_site_label
  _atom_site_symmetry_multiplicity
  _atom_site_fract_x
  _atom_site_fract_y
  _atom_site_fract_z
  _atom_site_occupancy
  Cu  Cu1       1.0  0.49999  0.00000  0.50001  1.0000
  Cu  Cu2       1.0  0.50001  0.49999  0.99999  1.0000
  H   H1        1.0  0.02633  0.41361  0.40416  1.0000
  H   H2        1.0  0.97361  0.91360  0.09583  1.0000
  H   H3        1.0  0.97362  0.58640  0.59585  1.0000
  H   H4        1.0  0.02641  0.08640  0.90417  1.0000
  H   H5        1.0  0.20229  0.31373  0.31706  1.0000
  H   H6        1.0  0.79772  0.81375  0.18295  1.0000
  H   H7        1.0  0.79772  0.68629  0.68297  1.0000
  H   H8        1.0  0.20228  0.18626  0.81701  1.0000
  H   H9        1.0  0.27813  0.35055  0.54397  1.0000
  H   H10       1.0  0.72185  0.85051  0.95606  1.0000
  H   H11       1.0  0.72182  0.64947  0.45606  1.0000
  H   H12       1.0  0.27820  0.14948  0.04392  1.0000
  C   C1        1.0  0.85790  0.11910  0.43549  1.0000
  C   C2        1.0  0.14210  0.61910  0.06452  1.0000
  C   C3        1.0  0.14207  0.88090  0.56451  1.0000
  C   C4        1.0  0.85793  0.38089  0.93548  1.0000
  C   C5        1.0  0.06594  0.15258  0.45758  1.0000
  C   C6        1.0  0.93403  0.65257  0.04244  1.0000
  C   C7        1.0  0.93402  0.84743  0.54243  1.0000
  C   C8        1.0  0.06600  0.34742  0.95756  1.0000
  C   C9        1.0  0.68176  0.23744  0.34952  1.0000
  C   C10       1.0  0.31823  0.73744  0.15045  1.0000
  C   C11       1.0  0.31823  0.76257  0.65047  1.0000
  C   C12       1.0  0.68180  0.26256  0.84952  1.0000
  C   C13       1.0  0.14535  0.31870  0.42849  1.0000
  C   C14       1.0  0.85463  0.81870  0.07152  1.0000
  C   C15       1.0  0.85462  0.68131  0.57153  1.0000
  C   C16       1.0  0.14540  0.18130  0.92846  1.0000
  N   N1        1.0  0.79737  0.97178  0.48091  1.0000
  N   N2        1.0  0.20265  0.47179  0.01908  1.0000
  N   N3        1.0  0.20262  0.02821  0.51909  1.0000
  N   N4        1.0  0.79737  0.52820  0.98091  1.0000
  O   O1        1.0  0.50785  0.19654  0.36410  1.0000
  O   O2        1.0  0.49216  0.69653  0.13591  1.0000
  O   O3        1.0  0.49212  0.80347  0.63593  1.0000
  O   O4        1.0  0.50786  0.30346  0.86406  1.0000
  O   O5        1.0  0.70824  0.35996  0.26439  1.0000
  O   O6        1.0  0.29172  0.86000  0.23564  1.0000
  O   O7        1.0  0.29174  0.64003  0.73562  1.0000
  O   O8        1.0  0.70830  0.14000  0.76434  1.0000
