data_image0
_chemical_formula_structural       Ag2H20C14N6O6
_chemical_formula_sum              "Ag2 H20 C14 N6 O6"
_cell_length_a       7.53268
_cell_length_b       7.75755
_cell_length_c       8.20012
_cell_angle_alpha    95.7006
_cell_angle_beta     108.358
_cell_angle_gamma    99.8248

_space_group_name_H-M_alt    "P 1"
_space_group_IT_number       1

loop_
  _space_group_symop_operation_xyz
  'x, y, z'

loop_
  _atom_site_type_symbol
  _atom_site_label
  _atom_site_symmetry_multiplicity
  _atom_site_fract_x
  _atom_site_fract_y
  _atom_site_fract_z
  _atom_site_occupancy
  Ag  Ag1       1.0  0.35360  0.10770  0.41810  1.0000
  Ag  Ag2       1.0  0.64641  0.89230  0.58191  1.0000
  H   H1        1.0  0.10756  0.30290  0.55734  1.0000
  H   H2        1.0  0.89243  0.69710  0.44266  1.0000
  H   H3        1.0  0.13517  0.58333  0.75413  1.0000
  H   H4        1.0  0.86485  0.41668  0.24586  1.0000
  H   H5        1.0  0.46340  0.76476  0.92857  1.0000
  H   H6        1.0  0.53660  0.23524  0.07143  1.0000
  H   H7        1.0  0.74794  0.66171  0.89656  1.0000
  H   H8        1.0  0.25207  0.33829  0.10345  1.0000
  H   H9        1.0  0.86096  0.47846  0.70220  1.0000
  H   H10       1.0  0.13905  0.52153  0.29781  1.0000
  H   H11       1.0  0.70909  0.28547  0.55986  1.0000
  H   H12       1.0  0.29091  0.71452  0.44015  1.0000
  H   H13       1.0  0.95957  0.22013  0.81784  1.0000
  H   H14       1.0  0.04043  0.77986  0.18217  1.0000
  H   H15       1.0  0.86349  0.32960  0.95948  1.0000
  H   H16       1.0  0.13651  0.67040  0.04053  1.0000
  H   H17       1.0  0.73997  0.02468  0.91796  1.0000
  H   H18       1.0  0.26002  0.97531  0.08204  1.0000
  H   H19       1.0  0.55896  0.10429  0.80820  1.0000
  H   H20       1.0  0.44104  0.89570  0.19181  1.0000
  C   C1        1.0  0.24661  0.38709  0.63512  1.0000
  C   C2        1.0  0.75339  0.61291  0.36486  1.0000
  C   C3        1.0  0.26300  0.54094  0.74600  1.0000
  C   C4        1.0  0.73700  0.45908  0.25399  1.0000
  C   C5        1.0  0.44460  0.64264  0.84155  1.0000
  C   C6        1.0  0.55541  0.35738  0.15843  1.0000
  C   C7        1.0  0.60376  0.58571  0.82356  1.0000
  C   C8        1.0  0.39623  0.41430  0.17642  1.0000
  C   C9        1.0  0.57864  0.42988  0.70944  1.0000
  C   C10       1.0  0.42137  0.57012  0.29055  1.0000
  C   C11       1.0  0.74760  0.36360  0.69029  1.0000
  C   C12       1.0  0.25240  0.63639  0.30971  1.0000
  C   C13       1.0  0.82682  0.25209  0.82874  1.0000
  C   C14       1.0  0.17318  0.74791  0.17127  1.0000
  N   N1        1.0  0.40134  0.33355  0.61565  1.0000
  N   N2        1.0  0.59867  0.66645  0.38434  1.0000
  N   N3        1.0  0.69082  0.08332  0.80975  1.0000
  N   N4        1.0  0.30918  0.91667  0.19026  1.0000
  N   N5        1.0  0.15353  0.93618  0.73821  1.0000
  N   N6        1.0  0.84646  0.06382  0.26179  1.0000
  O   O1        1.0  0.15922  0.89824  0.58669  1.0000
  O   O2        1.0  0.84076  0.10177  0.41331  1.0000
  O   O3        1.0  0.01518  0.85761  0.77938  1.0000
  O   O4        1.0  0.98482  0.14240  0.22063  1.0000
  O   O5        1.0  0.28745  0.05230  0.85175  1.0000
  O   O6        1.0  0.71255  0.94769  0.14825  1.0000
