data_image0
_chemical_formula_structural       Ag4H12C20O12
_chemical_formula_sum              "Ag4 H12 C20 O12"
_cell_length_a       4.40636
_cell_length_b       6.08623
_cell_length_c       23.6319
_cell_angle_alpha    90.002
_cell_angle_beta     89.997
_cell_angle_gamma    119.153

_space_group_name_H-M_alt    "P 1"
_space_group_IT_number       1

loop_
  _space_group_symop_operation_xyz
  'x, y, z'

loop_
  _atom_site_type_symbol
  _atom_site_label
  _atom_site_symmetry_multiplicity
  _atom_site_fract_x
  _atom_site_fract_y
  _atom_site_fract_z
  _atom_site_occupancy
  Ag  Ag1       1.0  0.85711  0.14226  0.52452  1.0000
  Ag  Ag2       1.0  0.64289  0.35774  0.02450  1.0000
  Ag  Ag3       1.0  0.14284  0.85771  0.47549  1.0000
  Ag  Ag4       1.0  0.35721  0.64233  0.97549  1.0000
  H   H1        1.0  0.20632  0.54708  0.67968  1.0000
  H   H2        1.0  0.29359  0.95287  0.17968  1.0000
  H   H3        1.0  0.79364  0.45290  0.32032  1.0000
  H   H4        1.0  0.70637  0.04709  0.82031  1.0000
  H   H5        1.0  0.10989  0.12911  0.73859  1.0000
  H   H6        1.0  0.39009  0.37087  0.23859  1.0000
  H   H7        1.0  0.89015  0.87090  0.26142  1.0000
  H   H8        1.0  0.60995  0.62907  0.76141  1.0000
  H   H9        1.0  0.45193  0.93608  0.67389  1.0000
  H   H10       1.0  0.04809  0.56393  0.17390  1.0000
  H   H11       1.0  0.54802  0.06388  0.32611  1.0000
  H   H12       1.0  0.95199  0.43611  0.82612  1.0000
  C   C1        1.0  0.25205  0.20220  0.69945  1.0000
  C   C2        1.0  0.24796  0.29780  0.19945  1.0000
  C   C3        1.0  0.74799  0.79782  0.30056  1.0000
  C   C4        1.0  0.75206  0.70219  0.80056  1.0000
  C   C5        1.0  0.50549  0.44027  0.62264  1.0000
  C   C6        1.0  0.99452  0.05972  0.12263  1.0000
  C   C7        1.0  0.49439  0.55967  0.37736  1.0000
  C   C8        1.0  0.00551  0.94030  0.87736  1.0000
  C   C9        1.0  0.30812  0.42192  0.66934  1.0000
  C   C10       1.0  0.19191  0.07809  0.16933  1.0000
  C   C11       1.0  0.69188  0.57807  0.33066  1.0000
  C   C12       1.0  0.80812  0.92190  0.83066  1.0000
  C   C13       1.0  0.41637  0.09889  0.66914  1.0000
  C   C14       1.0  0.08361  0.40110  0.16915  1.0000
  C   C15       1.0  0.58361  0.90110  0.33085  1.0000
  C   C16       1.0  0.91647  0.59893  0.83086  1.0000
  C   C17       1.0  0.66905  0.62899  0.57755  1.0000
  C   C18       1.0  0.83095  0.87105  0.07754  1.0000
  C   C19       1.0  0.33084  0.37098  0.42245  1.0000
  C   C20       1.0  0.16911  0.12906  0.92245  1.0000
  O   O1        1.0  0.56990  0.24045  0.62241  1.0000
  O   O2        1.0  0.93009  0.25953  0.12241  1.0000
  O   O3        1.0  0.42999  0.75949  0.37759  1.0000
  O   O4        1.0  0.06997  0.74053  0.87759  1.0000
  O   O5        1.0  0.63391  0.82390  0.58227  1.0000
  O   O6        1.0  0.86606  0.67607  0.08227  1.0000
  O   O7        1.0  0.36599  0.17606  0.41773  1.0000
  O   O8        1.0  0.13395  0.32395  0.91772  1.0000
  O   O9        1.0  0.83303  0.58086  0.53941  1.0000
  O   O10       1.0  0.66701  0.91916  0.03941  1.0000
  O   O11       1.0  0.16689  0.41910  0.46059  1.0000
  O   O12       1.0  0.33312  0.08092  0.96059  1.0000
