data_image0
_chemical_formula_structural       Ag4H48C52S8Cl4O16
_chemical_formula_sum              "Ag4 H48 C52 S8 Cl4 O16"
_cell_length_a       9.31123
_cell_length_b       11.0117
_cell_length_c       14.5623
_cell_angle_alpha    90
_cell_angle_beta     96.6803
_cell_angle_gamma    90

_space_group_name_H-M_alt    "P 1"
_space_group_IT_number       1

loop_
  _space_group_symop_operation_xyz
  'x, y, z'

loop_
  _atom_site_type_symbol
  _atom_site_label
  _atom_site_symmetry_multiplicity
  _atom_site_fract_x
  _atom_site_fract_y
  _atom_site_fract_z
  _atom_site_occupancy
  Ag  Ag1       1.0  0.84692  0.40653  0.32763  1.0000
  Ag  Ag2       1.0  0.65308  0.90653  0.17237  1.0000
  Ag  Ag3       1.0  0.15308  0.59347  0.67237  1.0000
  Ag  Ag4       1.0  0.34692  0.09347  0.82763  1.0000
  H   H1        1.0  0.99821  0.22027  0.45802  1.0000
  H   H2        1.0  0.50180  0.72027  0.04198  1.0000
  H   H3        1.0  0.00179  0.77973  0.54198  1.0000
  H   H4        1.0  0.49820  0.27973  0.95802  1.0000
  H   H5        1.0  0.15044  0.09089  0.57072  1.0000
  H   H6        1.0  0.34956  0.59089  0.92928  1.0000
  H   H7        1.0  0.84956  0.90911  0.42928  1.0000
  H   H8        1.0  0.65044  0.40911  0.07072  1.0000
  H   H9        1.0  0.35953  0.97733  0.52129  1.0000
  H   H10       1.0  0.14047  0.47733  0.97871  1.0000
  H   H11       1.0  0.64047  0.02267  0.47871  1.0000
  H   H12       1.0  0.85953  0.52267  0.02129  1.0000
  H   H13       1.0  0.41226  0.98866  0.35737  1.0000
  H   H14       1.0  0.08774  0.48865  0.14263  1.0000
  H   H15       1.0  0.58774  0.01134  0.64263  1.0000
  H   H16       1.0  0.91226  0.51134  0.85737  1.0000
  H   H17       1.0  0.26113  0.11771  0.24526  1.0000
  H   H18       1.0  0.23887  0.61771  0.25474  1.0000
  H   H19       1.0  0.73887  0.88229  0.75474  1.0000
  H   H20       1.0  0.76113  0.38229  0.74526  1.0000
  H   H21       1.0  0.97895  0.08116  0.17177  1.0000
  H   H22       1.0  0.52105  0.58116  0.32823  1.0000
  H   H23       1.0  0.02105  0.91884  0.82823  1.0000
  H   H24       1.0  0.47895  0.41884  0.67177  1.0000
  H   H25       1.0  0.84672  0.19353  0.13645  1.0000
  H   H26       1.0  0.65328  0.69353  0.36355  1.0000
  H   H27       1.0  0.15328  0.80647  0.86355  1.0000
  H   H28       1.0  0.34672  0.30647  0.63645  1.0000
  H   H29       1.0  0.70054  0.20571  0.41770  1.0000
  H   H30       1.0  0.79947  0.70571  0.08230  1.0000
  H   H31       1.0  0.29947  0.79429  0.58230  1.0000
  H   H32       1.0  0.20053  0.29429  0.91770  1.0000
  H   H33       1.0  0.50737  0.35897  0.42963  1.0000
  H   H34       1.0  0.99263  0.85897  0.07038  1.0000
  H   H35       1.0  0.49262  0.64103  0.57038  1.0000
  H   H36       1.0  0.00737  0.14103  0.92962  1.0000
  H   H37       1.0  0.34646  0.42049  0.28873  1.0000
  H   H38       1.0  0.15354  0.92049  0.21128  1.0000
  H   H39       1.0  0.65354  0.57951  0.71127  1.0000
  H   H40       1.0  0.84646  0.07950  0.78872  1.0000
  H   H41       1.0  0.38317  0.33449  0.13555  1.0000
  H   H42       1.0  0.11683  0.83449  0.36445  1.0000
  H   H43       1.0  0.61683  0.66551  0.86445  1.0000
  H   H44       1.0  0.88317  0.16551  0.63555  1.0000
  H   H45       1.0  0.57302  0.17845  0.12318  1.0000
  H   H46       1.0  0.92698  0.67845  0.37682  1.0000
  H   H47       1.0  0.42698  0.82155  0.87682  1.0000
  H   H48       1.0  0.07302  0.32155  0.62318  1.0000
  C   C1        1.0  0.08842  0.16901  0.43625  1.0000
  C   C2        1.0  0.41159  0.66901  0.06375  1.0000
  C   C3        1.0  0.91158  0.83099  0.56375  1.0000
  C   C4        1.0  0.58841  0.33100  0.93625  1.0000
  C   C5        1.0  0.17521  0.09740  0.49956  1.0000
  C   C6        1.0  0.32479  0.59740  0.00044  1.0000
  C   C7        1.0  0.82478  0.90260  0.50044  1.0000
  C   C8        1.0  0.67521  0.40260  0.99956  1.0000
  C   C9        1.0  0.29192  0.03301  0.47165  1.0000
  C   C10       1.0  0.20808  0.53301  0.02834  1.0000
  C   C11       1.0  0.70808  0.96699  0.52835  1.0000
  C   C12       1.0  0.79192  0.46699  0.97165  1.0000
  C   C13       1.0  0.32237  0.03961  0.38007  1.0000
  C   C14       1.0  0.17763  0.53961  0.11993  1.0000
  C   C15       1.0  0.67763  0.96039  0.61994  1.0000
  C   C16       1.0  0.82237  0.46039  0.88007  1.0000
  C   C17       1.0  0.23701  0.11139  0.31646  1.0000
  C   C18       1.0  0.26299  0.61139  0.18354  1.0000
  C   C19       1.0  0.76299  0.88861  0.68354  1.0000
  C   C20       1.0  0.73701  0.38861  0.81646  1.0000
  C   C21       1.0  0.11986  0.17527  0.34481  1.0000
  C   C22       1.0  0.38014  0.67527  0.15519  1.0000
  C   C23       1.0  0.88014  0.82473  0.65519  1.0000
  C   C24       1.0  0.61986  0.32473  0.84481  1.0000
  C   C25       1.0  0.90709  0.14949  0.19648  1.0000
  C   C26       1.0  0.59291  0.64949  0.30352  1.0000
  C   C27       1.0  0.09291  0.85051  0.80352  1.0000
  C   C28       1.0  0.40709  0.35051  0.69648  1.0000
  C   C29       1.0  0.64815  0.18282  0.26958  1.0000
  C   C30       1.0  0.85185  0.68282  0.23042  1.0000
  C   C31       1.0  0.35185  0.81718  0.73042  1.0000
  C   C32       1.0  0.14815  0.31718  0.76958  1.0000
  C   C33       1.0  0.63160  0.23462  0.35595  1.0000
  C   C34       1.0  0.86840  0.73462  0.14406  1.0000
  C   C35       1.0  0.36840  0.76538  0.64406  1.0000
  C   C36       1.0  0.13160  0.26538  0.85594  1.0000
  C   C37       1.0  0.52241  0.32065  0.36249  1.0000
  C   C38       1.0  0.97759  0.82065  0.13751  1.0000
  C   C39       1.0  0.47759  0.67935  0.63751  1.0000
  C   C40       1.0  0.02241  0.17935  0.86249  1.0000
  C   C41       1.0  0.43348  0.35584  0.28320  1.0000
  C   C42       1.0  0.06652  0.85584  0.21680  1.0000
  C   C43       1.0  0.56652  0.64416  0.71680  1.0000
  C   C44       1.0  0.93348  0.14416  0.78320  1.0000
  C   C45       1.0  0.45365  0.30690  0.19705  1.0000
  C   C46       1.0  0.04635  0.80690  0.30295  1.0000
  C   C47       1.0  0.54635  0.69310  0.80295  1.0000
  C   C48       1.0  0.95365  0.19310  0.69705  1.0000
  C   C49       1.0  0.56020  0.21962  0.18980  1.0000
  C   C50       1.0  0.93980  0.71962  0.31021  1.0000
  C   C51       1.0  0.43980  0.78038  0.81021  1.0000
  C   C52       1.0  0.06019  0.28038  0.68979  1.0000
  S   S1        1.0  0.01504  0.26523  0.26009  1.0000
  S   S2        1.0  0.48496  0.76523  0.23991  1.0000
  S   S3        1.0  0.98496  0.73477  0.73991  1.0000
  S   S4        1.0  0.51504  0.23477  0.76009  1.0000
  S   S5        1.0  0.78335  0.06976  0.26365  1.0000
  S   S6        1.0  0.71665  0.56976  0.23635  1.0000
  S   S7        1.0  0.21665  0.93024  0.73635  1.0000
  S   S8        1.0  0.28335  0.43024  0.76365  1.0000
  Cl  Cl1       1.0  0.78569  0.47042  0.54871  1.0000
  Cl  Cl2       1.0  0.71431  0.97042  0.95129  1.0000
  Cl  Cl3       1.0  0.21431  0.52958  0.45129  1.0000
  Cl  Cl4       1.0  0.28569  0.02958  0.04871  1.0000
  O   O1        1.0  0.87433  0.38973  0.49610  1.0000
  O   O2        1.0  0.62567  0.88973  0.00390  1.0000
  O   O3        1.0  0.12567  0.61027  0.50390  1.0000
  O   O4        1.0  0.37433  0.11027  0.99610  1.0000
  O   O5        1.0  0.87486  0.51029  0.63274  1.0000
  O   O6        1.0  0.62514  0.01029  0.86726  1.0000
  O   O7        1.0  0.12514  0.48971  0.36726  1.0000
  O   O8        1.0  0.37486  0.98971  0.13274  1.0000
  O   O9        1.0  0.66224  0.40209  0.57411  1.0000
  O   O10       1.0  0.83776  0.90210  0.92589  1.0000
  O   O11       1.0  0.33776  0.59791  0.42589  1.0000
  O   O12       1.0  0.16224  0.09791  0.07411  1.0000
  O   O13       1.0  0.73777  0.57433  0.49183  1.0000
  O   O14       1.0  0.76223  0.07433  0.00817  1.0000
  O   O15       1.0  0.26223  0.42567  0.50817  1.0000
  O   O16       1.0  0.23777  0.92567  0.99183  1.0000
