data_image0
_chemical_formula_structural       Ag4H48C60S8O8F8
_chemical_formula_sum              "Ag4 H48 C60 S8 O8 F8"
_cell_length_a       10.8959
_cell_length_b       11.2427
_cell_length_c       13.0694
_cell_angle_alpha    99.3903
_cell_angle_beta     90.3863
_cell_angle_gamma    99.4593

_space_group_name_H-M_alt    "P 1"
_space_group_IT_number       1

loop_
  _space_group_symop_operation_xyz
  'x, y, z'

loop_
  _atom_site_type_symbol
  _atom_site_label
  _atom_site_symmetry_multiplicity
  _atom_site_fract_x
  _atom_site_fract_y
  _atom_site_fract_z
  _atom_site_occupancy
  Ag  Ag1       1.0  0.40029  0.06098  0.47009  1.0000
  Ag  Ag2       1.0  0.59971  0.93902  0.52991  1.0000
  Ag  Ag3       1.0  0.42368  0.09253  0.98451  1.0000
  Ag  Ag4       1.0  0.57632  0.90747  0.01549  1.0000
  H   H1        1.0  0.16703  0.05565  0.57648  1.0000
  H   H2        1.0  0.83297  0.94435  0.42352  1.0000
  H   H3        1.0  0.94528  0.08346  0.58527  1.0000
  H   H4        1.0  0.05472  0.91654  0.41473  1.0000
  H   H5        1.0  0.89095  0.28749  0.64997  1.0000
  H   H6        1.0  0.10905  0.71251  0.35003  1.0000
  H   H7        1.0  0.06003  0.46637  0.70705  1.0000
  H   H8        1.0  0.93997  0.53363  0.29295  1.0000
  H   H9        1.0  0.28126  0.43978  0.69440  1.0000
  H   H10       1.0  0.71874  0.56021  0.30560  1.0000
  H   H11       1.0  0.05368  0.26549  0.38158  1.0000
  H   H12       1.0  0.94632  0.73451  0.61842  1.0000
  H   H13       1.0  0.07484  0.49186  0.42323  1.0000
  H   H14       1.0  0.92516  0.50814  0.57677  1.0000
  H   H15       1.0  0.28466  0.62147  0.43123  1.0000
  H   H16       1.0  0.71534  0.37853  0.56877  1.0000
  H   H17       1.0  0.47317  0.52361  0.40342  1.0000
  H   H18       1.0  0.52683  0.47639  0.59658  1.0000
  H   H19       1.0  0.45308  0.29753  0.36808  1.0000
  H   H20       1.0  0.54692  0.70247  0.63192  1.0000
  H   H21       1.0  0.35554  0.07694  0.73520  1.0000
  H   H22       1.0  0.64446  0.92306  0.26480  1.0000
  H   H23       1.0  0.51610  0.13736  0.72906  1.0000
  H   H24       1.0  0.48390  0.86264  0.27094  1.0000
  H   H25       1.0  0.67625  0.24740  0.86275  1.0000
  H   H26       1.0  0.32375  0.75259  0.13724  1.0000
  H   H27       1.0  0.85780  0.41168  0.86064  1.0000
  H   H28       1.0  0.14219  0.58832  0.13936  1.0000
  H   H29       1.0  0.82525  0.62812  0.86560  1.0000
  H   H30       1.0  0.17475  0.37188  0.13440  1.0000
  H   H31       1.0  0.60965  0.67614  0.87343  1.0000
  H   H32       1.0  0.39035  0.32386  0.12657  1.0000
  H   H33       1.0  0.42926  0.51243  0.87212  1.0000
  H   H34       1.0  0.57074  0.48757  0.12789  1.0000
  H   H35       1.0  0.22667  0.85179  0.00865  1.0000
  H   H36       1.0  0.77333  0.14821  0.99135  1.0000
  H   H37       1.0  0.32963  0.98211  0.21831  1.0000
  H   H38       1.0  0.67037  0.01789  0.78169  1.0000
  H   H39       1.0  0.40781  0.13657  0.23618  1.0000
  H   H40       1.0  0.59219  0.86343  0.76382  1.0000
  H   H41       1.0  0.85019  0.69817  0.07086  1.0000
  H   H42       1.0  0.14981  0.30183  0.92914  1.0000
  H   H43       1.0  0.81855  0.90298  0.16221  1.0000
  H   H44       1.0  0.18145  0.09702  0.83779  1.0000
  H   H45       1.0  0.05490  0.67358  0.99145  1.0000
  H   H46       1.0  0.94510  0.32643  0.00855  1.0000
  H   H47       1.0  0.98882  0.08024  0.17638  1.0000
  H   H48       1.0  0.01118  0.91976  0.82362  1.0000
  C   C1        1.0  0.67112  0.14919  0.40302  1.0000
  C   C2        1.0  0.32888  0.85081  0.59698  1.0000
  C   C3        1.0  0.77196  0.21635  0.33926  1.0000
  C   C4        1.0  0.22804  0.78365  0.66074  1.0000
  C   C5        1.0  0.72240  0.26161  0.24343  1.0000
  C   C6        1.0  0.27760  0.73839  0.75658  1.0000
  C   C7        1.0  0.64252  0.16566  0.15921  1.0000
  C   C8        1.0  0.35748  0.83434  0.84079  1.0000
  C   C9        1.0  0.23739  0.24650  0.63491  1.0000
  C   C10       1.0  0.76261  0.75350  0.36509  1.0000
  C   C11       1.0  0.14318  0.14557  0.60441  1.0000
  C   C12       1.0  0.85682  0.85443  0.39559  1.0000
  C   C13       1.0  0.01891  0.16125  0.60988  1.0000
  C   C14       1.0  0.98109  0.83875  0.39012  1.0000
  C   C15       1.0  0.98849  0.27630  0.64663  1.0000
  C   C16       1.0  0.01151  0.72370  0.35337  1.0000
  C   C17       1.0  0.08268  0.37624  0.67811  1.0000
  C   C18       1.0  0.91732  0.62376  0.32189  1.0000
  C   C19       1.0  0.20746  0.36183  0.67180  1.0000
  C   C20       1.0  0.79254  0.63817  0.32820  1.0000
  C   C21       1.0  0.25171  0.26813  0.37094  1.0000
  C   C22       1.0  0.74829  0.73187  0.62906  1.0000
  C   C23       1.0  0.14516  0.32241  0.38658  1.0000
  C   C24       1.0  0.85484  0.67759  0.61342  1.0000
  C   C25       1.0  0.15772  0.44962  0.40969  1.0000
  C   C26       1.0  0.84228  0.55038  0.59031  1.0000
  C   C27       1.0  0.27538  0.52212  0.41490  1.0000
  C   C28       1.0  0.72462  0.47788  0.58509  1.0000
  C   C29       1.0  0.38129  0.46718  0.39932  1.0000
  C   C30       1.0  0.61871  0.53282  0.60068  1.0000
  C   C31       1.0  0.37022  0.34019  0.37865  1.0000
  C   C32       1.0  0.62978  0.65981  0.62135  1.0000
  C   C33       1.0  0.42257  0.16132  0.73672  1.0000
  C   C34       1.0  0.57743  0.83868  0.26328  1.0000
  C   C35       1.0  0.54159  0.36953  0.86551  1.0000
  C   C36       1.0  0.45840  0.63047  0.13449  1.0000
  C   C37       1.0  0.66221  0.34141  0.86359  1.0000
  C   C38       1.0  0.33779  0.65859  0.13641  1.0000
  C   C39       1.0  0.76418  0.43432  0.86347  1.0000
  C   C40       1.0  0.23581  0.56568  0.13653  1.0000
  C   C41       1.0  0.74611  0.55526  0.86709  1.0000
  C   C42       1.0  0.25389  0.44474  0.13291  1.0000
  C   C43       1.0  0.62580  0.58282  0.87125  1.0000
  C   C44       1.0  0.37419  0.41718  0.12875  1.0000
  C   C45       1.0  0.52305  0.49043  0.87009  1.0000
  C   C46       1.0  0.47695  0.50957  0.12991  1.0000
  C   C47       1.0  0.11820  0.97564  0.09509  1.0000
  C   C48       1.0  0.88180  0.02436  0.90491  1.0000
  C   C49       1.0  0.13721  0.86153  0.04271  1.0000
  C   C50       1.0  0.86279  0.13847  0.95729  1.0000
  C   C51       1.0  0.31640  0.07792  0.22791  1.0000
  C   C52       1.0  0.68360  0.92208  0.77209  1.0000
  C   C53       1.0  0.92577  0.77595  0.07725  1.0000
  C   C54       1.0  0.07423  0.22405  0.92275  1.0000
  C   C55       1.0  0.90754  0.89024  0.12871  1.0000
  C   C56       1.0  0.09246  0.10976  0.87129  1.0000
  C   C57       1.0  0.04043  0.76195  0.03354  1.0000
  C   C58       1.0  0.95957  0.23805  0.96646  1.0000
  C   C59       1.0  0.00317  0.99075  0.13734  1.0000
  C   C60       1.0  0.99683  0.00925  0.86266  1.0000
  S   S1        1.0  0.39768  0.23352  0.62521  1.0000
  S   S2        1.0  0.60232  0.76648  0.37479  1.0000
  S   S3        1.0  0.23157  0.10562  0.34605  1.0000
  S   S4        1.0  0.76843  0.89438  0.65395  1.0000
  S   S5        1.0  0.40852  0.25441  0.86173  1.0000
  S   S6        1.0  0.59147  0.74558  0.13827  1.0000
  S   S7        1.0  0.23929  0.10426  0.11212  1.0000
  S   S8        1.0  0.76071  0.89574  0.88788  1.0000
  O   O1        1.0  0.56176  0.12803  0.36374  1.0000
  O   O2        1.0  0.43824  0.87197  0.63626  1.0000
  O   O3        1.0  0.71063  0.12040  0.48479  1.0000
  O   O4        1.0  0.28937  0.87960  0.51521  1.0000
  O   O5        1.0  0.66544  0.05825  0.14963  1.0000
  O   O6        1.0  0.33456  0.94176  0.85036  1.0000
  O   O7        1.0  0.56846  0.20892  0.10672  1.0000
  O   O8        1.0  0.43154  0.79108  0.89328  1.0000
  F   F1        1.0  0.83895  0.31736  0.40200  1.0000
  F   F2        1.0  0.16105  0.68264  0.59800  1.0000
  F   F3        1.0  0.85586  0.13921  0.30769  1.0000
  F   F4        1.0  0.14414  0.86079  0.69231  1.0000
  F   F5        1.0  0.65717  0.35361  0.28090  1.0000
  F   F6        1.0  0.34283  0.64639  0.71910  1.0000
  F   F7        1.0  0.82504  0.31539  0.19453  1.0000
  F   F8        1.0  0.17496  0.68461  0.80547  1.0000
