data_image0
_chemical_formula_structural       Ag2H24C34S4O4F14
_chemical_formula_sum              "Ag2 H24 C34 S4 O4 F14"
_cell_length_a       6.86196
_cell_length_b       11.0351
_cell_length_c       12.9502
_cell_angle_alpha    87.4211
_cell_angle_beta     83.9791
_cell_angle_gamma    77.1981

_space_group_name_H-M_alt    "P 1"
_space_group_IT_number       1

loop_
  _space_group_symop_operation_xyz
  'x, y, z'

loop_
  _atom_site_type_symbol
  _atom_site_label
  _atom_site_symmetry_multiplicity
  _atom_site_fract_x
  _atom_site_fract_y
  _atom_site_fract_z
  _atom_site_occupancy
  Ag  Ag1       1.0  0.45549  0.37105  0.50342  1.0000
  Ag  Ag2       1.0  0.54451  0.62895  0.49658  1.0000
  H   H1        1.0  0.24189  0.29268  0.70750  1.0000
  H   H2        1.0  0.75811  0.70732  0.29250  1.0000
  H   H3        1.0  0.31043  0.17101  0.86987  1.0000
  H   H4        1.0  0.68956  0.82899  0.13013  1.0000
  H   H5        1.0  0.38550  0.94007  0.86870  1.0000
  H   H6        1.0  0.61449  0.05993  0.13131  1.0000
  H   H7        1.0  0.39005  0.83016  0.70418  1.0000
  H   H8        1.0  0.60994  0.16984  0.29583  1.0000
  H   H9        1.0  0.30955  0.95318  0.54181  1.0000
  H   H10       1.0  0.69045  0.04682  0.45819  1.0000
  H   H11       1.0  0.94344  0.37932  0.46981  1.0000
  H   H12       1.0  0.05656  0.62068  0.53019  1.0000
  H   H13       1.0  0.99104  0.37249  0.60292  1.0000
  H   H14       1.0  0.00896  0.62751  0.39708  1.0000
  H   H15       1.0  0.67347  0.41391  0.73614  1.0000
  H   H16       1.0  0.32654  0.58609  0.26386  1.0000
  H   H17       1.0  0.66034  0.38058  0.92760  1.0000
  H   H18       1.0  0.33966  0.61942  0.07240  1.0000
  H   H19       1.0  0.74823  0.16731  0.00341  1.0000
  H   H20       1.0  0.25177  0.83270  0.99659  1.0000
  H   H21       1.0  0.84450  0.98491  0.88742  1.0000
  H   H22       1.0  0.15549  0.01509  0.11259  1.0000
  H   H23       1.0  0.85713  0.01724  0.69562  1.0000
  H   H24       1.0  0.14287  0.98276  0.30438  1.0000
  C   C1        1.0  0.70246  0.44514  0.30773  1.0000
  C   C2        1.0  0.29754  0.55486  0.69227  1.0000
  C   C3        1.0  0.82558  0.42838  0.19868  1.0000
  C   C4        1.0  0.17442  0.57162  0.80132  1.0000
  C   C5        1.0  0.03664  0.34086  0.20440  1.0000
  C   C6        1.0  0.96336  0.65914  0.79560  1.0000
  C   C7        1.0  0.17579  0.31849  0.10051  1.0000
  C   C8        1.0  0.82421  0.68152  0.89948  1.0000
  C   C9        1.0  0.27260  0.12985  0.61511  1.0000
  C   C10       1.0  0.72740  0.87014  0.38489  1.0000
  C   C11       1.0  0.27241  0.19156  0.70728  1.0000
  C   C12       1.0  0.72759  0.80844  0.29272  1.0000
  C   C13       1.0  0.31015  0.12277  0.79839  1.0000
  C   C14       1.0  0.68985  0.87723  0.20161  1.0000
  C   C15       1.0  0.35261  0.99301  0.79729  1.0000
  C   C16       1.0  0.64738  0.00699  0.20271  1.0000
  C   C17       1.0  0.35592  0.93146  0.70512  1.0000
  C   C18       1.0  0.64407  0.06853  0.29488  1.0000
  C   C19       1.0  0.31355  0.00002  0.61361  1.0000
  C   C20       1.0  0.68646  0.99998  0.38640  1.0000
  C   C21       1.0  0.98026  0.31684  0.53663  1.0000
  C   C22       1.0  0.01974  0.68316  0.46337  1.0000
  C   C23       1.0  0.76741  0.21711  0.70470  1.0000
  C   C24       1.0  0.23258  0.78289  0.29530  1.0000
  C   C25       1.0  0.71098  0.32002  0.76938  1.0000
  C   C26       1.0  0.28902  0.67997  0.23062  1.0000
  C   C27       1.0  0.70387  0.30114  0.87682  1.0000
  C   C28       1.0  0.29613  0.69886  0.12318  1.0000
  C   C29       1.0  0.75198  0.18083  0.91941  1.0000
  C   C30       1.0  0.24802  0.81917  0.08059  1.0000
  C   C31       1.0  0.80625  0.07881  0.85449  1.0000
  C   C32       1.0  0.19375  0.92119  0.14551  1.0000
  C   C33       1.0  0.81378  0.09637  0.74685  1.0000
  C   C34       1.0  0.18622  0.90363  0.25315  1.0000
  S   S1        1.0  0.22141  0.21525  0.49741  1.0000
  S   S2        1.0  0.77859  0.78475  0.50259  1.0000
  S   S3        1.0  0.77727  0.23534  0.56716  1.0000
  S   S4        1.0  0.22273  0.76466  0.43284  1.0000
  O   O1        1.0  0.56193  0.38896  0.32450  1.0000
  O   O2        1.0  0.43808  0.61105  0.67550  1.0000
  O   O3        1.0  0.76377  0.51394  0.36674  1.0000
  O   O4        1.0  0.23623  0.48607  0.63326  1.0000
  F   F1        1.0  0.85206  0.54200  0.15917  1.0000
  F   F2        1.0  0.14794  0.45800  0.84083  1.0000
  F   F3        1.0  0.72613  0.37967  0.12980  1.0000
  F   F4        1.0  0.27387  0.62033  0.87020  1.0000
  F   F5        1.0  0.00874  0.22720  0.24247  1.0000
  F   F6        1.0  0.99126  0.77280  0.75753  1.0000
  F   F7        1.0  0.14012  0.38759  0.27193  1.0000
  F   F8        1.0  0.85988  0.61241  0.72807  1.0000
  F   F9        1.0  0.21913  0.42567  0.06079  1.0000
  F   F10       1.0  0.78088  0.57433  0.93920  1.0000
  F   F11       1.0  0.35014  0.23896  0.11920  1.0000
  F   F12       1.0  0.64986  0.76104  0.88079  1.0000
  F   F13       1.0  0.08965  0.26729  0.02916  1.0000
  F   F14       1.0  0.91035  0.73272  0.97083  1.0000
