data_image0
_chemical_formula_structural       Mn2H32C16N4O20
_chemical_formula_sum              "Mn2 H32 C16 N4 O20"
_cell_length_a       8.0819
_cell_length_b       8.08191
_cell_length_c       9.47273
_cell_angle_alpha    90
_cell_angle_beta     90
_cell_angle_gamma    90

_space_group_name_H-M_alt    "P 1"
_space_group_IT_number       1

loop_
  _space_group_symop_operation_xyz
  'x, y, z'

loop_
  _atom_site_type_symbol
  _atom_site_label
  _atom_site_symmetry_multiplicity
  _atom_site_fract_x
  _atom_site_fract_y
  _atom_site_fract_z
  _atom_site_occupancy
  Mn  Mn1       1.0  0.50000  0.50000  0.00000  1.0000
  Mn  Mn2       1.0  1.00000  0.00000  0.50000  1.0000
  H   H1        1.0  0.01939  0.28992  0.80612  1.0000
  H   H2        1.0  0.98061  0.71008  0.80612  1.0000
  H   H3        1.0  0.28992  0.98061  0.19388  1.0000
  H   H4        1.0  0.71008  0.01939  0.19388  1.0000
  H   H5        1.0  0.48061  0.78992  0.69388  1.0000
  H   H6        1.0  0.51939  0.21008  0.69388  1.0000
  H   H7        1.0  0.21008  0.48061  0.30612  1.0000
  H   H8        1.0  0.78992  0.51939  0.30612  1.0000
  H   H9        1.0  0.85855  0.42909  0.75897  1.0000
  H   H10       1.0  0.14145  0.57091  0.75897  1.0000
  H   H11       1.0  0.42909  0.14145  0.24103  1.0000
  H   H12       1.0  0.57091  0.85855  0.24103  1.0000
  H   H13       1.0  0.64144  0.92909  0.74103  1.0000
  H   H14       1.0  0.35855  0.07091  0.74103  1.0000
  H   H15       1.0  0.07091  0.64144  0.25897  1.0000
  H   H16       1.0  0.92909  0.35855  0.25897  1.0000
  H   H17       1.0  0.08595  0.44192  0.00146  1.0000
  H   H18       1.0  0.91405  0.55808  0.00146  1.0000
  H   H19       1.0  0.44192  0.91405  0.99854  1.0000
  H   H20       1.0  0.55808  0.08595  0.99854  1.0000
  H   H21       1.0  0.41405  0.94192  0.49854  1.0000
  H   H22       1.0  0.58595  0.05808  0.49854  1.0000
  H   H23       1.0  0.05808  0.41405  0.50146  1.0000
  H   H24       1.0  0.94192  0.58595  0.50146  1.0000
  H   H25       1.0  0.45317  0.58999  0.28572  1.0000
  H   H26       1.0  0.54683  0.41001  0.28572  1.0000
  H   H27       1.0  0.58999  0.54683  0.71428  1.0000
  H   H28       1.0  0.41001  0.45317  0.71428  1.0000
  H   H29       1.0  0.04683  0.08999  0.21428  1.0000
  H   H30       1.0  0.95317  0.91001  0.21428  1.0000
  H   H31       1.0  0.91001  0.04683  0.78572  1.0000
  H   H32       1.0  0.08999  0.95317  0.78572  1.0000
  C   C1        1.0  0.79187  0.27084  0.92903  1.0000
  C   C2        1.0  0.20814  0.72916  0.92903  1.0000
  C   C3        1.0  0.27084  0.20814  0.07097  1.0000
  C   C4        1.0  0.72916  0.79187  0.07098  1.0000
  C   C5        1.0  0.70813  0.77084  0.57098  1.0000
  C   C6        1.0  0.29186  0.22916  0.57097  1.0000
  C   C7        1.0  0.22916  0.70813  0.42903  1.0000
  C   C8        1.0  0.77084  0.29186  0.42903  1.0000
  C   C9        1.0  0.92138  0.36920  0.84818  1.0000
  C   C10       1.0  0.07862  0.63080  0.84818  1.0000
  C   C11       1.0  0.36920  0.07862  0.15182  1.0000
  C   C12       1.0  0.63080  0.92138  0.15182  1.0000
  C   C13       1.0  0.57862  0.86920  0.65182  1.0000
  C   C14       1.0  0.42138  0.13080  0.65182  1.0000
  C   C15       1.0  0.13080  0.57862  0.34818  1.0000
  C   C16       1.0  0.86920  0.42138  0.34818  1.0000
  N   N1        1.0  1.00000  0.50000  0.93576  1.0000
  N   N2        1.0  0.50000  1.00000  0.06424  1.0000
  N   N3        1.0  0.50000  0.00000  0.56424  1.0000
  N   N4        1.0  1.00000  0.50000  0.43576  1.0000
  O   O1        1.0  0.71574  0.34327  0.02904  1.0000
  O   O2        1.0  0.28426  0.65673  0.02904  1.0000
  O   O3        1.0  0.34327  0.28426  0.97096  1.0000
  O   O4        1.0  0.65673  0.71574  0.97096  1.0000
  O   O5        1.0  0.78426  0.84327  0.47096  1.0000
  O   O6        1.0  0.21574  0.15673  0.47096  1.0000
  O   O7        1.0  0.15673  0.78426  0.52904  1.0000
  O   O8        1.0  0.84327  0.21574  0.52904  1.0000
  O   O9        1.0  0.76138  0.12487  0.88706  1.0000
  O   O10       1.0  0.23862  0.87513  0.88706  1.0000
  O   O11       1.0  0.12487  0.23862  0.11294  1.0000
  O   O12       1.0  0.87513  0.76139  0.11294  1.0000
  O   O13       1.0  0.73861  0.62487  0.61294  1.0000
  O   O14       1.0  0.26138  0.37513  0.61294  1.0000
  O   O15       1.0  0.37513  0.73861  0.38706  1.0000
  O   O16       1.0  0.62487  0.26138  0.38706  1.0000
  O   O17       1.0  0.50000  0.50000  0.22456  1.0000
  O   O18       1.0  0.50000  0.50000  0.77544  1.0000
  O   O19       1.0  1.00000  0.00000  0.27544  1.0000
  O   O20       1.0  0.00000  1.00000  0.72456  1.0000
