data_image0
_chemical_formula_structural       Zn2H36C36Cl8O16
_chemical_formula_sum              "Zn2 H36 C36 Cl8 O16"
_cell_length_a       7.41561
_cell_length_b       7.9412
_cell_length_c       18.872
_cell_angle_alpha    99.2465
_cell_angle_beta     89.9989
_cell_angle_gamma    90.0002

_space_group_name_H-M_alt    "P 1"
_space_group_IT_number       1

loop_
  _space_group_symop_operation_xyz
  'x, y, z'

loop_
  _atom_site_type_symbol
  _atom_site_label
  _atom_site_symmetry_multiplicity
  _atom_site_fract_x
  _atom_site_fract_y
  _atom_site_fract_z
  _atom_site_occupancy
  Zn  Zn1       1.0  0.50000  0.50000  0.50000  1.0000
  Zn  Zn2       1.0  1.00000  0.00000  0.50000  1.0000
  H   H1        1.0  0.97879  0.46852  0.06443  1.0000
  H   H2        1.0  0.47876  0.03150  0.93557  1.0000
  H   H3        1.0  0.02122  0.53147  0.93558  1.0000
  H   H4        1.0  0.52125  0.96851  0.06443  1.0000
  H   H5        1.0  0.54389  0.40742  0.10801  1.0000
  H   H6        1.0  0.04388  0.09256  0.89198  1.0000
  H   H7        1.0  0.45610  0.59257  0.89199  1.0000
  H   H8        1.0  0.95613  0.90744  0.10801  1.0000
  H   H9        1.0  0.49288  0.52230  0.23565  1.0000
  H   H10       1.0  0.99287  0.97769  0.76434  1.0000
  H   H11       1.0  0.50712  0.47770  0.76435  1.0000
  H   H12       1.0  0.00714  0.02232  0.23566  1.0000
  H   H13       1.0  0.42253  0.70794  0.33384  1.0000
  H   H14       1.0  0.92253  0.79204  0.66617  1.0000
  H   H15       1.0  0.57747  0.29204  0.66617  1.0000
  H   H16       1.0  0.07748  0.20796  0.33383  1.0000
  H   H17       1.0  0.34920  0.50198  0.34709  1.0000
  H   H18       1.0  0.84921  0.99801  0.65292  1.0000
  H   H19       1.0  0.65078  0.49801  0.65292  1.0000
  H   H20       1.0  0.15080  0.00199  0.34708  1.0000
  H   H21       1.0  0.74997  0.67113  0.45705  1.0000
  H   H22       1.0  0.24997  0.82887  0.54295  1.0000
  H   H23       1.0  0.25002  0.32887  0.54294  1.0000
  H   H24       1.0  0.75002  0.17113  0.45705  1.0000
  H   H25       1.0  0.90837  0.41207  0.41942  1.0000
  H   H26       1.0  0.40836  0.08793  0.58058  1.0000
  H   H27       1.0  0.09162  0.58793  0.58057  1.0000
  H   H28       1.0  0.59163  0.91206  0.41942  1.0000
  H   H29       1.0  0.88366  0.53212  0.34681  1.0000
  H   H30       1.0  0.38365  0.96788  0.65319  1.0000
  H   H31       1.0  0.11632  0.46788  0.65319  1.0000
  H   H32       1.0  0.61635  0.03212  0.34681  1.0000
  H   H33       1.0  0.73440  0.35801  0.35414  1.0000
  H   H34       1.0  0.23439  0.14200  0.64587  1.0000
  H   H35       1.0  0.26558  0.64200  0.64586  1.0000
  H   H36       1.0  0.76561  0.85800  0.35414  1.0000
  C   C1        1.0  0.06423  0.55071  0.17338  1.0000
  C   C2        1.0  0.56421  0.94929  0.82661  1.0000
  C   C3        1.0  0.93578  0.44928  0.82663  1.0000
  C   C4        1.0  0.43580  0.05072  0.17338  1.0000
  C   C5        1.0  0.09156  0.48129  0.10174  1.0000
  C   C6        1.0  0.59155  0.01873  0.89826  1.0000
  C   C7        1.0  0.90844  0.51870  0.89826  1.0000
  C   C8        1.0  0.40847  0.98128  0.10174  1.0000
  C   C9        1.0  0.26485  0.43004  0.07877  1.0000
  C   C10       1.0  0.76483  0.06996  0.92122  1.0000
  C   C11       1.0  0.73516  0.56995  0.92123  1.0000
  C   C12       1.0  0.23518  0.93005  0.07878  1.0000
  C   C13       1.0  0.40914  0.44690  0.12654  1.0000
  C   C14       1.0  0.90912  0.05308  0.87345  1.0000
  C   C15       1.0  0.59086  0.55309  0.87347  1.0000
  C   C16       1.0  0.09088  0.94692  0.12654  1.0000
  C   C17       1.0  0.37968  0.51410  0.19856  1.0000
  C   C18       1.0  0.87967  0.98589  0.80143  1.0000
  C   C19       1.0  0.62032  0.48589  0.80144  1.0000
  C   C20       1.0  0.12034  0.01412  0.19856  1.0000
  C   C21       1.0  0.20758  0.56740  0.22301  1.0000
  C   C22       1.0  0.70756  0.93260  0.77698  1.0000
  C   C23       1.0  0.79242  0.43260  0.77699  1.0000
  C   C24       1.0  0.29245  0.06741  0.22301  1.0000
  C   C25       1.0  0.30335  0.63282  0.34501  1.0000
  C   C26       1.0  0.80334  0.86717  0.65499  1.0000
  C   C27       1.0  0.69665  0.36718  0.65500  1.0000
  C   C28       1.0  0.19666  0.13283  0.34500  1.0000
  C   C29       1.0  0.22942  0.71539  0.41749  1.0000
  C   C30       1.0  0.72942  0.78460  0.58252  1.0000
  C   C31       1.0  0.77057  0.28462  0.58252  1.0000
  C   C32       1.0  0.27059  0.21541  0.41748  1.0000
  C   C33       1.0  0.81161  0.46355  0.38424  1.0000
  C   C34       1.0  0.31160  0.03645  0.61575  1.0000
  C   C35       1.0  0.18837  0.53645  0.61575  1.0000
  C   C36       1.0  0.68839  0.96355  0.38425  1.0000
  Cl  Cl1       1.0  0.29979  0.34529  0.98932  1.0000
  Cl  Cl2       1.0  0.79979  0.15471  0.01067  1.0000
  Cl  Cl3       1.0  0.70021  0.65471  0.01068  1.0000
  Cl  Cl4       1.0  0.20023  0.84530  0.98933  1.0000
  Cl  Cl5       1.0  0.85078  0.62012  0.20163  1.0000
  Cl  Cl6       1.0  0.35076  0.87989  0.79837  1.0000
  Cl  Cl7       1.0  0.14922  0.37988  0.79838  1.0000
  Cl  Cl8       1.0  0.64925  0.12012  0.20162  1.0000
  O   O1        1.0  0.16661  0.63628  0.29211  1.0000
  O   O2        1.0  0.66661  0.86372  0.70789  1.0000
  O   O3        1.0  0.83338  0.36372  0.70789  1.0000
  O   O4        1.0  0.33340  0.13630  0.29211  1.0000
  O   O5        1.0  0.31295  0.68712  0.47374  1.0000
  O   O6        1.0  0.81295  0.81288  0.52626  1.0000
  O   O7        1.0  0.68705  0.31288  0.52627  1.0000
  O   O8        1.0  0.18704  0.18712  0.47374  1.0000
  O   O9        1.0  0.09493  0.81317  0.41812  1.0000
  O   O10       1.0  0.59495  0.68681  0.58188  1.0000
  O   O11       1.0  0.90507  0.18684  0.58188  1.0000
  O   O12       1.0  0.40506  0.31317  0.41812  1.0000
  O   O13       1.0  0.68469  0.57606  0.42572  1.0000
  O   O14       1.0  0.18469  0.92394  0.57428  1.0000
  O   O15       1.0  0.31529  0.42394  0.57428  1.0000
  O   O16       1.0  0.81530  0.07606  0.42572  1.0000
