data_image0
_chemical_formula_structural       Zn2H28C28S2N8O8
_chemical_formula_sum              "Zn2 H28 C28 S2 N8 O8"
_cell_length_a       8.58982
_cell_length_b       10.3779
_cell_length_c       10.378
_cell_angle_alpha    105.616
_cell_angle_beta     90.0001
_cell_angle_gamma    90

_space_group_name_H-M_alt    "P 1"
_space_group_IT_number       1

loop_
  _space_group_symop_operation_xyz
  'x, y, z'

loop_
  _atom_site_type_symbol
  _atom_site_label
  _atom_site_symmetry_multiplicity
  _atom_site_fract_x
  _atom_site_fract_y
  _atom_site_fract_z
  _atom_site_occupancy
  Zn  Zn1       1.0  0.36058  0.04477  0.95523  1.0000
  Zn  Zn2       1.0  0.86058  0.95523  0.04477  1.0000
  H   H1        1.0  0.22657  0.89902  0.66268  1.0000
  H   H2        1.0  0.72657  0.10098  0.33732  1.0000
  H   H3        1.0  0.72657  0.66269  0.89902  1.0000
  H   H4        1.0  0.22657  0.33732  0.10098  1.0000
  H   H5        1.0  0.43370  0.81943  0.44635  1.0000
  H   H6        1.0  0.93371  0.18057  0.55365  1.0000
  H   H7        1.0  0.93370  0.44635  0.81943  1.0000
  H   H8        1.0  0.43371  0.55365  0.18057  1.0000
  H   H9        1.0  0.68857  0.98530  0.80097  1.0000
  H   H10       1.0  0.18857  0.01470  0.19903  1.0000
  H   H11       1.0  0.18857  0.80097  0.98530  1.0000
  H   H12       1.0  0.68856  0.19903  0.01470  1.0000
  H   H13       1.0  0.73670  0.92207  0.44842  1.0000
  H   H14       1.0  0.23670  0.07793  0.55158  1.0000
  H   H15       1.0  0.23670  0.44842  0.92207  1.0000
  H   H16       1.0  0.73670  0.55158  0.07793  1.0000
  H   H17       1.0  0.83918  0.92187  0.59767  1.0000
  H   H18       1.0  0.33918  0.07813  0.40233  1.0000
  H   H19       1.0  0.33918  0.59767  0.92188  1.0000
  H   H20       1.0  0.83919  0.40233  0.07813  1.0000
  H   H21       1.0  0.87656  0.69269  0.65062  1.0000
  H   H22       1.0  0.37656  0.30731  0.34938  1.0000
  H   H23       1.0  0.37656  0.65062  0.69269  1.0000
  H   H24       1.0  0.87656  0.34938  0.30731  1.0000
  H   H25       1.0  0.93551  0.45272  0.54728  1.0000
  H   H26       1.0  0.43551  0.54728  0.45272  1.0000
  H   H27       1.0  0.69922  0.72713  0.27287  1.0000
  H   H28       1.0  0.19922  0.27287  0.72713  1.0000
  C   C1        1.0  0.35275  0.90106  0.65919  1.0000
  C   C2        1.0  0.85275  0.09894  0.34081  1.0000
  C   C3        1.0  0.85275  0.65919  0.90106  1.0000
  C   C4        1.0  0.35275  0.34081  0.09894  1.0000
  C   C5        1.0  0.45285  0.86103  0.55263  1.0000
  C   C6        1.0  0.95285  0.13897  0.44737  1.0000
  C   C7        1.0  0.95285  0.55263  0.86103  1.0000
  C   C8        1.0  0.45285  0.44737  0.13897  1.0000
  C   C9        1.0  0.58904  0.94899  0.73664  1.0000
  C   C10       1.0  0.08904  0.05101  0.26336  1.0000
  C   C11       1.0  0.08904  0.73664  0.94899  1.0000
  C   C12       1.0  0.58904  0.26336  0.05101  1.0000
  C   C13       1.0  0.74762  0.87160  0.52813  1.0000
  C   C14       1.0  0.24763  0.12840  0.47187  1.0000
  C   C15       1.0  0.24762  0.52813  0.87160  1.0000
  C   C16       1.0  0.74763  0.47187  0.12840  1.0000
  C   C17       1.0  0.78394  0.72556  0.46826  1.0000
  C   C18       1.0  0.28394  0.27444  0.53174  1.0000
  C   C19       1.0  0.28394  0.46826  0.72556  1.0000
  C   C20       1.0  0.78394  0.53174  0.27444  1.0000
  C   C21       1.0  0.85006  0.64770  0.54521  1.0000
  C   C22       1.0  0.35006  0.35230  0.45479  1.0000
  C   C23       1.0  0.35006  0.54521  0.64771  1.0000
  C   C24       1.0  0.85006  0.45479  0.35230  1.0000
  C   C25       1.0  0.88266  0.51269  0.48731  1.0000
  C   C26       1.0  0.38266  0.48731  0.51269  1.0000
  C   C27       1.0  0.75123  0.66686  0.33314  1.0000
  C   C28       1.0  0.25123  0.33314  0.66686  1.0000
  S   S1        1.0  0.01529  0.11962  0.88038  1.0000
  S   S2        1.0  0.51529  0.88038  0.11962  1.0000
  N   N1        1.0  0.43939  0.95609  0.77340  1.0000
  N   N2        1.0  0.93939  0.04391  0.22660  1.0000
  N   N3        1.0  0.93939  0.77340  0.95609  1.0000
  N   N4        1.0  0.43939  0.22660  0.04391  1.0000
  N   N5        1.0  0.60089  0.89246  0.60376  1.0000
  N   N6        1.0  0.10089  0.10754  0.39624  1.0000
  N   N7        1.0  0.10089  0.60376  0.89246  1.0000
  N   N8        1.0  0.60089  0.39624  0.10754  1.0000
  O   O1        1.0  0.13037  0.04950  0.95050  1.0000
  O   O2        1.0  0.63037  0.95050  0.04950  1.0000
  O   O3        1.0  0.85796  0.07630  0.92370  1.0000
  O   O4        1.0  0.35796  0.92370  0.07630  1.0000
  O   O5        1.0  0.03033  0.07008  0.73457  1.0000
  O   O6        1.0  0.53034  0.92992  0.26543  1.0000
  O   O7        1.0  0.53033  0.73457  0.07008  1.0000
  O   O8        1.0  0.03033  0.26543  0.92992  1.0000
