data_image0
_chemical_formula_structural       Fe2Ag2P2H46C58Se2S2O6F6
_chemical_formula_sum              "Fe2 Ag2 P2 H46 C58 Se2 S2 O6 F6"
_cell_length_a       9.67982
_cell_length_b       11.9101
_cell_length_c       12.7493
_cell_angle_alpha    66.6577
_cell_angle_beta     86.6845
_cell_angle_gamma    84.2618

_space_group_name_H-M_alt    "P 1"
_space_group_IT_number       1

loop_
  _space_group_symop_operation_xyz
  'x, y, z'

loop_
  _atom_site_type_symbol
  _atom_site_label
  _atom_site_symmetry_multiplicity
  _atom_site_fract_x
  _atom_site_fract_y
  _atom_site_fract_z
  _atom_site_occupancy
  Fe  Fe1       1.0  0.64576  0.15032  0.21393  1.0000
  Fe  Fe2       1.0  0.35424  0.84968  0.78608  1.0000
  Ag  Ag1       1.0  0.28087  0.44881  0.09599  1.0000
  Ag  Ag2       1.0  0.71913  0.55119  0.90401  1.0000
  P   P1        1.0  0.29826  0.24471  0.24071  1.0000
  P   P2        1.0  0.70175  0.75529  0.75929  1.0000
  H   H1        1.0  0.48631  0.08977  0.06995  1.0000
  H   H2        1.0  0.51371  0.91022  0.93005  1.0000
  H   H3        1.0  0.67391  0.91644  0.20695  1.0000
  H   H4        1.0  0.32610  0.08355  0.79307  1.0000
  H   H5        1.0  0.90603  0.02545  0.20648  1.0000
  H   H6        1.0  0.09398  0.97454  0.79354  1.0000
  H   H7        1.0  0.86473  0.26675  0.06896  1.0000
  H   H8        1.0  0.13528  0.73325  0.93105  1.0000
  H   H9        1.0  0.48748  0.99294  0.39266  1.0000
  H   H10       1.0  0.51252  0.00707  0.60735  1.0000
  H   H11       1.0  0.74982  0.01706  0.43366  1.0000
  H   H12       1.0  0.25017  0.98295  0.56636  1.0000
  H   H13       1.0  0.79841  0.25756  0.32440  1.0000
  H   H14       1.0  0.20158  0.74245  0.67560  1.0000
  H   H15       1.0  0.56486  0.38177  0.21791  1.0000
  H   H16       1.0  0.43513  0.61824  0.78208  1.0000
  H   H17       1.0  0.76458  0.46396  0.74355  1.0000
  H   H18       1.0  0.23543  0.53604  0.25645  1.0000
  H   H19       1.0  0.78376  0.45432  0.55230  1.0000
  H   H20       1.0  0.21624  0.54568  0.44769  1.0000
  H   H21       1.0  0.61925  0.33847  0.49867  1.0000
  H   H22       1.0  0.38074  0.66154  0.50132  1.0000
  H   H23       1.0  0.43761  0.23119  0.63818  1.0000
  H   H24       1.0  0.56239  0.76882  0.36182  1.0000
  H   H25       1.0  0.41199  0.24752  0.82768  1.0000
  H   H26       1.0  0.58802  0.75248  0.17232  1.0000
  H   H27       1.0  0.03815  0.12693  0.34858  1.0000
  H   H28       1.0  0.96185  0.87306  0.65142  1.0000
  H   H29       1.0  0.91276  0.10865  0.52904  1.0000
  H   H30       1.0  0.08724  0.89135  0.47095  1.0000
  H   H31       1.0  0.00436  0.19583  0.65669  1.0000
  H   H32       1.0  0.99564  0.80417  0.34330  1.0000
  H   H33       1.0  0.22396  0.29860  0.60373  1.0000
  H   H34       1.0  0.77604  0.70140  0.39627  1.0000
  H   H35       1.0  0.35277  0.31328  0.42603  1.0000
  H   H36       1.0  0.64723  0.68672  0.57397  1.0000
  H   H37       1.0  0.18867  0.27106  0.02841  1.0000
  H   H38       1.0  0.81133  0.72895  0.97159  1.0000
  H   H39       1.0  0.11907  0.12485  0.95100  1.0000
  H   H40       1.0  0.88092  0.87516  0.04900  1.0000
  H   H41       1.0  0.13740  0.90033  0.07127  1.0000
  H   H42       1.0  0.86260  0.09968  0.92872  1.0000
  H   H43       1.0  0.22126  0.82445  0.26998  1.0000
  H   H44       1.0  0.77873  0.17555  0.73001  1.0000
  H   H45       1.0  0.28696  0.96980  0.34932  1.0000
  H   H46       1.0  0.71304  0.03021  0.65067  1.0000
  C   C1        1.0  0.65467  0.21779  0.04142  1.0000
  C   C2        1.0  0.34534  0.78220  0.95859  1.0000
  C   C3        1.0  0.59097  0.10323  0.08622  1.0000
  C   C4        1.0  0.40904  0.89676  0.91379  1.0000
  C   C5        1.0  0.69037  0.01217  0.15777  1.0000
  C   C6        1.0  0.30964  0.98783  0.84223  1.0000
  C   C7        1.0  0.81354  0.06993  0.15761  1.0000
  C   C8        1.0  0.18646  0.93007  0.84240  1.0000
  C   C9        1.0  0.79232  0.19746  0.08547  1.0000
  C   C10       1.0  0.20769  0.80253  0.91454  1.0000
  C   C11       1.0  0.47406  0.19804  0.29032  1.0000
  C   C12       1.0  0.52593  0.80196  0.70969  1.0000
  C   C13       1.0  0.53613  0.07858  0.36224  1.0000
  C   C14       1.0  0.46386  0.92143  0.63777  1.0000
  C   C15       1.0  0.67507  0.09185  0.38568  1.0000
  C   C16       1.0  0.32493  0.90816  0.61433  1.0000
  C   C17       1.0  0.70060  0.21854  0.32898  1.0000
  C   C18       1.0  0.29939  0.78146  0.67102  1.0000
  C   C19       1.0  0.57759  0.28413  0.27053  1.0000
  C   C20       1.0  0.42241  0.71586  0.72947  1.0000
  C   C21       1.0  0.58672  0.35672  0.79656  1.0000
  C   C22       1.0  0.41329  0.64327  0.20344  1.0000
  C   C23       1.0  0.69136  0.41472  0.71966  1.0000
  C   C24       1.0  0.30865  0.58528  0.28033  1.0000
  C   C25       1.0  0.70219  0.40884  0.61208  1.0000
  C   C26       1.0  0.29780  0.59117  0.38791  1.0000
  C   C27       1.0  0.61013  0.34369  0.58231  1.0000
  C   C28       1.0  0.38986  0.65632  0.41768  1.0000
  C   C29       1.0  0.50754  0.28406  0.66058  1.0000
  C   C30       1.0  0.49246  0.71595  0.33941  1.0000
  C   C31       1.0  0.49412  0.29142  0.76745  1.0000
  C   C32       1.0  0.50589  0.70858  0.23254  1.0000
  C   C33       1.0  0.20461  0.22016  0.37550  1.0000
  C   C34       1.0  0.79539  0.77983  0.62450  1.0000
  C   C35       1.0  0.08027  0.16291  0.40524  1.0000
  C   C36       1.0  0.91973  0.83709  0.59475  1.0000
  C   C37       1.0  0.00914  0.15362  0.50648  1.0000
  C   C38       1.0  0.99086  0.84638  0.49351  1.0000
  C   C39       1.0  0.06050  0.20217  0.57824  1.0000
  C   C40       1.0  0.93950  0.79783  0.42175  1.0000
  C   C41       1.0  0.18419  0.25947  0.54872  1.0000
  C   C42       1.0  0.81581  0.74053  0.45128  1.0000
  C   C43       1.0  0.25636  0.26796  0.44847  1.0000
  C   C44       1.0  0.74364  0.73203  0.55153  1.0000
  C   C45       1.0  0.24395  0.13074  0.19344  1.0000
  C   C46       1.0  0.75605  0.86926  0.80655  1.0000
  C   C47       1.0  0.19555  0.17311  0.08153  1.0000
  C   C48       1.0  0.80444  0.82689  0.91847  1.0000
  C   C49       1.0  0.15658  0.09059  0.03799  1.0000
  C   C50       1.0  0.84341  0.90942  0.96200  1.0000
  C   C51       1.0  0.16588  0.96510  0.10559  1.0000
  C   C52       1.0  0.83411  0.03490  0.89440  1.0000
  C   C53       1.0  0.21307  0.92240  0.21734  1.0000
  C   C54       1.0  0.78693  0.07760  0.78265  1.0000
  C   C55       1.0  0.25126  0.00449  0.26166  1.0000
  C   C56       1.0  0.74874  0.99551  0.73833  1.0000
  C   C57       1.0  0.89006  0.53744  0.27266  1.0000
  C   C58       1.0  0.10995  0.46255  0.72735  1.0000
  Se  Se1       1.0  0.56144  0.37110  0.94420  1.0000
  Se  Se2       1.0  0.43856  0.62889  0.05580  1.0000
  S   S1        1.0  0.92714  0.49237  0.14863  1.0000
  S   S2        1.0  0.07286  0.50763  0.85137  1.0000
  O   O1        1.0  0.04032  0.56753  0.08823  1.0000
  O   O2        1.0  0.95968  0.43247  0.91178  1.0000
  O   O3        1.0  0.96391  0.36121  0.19888  1.0000
  O   O4        1.0  0.03609  0.63879  0.80112  1.0000
  O   O5        1.0  0.79282  0.53067  0.09181  1.0000
  O   O6        1.0  0.20718  0.46932  0.90819  1.0000
  F   F1        1.0  0.99736  0.50127  0.34602  1.0000
  F   F2        1.0  0.00264  0.49872  0.65398  1.0000
  F   F3        1.0  0.86669  0.66211  0.23535  1.0000
  F   F4        1.0  0.13331  0.33788  0.76466  1.0000
  F   F5        1.0  0.77531  0.48749  0.33294  1.0000
  F   F6        1.0  0.22470  0.51250  0.66707  1.0000
