data_image0
_chemical_formula_structural       Cu4H12C16I4N8
_chemical_formula_sum              "Cu4 H12 C16 I4 N8"
_cell_length_a       7.3102
_cell_length_b       8.93247
_cell_length_c       8.82328
_cell_angle_alpha    89.9964
_cell_angle_beta     89.9976
_cell_angle_gamma    92.5647

_space_group_name_H-M_alt    "P 1"
_space_group_IT_number       1

loop_
  _space_group_symop_operation_xyz
  'x, y, z'

loop_
  _atom_site_type_symbol
  _atom_site_label
  _atom_site_symmetry_multiplicity
  _atom_site_fract_x
  _atom_site_fract_y
  _atom_site_fract_z
  _atom_site_occupancy
  Cu  Cu1       1.0  0.08343  0.90155  0.42448  1.0000
  Cu  Cu2       1.0  0.91652  0.59843  0.92444  1.0000
  Cu  Cu3       1.0  0.91654  0.09844  0.57551  1.0000
  Cu  Cu4       1.0  0.08347  0.40154  0.07557  1.0000
  H   H1        1.0  0.95930  0.12351  0.20809  1.0000
  H   H2        1.0  0.04072  0.37645  0.70802  1.0000
  H   H3        1.0  0.04073  0.87645  0.79192  1.0000
  H   H4        1.0  0.95928  0.62357  0.29192  1.0000
  H   H5        1.0  0.39199  0.23796  0.92104  1.0000
  H   H6        1.0  0.60801  0.26204  0.42105  1.0000
  H   H7        1.0  0.60803  0.76204  0.07894  1.0000
  H   H8        1.0  0.39193  0.73791  0.57898  1.0000
  H   H9        1.0  0.38275  0.83078  0.18943  1.0000
  H   H10       1.0  0.61722  0.66916  0.68944  1.0000
  H   H11       1.0  0.61730  0.16921  0.81058  1.0000
  H   H12       1.0  0.38277  0.33083  0.31057  1.0000
  C   C1        1.0  0.09177  0.09590  0.16096  1.0000
  C   C2        1.0  0.90823  0.40409  0.66095  1.0000
  C   C3        1.0  0.90826  0.90408  0.83903  1.0000
  C   C4        1.0  0.09176  0.59594  0.33904  1.0000
  C   C5        1.0  0.33084  0.15536  0.99867  1.0000
  C   C6        1.0  0.66917  0.34464  0.49867  1.0000
  C   C7        1.0  0.66917  0.84462  0.00129  1.0000
  C   C8        1.0  0.33081  0.65536  0.50133  1.0000
  C   C9        1.0  0.41403  0.02142  0.03532  1.0000
  C   C10       1.0  0.58597  0.47858  0.53533  1.0000
  C   C11       1.0  0.58598  0.97856  0.96468  1.0000
  C   C12       1.0  0.41401  0.52144  0.46471  1.0000
  C   C13       1.0  0.32540  0.93294  0.14702  1.0000
  C   C14       1.0  0.67457  0.56705  0.64701  1.0000
  C   C15       1.0  0.67461  0.06706  0.85301  1.0000
  C   C16       1.0  0.32540  0.43297  0.35299  1.0000
  I   I1        1.0  0.72640  0.90731  0.40642  1.0000
  I   I2        1.0  0.27362  0.59276  0.90640  1.0000
  I   I3        1.0  0.27361  0.09278  0.59356  1.0000
  I   I4        1.0  0.72642  0.40726  0.09363  1.0000
  N   N1        1.0  0.16662  0.97092  0.21038  1.0000
  N   N2        1.0  0.83335  0.52905  0.71038  1.0000
  N   N3        1.0  0.83337  0.02906  0.78963  1.0000
  N   N4        1.0  0.16664  0.47096  0.28960  1.0000
  N   N5        1.0  0.17062  0.19237  0.06132  1.0000
  N   N6        1.0  0.82940  0.30764  0.56128  1.0000
  N   N7        1.0  0.82942  0.80762  0.93867  1.0000
  N   N8        1.0  0.17057  0.69237  0.43871  1.0000
