data_image0
_chemical_formula_structural       CoH16PdC12N2Cl2O8
_chemical_formula_sum              "Co1 H16 Pd1 C12 N2 Cl2 O8"
_cell_length_a       5.47196
_cell_length_b       6.73878
_cell_length_c       12.3769
_cell_angle_alpha    102.628
_cell_angle_beta     98.3092
_cell_angle_gamma    94.4525

_space_group_name_H-M_alt    "P 1"
_space_group_IT_number       1

loop_
  _space_group_symop_operation_xyz
  'x, y, z'

loop_
  _atom_site_type_symbol
  _atom_site_label
  _atom_site_symmetry_multiplicity
  _atom_site_fract_x
  _atom_site_fract_y
  _atom_site_fract_z
  _atom_site_occupancy
  Co  Co1       1.0  0.00000  0.50000  0.50000  1.0000
  H   H1        1.0  0.83014  0.65749  0.25568  1.0000
  H   H2        1.0  0.16985  0.34251  0.74433  1.0000
  H   H3        1.0  0.44623  0.18441  0.22988  1.0000
  H   H4        1.0  0.55378  0.81560  0.77012  1.0000
  H   H5        1.0  0.11753  0.95091  0.08927  1.0000
  H   H6        1.0  0.88248  0.04910  0.91072  1.0000
  H   H7        1.0  0.48938  0.44420  0.11749  1.0000
  H   H8        1.0  0.51060  0.55579  0.88252  1.0000
  H   H9        1.0  0.23743  0.18796  0.47310  1.0000
  H   H10       1.0  0.76257  0.81204  0.52690  1.0000
  H   H11       1.0  0.46569  0.35366  0.55129  1.0000
  H   H12       1.0  0.53433  0.64634  0.44871  1.0000
  H   H13       1.0  0.15830  0.53365  0.30876  1.0000
  H   H14       1.0  0.84170  0.46635  0.69123  1.0000
  H   H15       1.0  0.14492  0.76234  0.37698  1.0000
  H   H16       1.0  0.85508  0.23766  0.62302  1.0000
  Pd  Pd1       1.0  1.00000  0.50000  0.00000  1.0000
  C   C1        1.0  0.66762  0.94060  0.25487  1.0000
  C   C2        1.0  0.33238  0.05940  0.74513  1.0000
  C   C3        1.0  0.27913  0.89241  0.12804  1.0000
  C   C4        1.0  0.72087  0.10759  0.87196  1.0000
  C   C5        1.0  0.67865  0.73066  0.22078  1.0000
  C   C6        1.0  0.32133  0.26933  0.77922  1.0000
  C   C7        1.0  0.48760  0.60883  0.14336  1.0000
  C   C8        1.0  0.51240  0.39117  0.85665  1.0000
  C   C9        1.0  0.46372  0.02175  0.20598  1.0000
  C   C10       1.0  0.53627  0.97825  0.79401  1.0000
  C   C11       1.0  0.86582  0.07534  0.34305  1.0000
  C   C12       1.0  0.13418  0.92466  0.65695  1.0000
  N   N1        1.0  0.28922  0.68853  0.09874  1.0000
  N   N2        1.0  0.71078  0.31147  0.90126  1.0000
  Cl  Cl1       1.0  0.98844  0.31990  0.13872  1.0000
  Cl  Cl2       1.0  0.01156  0.68011  0.86128  1.0000
  O   O1        1.0  0.81723  0.25736  0.37927  1.0000
  O   O2        1.0  0.18277  0.74264  0.62072  1.0000
  O   O3        1.0  0.06420  0.00160  0.37513  1.0000
  O   O4        1.0  0.93580  0.99840  0.62487  1.0000
  O   O5        1.0  0.20026  0.62616  0.38427  1.0000
  O   O6        1.0  0.79974  0.37384  0.61572  1.0000
  O   O7        1.0  0.28360  0.32327  0.52883  1.0000
  O   O8        1.0  0.71640  0.67674  0.47117  1.0000
