data_image0
_chemical_formula_structural       Co2H44C48N8O8
_chemical_formula_sum              "Co2 H44 C48 N8 O8"
_cell_length_a       6.92009
_cell_length_b       8.48606
_cell_length_c       18.9507
_cell_angle_alpha    96.351
_cell_angle_beta     98.0312
_cell_angle_gamma    103.46

_space_group_name_H-M_alt    "P 1"
_space_group_IT_number       1

loop_
  _space_group_symop_operation_xyz
  'x, y, z'

loop_
  _atom_site_type_symbol
  _atom_site_label
  _atom_site_symmetry_multiplicity
  _atom_site_fract_x
  _atom_site_fract_y
  _atom_site_fract_z
  _atom_site_occupancy
  Co  Co1       1.0  0.95380  0.50407  0.24796  1.0000
  Co  Co2       1.0  0.04619  0.49593  0.75204  1.0000
  H   H1        1.0  0.91029  0.20794  0.11948  1.0000
  H   H2        1.0  0.08970  0.79206  0.88052  1.0000
  H   H3        1.0  0.17369  0.14774  0.17880  1.0000
  H   H4        1.0  0.82630  0.85225  0.82120  1.0000
  H   H5        1.0  0.21807  0.94846  0.16793  1.0000
  H   H6        1.0  0.78192  0.05154  0.83207  1.0000
  H   H7        1.0  0.28450  0.24964  0.03517  1.0000
  H   H8        1.0  0.71550  0.75036  0.96483  1.0000
  H   H9        1.0  0.17732  0.57758  0.96891  1.0000
  H   H10       1.0  0.82268  0.42242  0.03109  1.0000
  H   H11       1.0  0.92313  0.80440  0.08636  1.0000
  H   H12       1.0  0.07687  0.19559  0.91364  1.0000
  H   H13       1.0  0.47498  0.34919  0.23004  1.0000
  H   H14       1.0  0.52501  0.65080  0.76996  1.0000
  H   H15       1.0  0.96640  0.87796  0.23831  1.0000
  H   H16       1.0  0.03359  0.12204  0.76169  1.0000
  H   H17       1.0  0.53993  0.98178  0.07172  1.0000
  H   H18       1.0  0.46007  0.01821  0.92828  1.0000
  H   H19       1.0  0.25861  0.75791  0.08504  1.0000
  H   H20       1.0  0.74140  0.24209  0.91495  1.0000
  H   H21       1.0  0.47140  0.76239  0.14944  1.0000
  H   H22       1.0  0.52861  0.23760  0.85056  1.0000
  H   H23       1.0  0.69344  0.57715  0.12437  1.0000
  H   H24       1.0  0.30656  0.42284  0.87563  1.0000
  H   H25       1.0  0.53028  0.28583  0.40481  1.0000
  H   H26       1.0  0.46972  0.71417  0.59519  1.0000
  H   H27       1.0  0.78596  0.98423  0.43601  1.0000
  H   H28       1.0  0.21405  0.01576  0.56399  1.0000
  H   H29       1.0  0.59257  0.54345  0.34176  1.0000
  H   H30       1.0  0.40742  0.45655  0.65824  1.0000
  H   H31       1.0  0.15008  0.85342  0.44258  1.0000
  H   H32       1.0  0.84992  0.14658  0.55743  1.0000
  H   H33       1.0  0.16588  0.52140  0.52663  1.0000
  H   H34       1.0  0.83413  0.47860  0.47337  1.0000
  H   H35       1.0  0.68469  0.02651  0.29083  1.0000
  H   H36       1.0  0.31532  0.97350  0.70917  1.0000
  H   H37       1.0  0.02398  0.23364  0.45168  1.0000
  H   H38       1.0  0.97602  0.76636  0.54832  1.0000
  H   H39       1.0  0.16864  0.16391  0.39070  1.0000
  H   H40       1.0  0.83136  0.83609  0.60930  1.0000
  H   H41       1.0  0.32519  0.68228  0.35932  1.0000
  H   H42       1.0  0.67482  0.31772  0.64068  1.0000
  H   H43       1.0  0.31873  0.85899  0.31911  1.0000
  H   H44       1.0  0.68128  0.14102  0.68089  1.0000
  C   C1        1.0  0.76629  0.20080  0.13650  1.0000
  C   C2        1.0  0.23370  0.79919  0.86350  1.0000
  C   C3        1.0  0.11868  0.02998  0.06898  1.0000
  C   C4        1.0  0.88132  0.97002  0.93101  1.0000
  C   C5        1.0  0.23414  0.06349  0.14501  1.0000
  C   C6        1.0  0.76586  0.93651  0.85499  1.0000
  C   C7        1.0  0.21167  0.57527  0.15352  1.0000
  C   C8        1.0  0.78833  0.42473  0.84648  1.0000
  C   C9        1.0  0.16153  0.13923  0.01974  1.0000
  C   C10       1.0  0.83847  0.86076  0.98026  1.0000
  C   C11       1.0  0.31917  0.54365  0.98280  1.0000
  C   C12       1.0  0.68083  0.45635  0.01719  1.0000
  C   C13       1.0  0.95685  0.89083  0.04851  1.0000
  C   C14       1.0  0.04315  0.10916  0.95149  1.0000
  C   C15       1.0  0.54858  0.28103  0.19535  1.0000
  C   C16       1.0  0.45142  0.71897  0.80465  1.0000
  C   C17       1.0  0.84746  0.83113  0.26775  1.0000
  C   C18       1.0  0.15253  0.16887  0.73225  1.0000
  C   C19       1.0  0.58404  0.08943  0.11240  1.0000
  C   C20       1.0  0.41596  0.91057  0.88760  1.0000
  C   C21       1.0  0.34662  0.68014  0.10999  1.0000
  C   C22       1.0  0.65338  0.31986  0.89001  1.0000
  C   C23       1.0  0.42625  0.58792  0.05344  1.0000
  C   C24       1.0  0.57375  0.41208  0.94656  1.0000
  C   C25       1.0  0.60784  0.54323  0.06978  1.0000
  C   C26       1.0  0.39217  0.45677  0.93022  1.0000
  C   C27       1.0  0.51441  0.37940  0.44635  1.0000
  C   C28       1.0  0.48559  0.62060  0.55365  1.0000
  C   C29       1.0  0.65983  0.99004  0.46394  1.0000
  C   C30       1.0  0.34017  0.00996  0.53607  1.0000
  C   C31       1.0  0.46339  0.90830  0.43069  1.0000
  C   C32       1.0  0.53661  0.09170  0.56931  1.0000
  C   C33       1.0  0.65767  0.65228  0.31965  1.0000
  C   C34       1.0  0.34233  0.34772  0.68035  1.0000
  C   C35       1.0  0.30412  0.91903  0.46754  1.0000
  C   C36       1.0  0.69588  0.08096  0.53247  1.0000
  C   C37       1.0  0.31193  0.51113  0.51409  1.0000
  C   C38       1.0  0.68807  0.48886  0.48591  1.0000
  C   C39       1.0  0.70661  0.90421  0.29194  1.0000
  C   C40       1.0  0.29339  0.09579  0.70806  1.0000
  C   C41       1.0  0.13391  0.27419  0.41677  1.0000
  C   C42       1.0  0.86609  0.72581  0.58323  1.0000
  C   C43       1.0  0.32348  0.38895  0.45985  1.0000
  C   C44       1.0  0.67653  0.61106  0.54015  1.0000
  C   C45       1.0  0.41346  0.80676  0.35684  1.0000
  C   C46       1.0  0.58654  0.19325  0.64316  1.0000
  C   C47       1.0  0.02875  0.34880  0.35761  1.0000
  C   C48       1.0  0.97126  0.65121  0.64239  1.0000
  N   N1        1.0  0.81534  0.67344  0.28519  1.0000
  N   N2        1.0  0.18465  0.32657  0.71481  1.0000
  N   N3        1.0  0.58747  0.78893  0.32440  1.0000
  N   N4        1.0  0.41253  0.21108  0.67559  1.0000
  N   N5        1.0  0.74253  0.31952  0.18842  1.0000
  N   N6        1.0  0.25747  0.68048  0.81158  1.0000
  N   N7        1.0  0.44796  0.14209  0.15037  1.0000
  N   N8        1.0  0.55203  0.85791  0.84963  1.0000
  O   O1        1.0  0.11747  0.65621  0.19343  1.0000
  O   O2        1.0  0.88253  0.34380  0.80656  1.0000
  O   O3        1.0  0.19567  0.42538  0.15127  1.0000
  O   O4        1.0  0.80434  0.57462  0.84873  1.0000
  O   O5        1.0  0.14231  0.43319  0.31871  1.0000
  O   O6        1.0  0.85769  0.56682  0.68129  1.0000
  O   O7        1.0  0.84094  0.32707  0.34705  1.0000
  O   O8        1.0  0.15906  0.67294  0.65296  1.0000
