data_image0
_chemical_formula_structural       Dy2Cu2H32C32N16O16
_chemical_formula_sum              "Dy2 Cu2 H32 C32 N16 O16"
_cell_length_a       9.24494
_cell_length_b       10.8687
_cell_length_c       10.8687
_cell_angle_alpha    87.8178
_cell_angle_beta     72.5192
_cell_angle_gamma    72.5193

_space_group_name_H-M_alt    "P 1"
_space_group_IT_number       1

loop_
  _space_group_symop_operation_xyz
  'x, y, z'

loop_
  _atom_site_type_symbol
  _atom_site_label
  _atom_site_symmetry_multiplicity
  _atom_site_fract_x
  _atom_site_fract_y
  _atom_site_fract_z
  _atom_site_occupancy
  Dy  Dy1       1.0  0.25000  0.96738  0.03262  1.0000
  Dy  Dy2       1.0  0.75000  0.03262  0.96738  1.0000
  Cu  Cu1       1.0  1.00000  0.00000  0.50000  1.0000
  Cu  Cu2       1.0  0.50000  0.50000  1.00000  1.0000
  H   H1        1.0  0.35436  0.32263  0.38524  1.0000
  H   H2        1.0  0.14564  0.61476  0.67737  1.0000
  H   H3        1.0  0.64564  0.67737  0.61476  1.0000
  H   H4        1.0  0.85436  0.38524  0.32263  1.0000
  H   H5        1.0  0.06391  0.36056  0.44770  1.0000
  H   H6        1.0  0.43609  0.55230  0.63944  1.0000
  H   H7        1.0  0.93608  0.63943  0.55230  1.0000
  H   H8        1.0  0.56391  0.44770  0.36057  1.0000
  H   H9        1.0  0.93248  0.25111  0.63733  1.0000
  H   H10       1.0  0.56752  0.36267  0.74890  1.0000
  H   H11       1.0  0.06752  0.74889  0.36267  1.0000
  H   H12       1.0  0.43248  0.63733  0.25111  1.0000
  H   H13       1.0  0.38450  0.06913  0.69816  1.0000
  H   H14       1.0  0.11550  0.30183  0.93087  1.0000
  H   H15       1.0  0.61550  0.93087  0.30184  1.0000
  H   H16       1.0  0.88450  0.69817  0.06913  1.0000
  H   H17       1.0  0.38730  0.07117  0.20862  1.0000
  H   H18       1.0  0.11270  0.79138  0.92883  1.0000
  H   H19       1.0  0.61270  0.92883  0.79138  1.0000
  H   H20       1.0  0.88730  0.20862  0.07116  1.0000
  H   H21       1.0  0.31316  0.97177  0.29251  1.0000
  H   H22       1.0  0.18684  0.70749  0.02823  1.0000
  H   H23       1.0  0.68684  0.02823  0.70749  1.0000
  H   H24       1.0  0.81316  0.29251  0.97177  1.0000
  H   H25       1.0  0.08232  0.23580  0.16294  1.0000
  H   H26       1.0  0.41768  0.83706  0.76420  1.0000
  H   H27       1.0  0.91768  0.76420  0.83706  1.0000
  H   H28       1.0  0.58232  0.16294  0.23580  1.0000
  H   H29       1.0  0.96471  0.15443  0.22511  1.0000
  H   H30       1.0  0.53529  0.77489  0.84557  1.0000
  H   H31       1.0  0.03529  0.84557  0.77489  1.0000
  H   H32       1.0  0.46471  0.22511  0.15443  1.0000
  C   C1        1.0  0.56270  0.16551  0.49258  1.0000
  C   C2        1.0  0.93730  0.50742  0.83449  1.0000
  C   C3        1.0  0.43730  0.83449  0.50742  1.0000
  C   C4        1.0  0.06270  0.49258  0.16551  1.0000
  C   C5        1.0  0.39006  0.19167  0.53584  1.0000
  C   C6        1.0  0.10995  0.46416  0.80833  1.0000
  C   C7        1.0  0.60995  0.80833  0.46416  1.0000
  C   C8        1.0  0.89005  0.53584  0.19167  1.0000
  C   C9        1.0  0.29740  0.27515  0.46728  1.0000
  C   C10       1.0  0.20260  0.53272  0.72486  1.0000
  C   C11       1.0  0.70260  0.72486  0.53272  1.0000
  C   C12       1.0  0.79740  0.46728  0.27515  1.0000
  C   C13       1.0  0.13361  0.29689  0.50291  1.0000
  C   C14       1.0  0.36639  0.49709  0.70311  1.0000
  C   C15       1.0  0.86639  0.70311  0.49709  1.0000
  C   C16       1.0  0.63360  0.50291  0.29689  1.0000
  C   C17       1.0  0.06042  0.23547  0.60704  1.0000
  C   C18       1.0  0.43958  0.39297  0.76453  1.0000
  C   C19       1.0  0.93958  0.76453  0.39296  1.0000
  C   C20       1.0  0.56042  0.60704  0.23548  1.0000
  C   C21       1.0  0.15119  0.15383  0.67782  1.0000
  C   C22       1.0  0.34881  0.32218  0.84617  1.0000
  C   C23       1.0  0.84881  0.84617  0.32218  1.0000
  C   C24       1.0  0.65119  0.67782  0.15383  1.0000
  C   C25       1.0  0.31531  0.13254  0.64260  1.0000
  C   C26       1.0  0.18470  0.35740  0.86746  1.0000
  C   C27       1.0  0.68470  0.86746  0.35740  1.0000
  C   C28       1.0  0.81530  0.64260  0.13254  1.0000
  C   C29       1.0  0.06878  0.08888  0.78849  1.0000
  C   C30       1.0  0.43122  0.21151  0.91112  1.0000
  C   C31       1.0  0.93122  0.91112  0.21151  1.0000
  C   C32       1.0  0.56878  0.78849  0.08888  1.0000
  N   N1        1.0  0.66395  0.11034  0.56016  1.0000
  N   N2        1.0  0.83605  0.43984  0.88966  1.0000
  N   N3        1.0  0.33605  0.88966  0.43984  1.0000
  N   N4        1.0  0.16395  0.56016  0.11034  1.0000
  N   N5        1.0  0.80846  0.10276  0.47892  1.0000
  N   N6        1.0  0.69154  0.52107  0.89724  1.0000
  N   N7        1.0  0.19154  0.89724  0.52108  1.0000
  N   N8        1.0  0.30846  0.47892  0.10276  1.0000
  N   N9        1.0  0.79679  0.15251  0.36733  1.0000
  N   N10       1.0  0.70321  0.63267  0.84749  1.0000
  N   N11       1.0  0.20321  0.84749  0.63267  1.0000
  N   N12       1.0  0.29679  0.36733  0.15251  1.0000
  N   N13       1.0  0.64389  0.19152  0.37322  1.0000
  N   N14       1.0  0.85611  0.62678  0.80848  1.0000
  N   N15       1.0  0.35611  0.80848  0.62678  1.0000
  N   N16       1.0  0.14389  0.37322  0.19152  1.0000
  O   O1        1.0  0.13766  0.03816  0.87152  1.0000
  O   O2        1.0  0.36234  0.12848  0.96184  1.0000
  O   O3        1.0  0.86234  0.96184  0.12848  1.0000
  O   O4        1.0  0.63766  0.87152  0.03816  1.0000
  O   O5        1.0  0.93018  0.08762  0.79268  1.0000
  O   O6        1.0  0.56982  0.20732  0.91238  1.0000
  O   O7        1.0  0.06982  0.91238  0.20732  1.0000
  O   O8        1.0  0.43018  0.79268  0.08762  1.0000
  O   O9        1.0  0.29988  0.03172  0.22260  1.0000
  O   O10       1.0  0.20012  0.77740  0.96827  1.0000
  O   O11       1.0  0.70012  0.96828  0.77739  1.0000
  O   O12       1.0  0.79989  0.22260  0.03173  1.0000
  O   O13       1.0  0.03686  0.16987  0.14085  1.0000
  O   O14       1.0  0.46315  0.85914  0.83013  1.0000
  O   O15       1.0  0.96314  0.83013  0.85914  1.0000
  O   O16       1.0  0.53686  0.14085  0.16987  1.0000
