data_image0
_chemical_formula_structural       Gd2Cu2H32C32N16O16
_chemical_formula_sum              "Gd2 Cu2 H32 C32 N16 O16"
_cell_length_a       9.25035
_cell_length_b       10.8865
_cell_length_c       10.8865
_cell_angle_alpha    87.961
_cell_angle_beta     72.6559
_cell_angle_gamma    72.6559

_space_group_name_H-M_alt    "P 1"
_space_group_IT_number       1

loop_
  _space_group_symop_operation_xyz
  'x, y, z'

loop_
  _atom_site_type_symbol
  _atom_site_label
  _atom_site_symmetry_multiplicity
  _atom_site_fract_x
  _atom_site_fract_y
  _atom_site_fract_z
  _atom_site_occupancy
  Gd  Gd1       1.0  0.25000  0.53287  0.46713  1.0000
  Gd  Gd2       1.0  0.75000  0.46713  0.53287  1.0000
  Cu  Cu1       1.0  0.00000  0.00000  0.50000  1.0000
  Cu  Cu2       1.0  0.50000  0.50000  1.00000  1.0000
  H   H1        1.0  0.38455  0.19701  0.56894  1.0000
  H   H2        1.0  0.11545  0.43105  0.80300  1.0000
  H   H3        1.0  0.61545  0.80300  0.43106  1.0000
  H   H4        1.0  0.88454  0.56894  0.19701  1.0000
  H   H5        1.0  0.35620  0.88591  0.82338  1.0000
  H   H6        1.0  0.14380  0.17662  0.11409  1.0000
  H   H7        1.0  0.64380  0.11409  0.17662  1.0000
  H   H8        1.0  0.85620  0.82338  0.88591  1.0000
  H   H9        1.0  0.06623  0.94751  0.86205  1.0000
  H   H10       1.0  0.43378  0.13795  0.05249  1.0000
  H   H11       1.0  0.93377  0.05249  0.13796  1.0000
  H   H12       1.0  0.56623  0.86204  0.94751  1.0000
  H   H13       1.0  0.93413  0.13583  0.75243  1.0000
  H   H14       1.0  0.56587  0.24757  0.86417  1.0000
  H   H15       1.0  0.06587  0.86417  0.24757  1.0000
  H   H16       1.0  0.43413  0.75243  0.13583  1.0000
  H   H17       1.0  0.38923  0.71001  0.57186  1.0000
  H   H18       1.0  0.11077  0.42814  0.28999  1.0000
  H   H19       1.0  0.61077  0.28999  0.42814  1.0000
  H   H20       1.0  0.88923  0.57186  0.71001  1.0000
  H   H21       1.0  0.31553  0.79394  0.47224  1.0000
  H   H22       1.0  0.18447  0.52776  0.20606  1.0000
  H   H23       1.0  0.68447  0.20606  0.52776  1.0000
  H   H24       1.0  0.81553  0.47224  0.79394  1.0000
  H   H25       1.0  0.41745  0.26352  0.33447  1.0000
  H   H26       1.0  0.08254  0.66554  0.73648  1.0000
  H   H27       1.0  0.58255  0.73648  0.66553  1.0000
  H   H28       1.0  0.91745  0.33447  0.26352  1.0000
  H   H29       1.0  0.53592  0.34432  0.27266  1.0000
  H   H30       1.0  0.96407  0.72734  0.65568  1.0000
  H   H31       1.0  0.46407  0.65569  0.72734  1.0000
  H   H32       1.0  0.03593  0.27266  0.34432  1.0000
  C   C1        1.0  0.15207  0.17629  0.65438  1.0000
  C   C2        1.0  0.34792  0.34561  0.82371  1.0000
  C   C3        1.0  0.84792  0.82371  0.34562  1.0000
  C   C4        1.0  0.65208  0.65438  0.17629  1.0000
  C   C5        1.0  0.31599  0.14155  0.63274  1.0000
  C   C6        1.0  0.18401  0.36726  0.85846  1.0000
  C   C7        1.0  0.68401  0.85845  0.36726  1.0000
  C   C8        1.0  0.81599  0.63274  0.14155  1.0000
  C   C9        1.0  0.39109  0.03549  0.69191  1.0000
  C   C10       1.0  0.10891  0.30809  0.96451  1.0000
  C   C11       1.0  0.60891  0.96451  0.30809  1.0000
  C   C12       1.0  0.89109  0.69191  0.03549  1.0000
  C   C13       1.0  0.29896  0.96722  0.77572  1.0000
  C   C14       1.0  0.20105  0.22427  0.03278  1.0000
  C   C15       1.0  0.70104  0.03278  0.22427  1.0000
  C   C16       1.0  0.79896  0.77572  0.96722  1.0000
  C   C17       1.0  0.13538  0.00240  0.79787  1.0000
  C   C18       1.0  0.36462  0.20213  0.99760  1.0000
  C   C19       1.0  0.86462  0.99760  0.20213  1.0000
  C   C20       1.0  0.63538  0.79787  0.00240  1.0000
  C   C21       1.0  0.06190  0.10581  0.73646  1.0000
  C   C22       1.0  0.43811  0.26354  0.89419  1.0000
  C   C23       1.0  0.93810  0.89419  0.26354  1.0000
  C   C24       1.0  0.56190  0.73646  0.10581  1.0000
  C   C25       1.0  0.56342  0.99268  0.66570  1.0000
  C   C26       1.0  0.93658  0.33430  0.00733  1.0000
  C   C27       1.0  0.43658  0.00733  0.33430  1.0000
  C   C28       1.0  0.06342  0.66570  0.99268  1.0000
  C   C29       1.0  0.06898  0.28621  0.58956  1.0000
  C   C30       1.0  0.43101  0.41044  0.71379  1.0000
  C   C31       1.0  0.93101  0.71379  0.41044  1.0000
  C   C32       1.0  0.56898  0.58956  0.28621  1.0000
  N   N1        1.0  0.66452  0.05990  0.60981  1.0000
  N   N2        1.0  0.83548  0.39018  0.94010  1.0000
  N   N3        1.0  0.33548  0.94010  0.39018  1.0000
  N   N4        1.0  0.16452  0.60981  0.05990  1.0000
  N   N5        1.0  0.80879  0.97921  0.60252  1.0000
  N   N6        1.0  0.69121  0.39747  0.02080  1.0000
  N   N7        1.0  0.19121  0.02080  0.39747  1.0000
  N   N8        1.0  0.30879  0.60252  0.97921  1.0000
  N   N9        1.0  0.79711  0.86827  0.65308  1.0000
  N   N10       1.0  0.70289  0.34692  0.13173  1.0000
  N   N11       1.0  0.20289  0.13173  0.34692  1.0000
  N   N12       1.0  0.29711  0.65308  0.86827  1.0000
  N   N13       1.0  0.64446  0.87407  0.69250  1.0000
  N   N14       1.0  0.85553  0.30749  0.12593  1.0000
  N   N15       1.0  0.35554  0.12593  0.30750  1.0000
  N   N16       1.0  0.14446  0.69250  0.87407  1.0000
  O   O1        1.0  0.13696  0.36956  0.53875  1.0000
  O   O2        1.0  0.36303  0.46125  0.63045  1.0000
  O   O3        1.0  0.86303  0.63044  0.46125  1.0000
  O   O4        1.0  0.63696  0.53875  0.36955  1.0000
  O   O5        1.0  0.93069  0.28957  0.58841  1.0000
  O   O6        1.0  0.56930  0.41159  0.71043  1.0000
  O   O7        1.0  0.06930  0.71043  0.41159  1.0000
  O   O8        1.0  0.43069  0.58841  0.28957  1.0000
  O   O9        1.0  0.30289  0.72354  0.53136  1.0000
  O   O10       1.0  0.19711  0.46864  0.27646  1.0000
  O   O11       1.0  0.69711  0.27646  0.46863  1.0000
  O   O12       1.0  0.80289  0.53137  0.72354  1.0000
  O   O13       1.0  0.46322  0.32926  0.35648  1.0000
  O   O14       1.0  0.03677  0.64352  0.67074  1.0000
  O   O15       1.0  0.53677  0.67074  0.64352  1.0000
  O   O16       1.0  0.96323  0.35648  0.32926  1.0000
