data_image0
_chemical_formula_structural       Tb2Cu2H32C32N16O16
_chemical_formula_sum              "Tb2 Cu2 H32 C32 N16 O16"
_cell_length_a       9.24199
_cell_length_b       10.865
_cell_length_c       10.8651
_cell_angle_alpha    88.0476
_cell_angle_beta     72.6922
_cell_angle_gamma    72.6921

_space_group_name_H-M_alt    "P 1"
_space_group_IT_number       1

loop_
  _space_group_symop_operation_xyz
  'x, y, z'

loop_
  _atom_site_type_symbol
  _atom_site_label
  _atom_site_symmetry_multiplicity
  _atom_site_fract_x
  _atom_site_fract_y
  _atom_site_fract_z
  _atom_site_occupancy
  Tb  Tb1       1.0  0.25000  0.03280  0.96720  1.0000
  Tb  Tb2       1.0  0.75000  0.96720  0.03280  1.0000
  Cu  Cu1       1.0  0.50000  1.00000  0.50000  1.0000
  Cu  Cu2       1.0  1.00000  0.50000  1.00000  1.0000
  H   H1        1.0  0.56671  0.74835  0.36400  1.0000
  H   H2        1.0  0.93329  0.63600  0.25165  1.0000
  H   H3        1.0  0.43329  0.25166  0.63600  1.0000
  H   H4        1.0  0.06671  0.36400  0.74835  1.0000
  H   H5        1.0  0.43465  0.63906  0.55303  1.0000
  H   H6        1.0  0.06536  0.44696  0.36094  1.0000
  H   H7        1.0  0.56536  0.36094  0.44697  1.0000
  H   H8        1.0  0.93464  0.55304  0.63906  1.0000
  H   H9        1.0  0.14461  0.67706  0.61452  1.0000
  H   H10       1.0  0.35540  0.38548  0.32294  1.0000
  H   H11       1.0  0.85540  0.32294  0.38547  1.0000
  H   H12       1.0  0.64460  0.61452  0.67706  1.0000
  H   H13       1.0  0.11568  0.93089  0.30246  1.0000
  H   H14       1.0  0.38431  0.69754  0.06911  1.0000
  H   H15       1.0  0.88431  0.06911  0.69754  1.0000
  H   H16       1.0  0.61569  0.30246  0.93089  1.0000
  H   H17       1.0  0.11054  0.92807  0.79078  1.0000
  H   H18       1.0  0.38946  0.20922  0.07194  1.0000
  H   H19       1.0  0.88945  0.07193  0.20922  1.0000
  H   H20       1.0  0.61055  0.79078  0.92806  1.0000
  H   H21       1.0  0.18453  0.02751  0.70672  1.0000
  H   H22       1.0  0.31546  0.29328  0.97249  1.0000
  H   H23       1.0  0.81546  0.97249  0.29328  1.0000
  H   H24       1.0  0.68454  0.70672  0.02751  1.0000
  H   H25       1.0  0.41663  0.76385  0.83461  1.0000
  H   H26       1.0  0.08337  0.16538  0.23615  1.0000
  H   H27       1.0  0.58338  0.23615  0.16538  1.0000
  H   H28       1.0  0.91662  0.83462  0.76385  1.0000
  H   H29       1.0  0.53499  0.84478  0.77284  1.0000
  H   H30       1.0  0.96501  0.22715  0.15522  1.0000
  H   H31       1.0  0.46501  0.15522  0.22715  1.0000
  H   H32       1.0  0.03499  0.77285  0.84478  1.0000
  C   C1        1.0  0.43129  0.91077  0.21279  1.0000
  C   C2        1.0  0.06871  0.78721  0.08923  1.0000
  C   C3        1.0  0.56872  0.08924  0.78721  1.0000
  C   C4        1.0  0.93128  0.21279  0.91077  1.0000
  C   C5        1.0  0.34849  0.84600  0.32316  1.0000
  C   C6        1.0  0.15151  0.67684  0.15400  1.0000
  C   C7        1.0  0.65151  0.15401  0.67684  1.0000
  C   C8        1.0  0.84849  0.32316  0.84600  1.0000
  C   C9        1.0  0.43884  0.76427  0.39398  1.0000
  C   C10       1.0  0.06116  0.60602  0.23573  1.0000
  C   C11       1.0  0.56115  0.23574  0.60602  1.0000
  C   C12       1.0  0.93884  0.39398  0.76427  1.0000
  C   C13       1.0  0.36540  0.70291  0.49775  1.0000
  C   C14       1.0  0.13461  0.50225  0.29709  1.0000
  C   C15       1.0  0.63460  0.29710  0.50225  1.0000
  C   C16       1.0  0.86540  0.49775  0.70291  1.0000
  C   C17       1.0  0.20174  0.72465  0.53290  1.0000
  C   C18       1.0  0.29826  0.46710  0.27535  1.0000
  C   C19       1.0  0.79826  0.27535  0.46710  1.0000
  C   C20       1.0  0.70174  0.53290  0.72465  1.0000
  C   C21       1.0  0.10945  0.80816  0.46431  1.0000
  C   C22       1.0  0.39055  0.53569  0.19184  1.0000
  C   C23       1.0  0.89055  0.19185  0.53569  1.0000
  C   C24       1.0  0.60945  0.46431  0.80816  1.0000
  C   C25       1.0  0.18449  0.86737  0.35804  1.0000
  C   C26       1.0  0.31551  0.64196  0.13263  1.0000
  C   C27       1.0  0.81551  0.13263  0.64196  1.0000
  C   C28       1.0  0.68449  0.35804  0.86738  1.0000
  C   C29       1.0  0.93701  0.83408  0.50704  1.0000
  C   C30       1.0  0.56299  0.49296  0.16593  1.0000
  C   C31       1.0  0.06299  0.16592  0.49296  1.0000
  C   C32       1.0  0.43701  0.50704  0.83408  1.0000
  N   N1        1.0  0.83592  0.89003  0.43964  1.0000
  N   N2        1.0  0.66409  0.56036  0.10997  1.0000
  N   N3        1.0  0.16408  0.10997  0.56036  1.0000
  N   N4        1.0  0.33591  0.43964  0.89004  1.0000
  N   N5        1.0  0.69155  0.89712  0.52027  1.0000
  N   N6        1.0  0.80845  0.47973  0.10288  1.0000
  N   N7        1.0  0.30845  0.10288  0.47973  1.0000
  N   N8        1.0  0.19155  0.52027  0.89712  1.0000
  N   N9        1.0  0.70313  0.84637  0.63133  1.0000
  N   N10       1.0  0.79687  0.36867  0.15363  1.0000
  N   N11       1.0  0.29687  0.15363  0.36867  1.0000
  N   N12       1.0  0.20313  0.63133  0.84637  1.0000
  N   N13       1.0  0.85583  0.80701  0.62568  1.0000
  N   N14       1.0  0.64417  0.37432  0.19299  1.0000
  N   N15       1.0  0.14417  0.19299  0.37432  1.0000
  N   N16       1.0  0.35583  0.62568  0.80701  1.0000
  O   O1        1.0  0.56981  0.91199  0.20901  1.0000
  O   O2        1.0  0.93019  0.79099  0.08802  1.0000
  O   O3        1.0  0.43020  0.08801  0.79099  1.0000
  O   O4        1.0  0.06980  0.20900  0.91199  1.0000
  O   O5        1.0  0.36282  0.96149  0.12957  1.0000
  O   O6        1.0  0.13719  0.87043  0.03850  1.0000
  O   O7        1.0  0.63719  0.03851  0.87043  1.0000
  O   O8        1.0  0.86280  0.12957  0.96150  1.0000
  O   O9        1.0  0.19724  0.96832  0.77717  1.0000
  O   O10       1.0  0.30276  0.22283  0.03168  1.0000
  O   O11       1.0  0.80275  0.03168  0.22283  1.0000
  O   O12       1.0  0.69724  0.77717  0.96832  1.0000
  O   O13       1.0  0.46232  0.82982  0.85680  1.0000
  O   O14       1.0  0.03768  0.14319  0.17018  1.0000
  O   O15       1.0  0.53768  0.17018  0.14320  1.0000
  O   O16       1.0  0.96232  0.85680  0.82982  1.0000
