data_image0
_chemical_formula_structural       Cu10H32C48N12O40
_chemical_formula_sum              "Cu10 H32 C48 N12 O40"
_cell_length_a       7.44382
_cell_length_b       13.8956
_cell_length_c       15.7787
_cell_angle_alpha    108.18
_cell_angle_beta     89.974
_cell_angle_gamma    105.515

_space_group_name_H-M_alt    "P 1"
_space_group_IT_number       1

loop_
  _space_group_symop_operation_xyz
  'x, y, z'

loop_
  _atom_site_type_symbol
  _atom_site_label
  _atom_site_symmetry_multiplicity
  _atom_site_fract_x
  _atom_site_fract_y
  _atom_site_fract_z
  _atom_site_occupancy
  Cu  Cu1       1.0  0.61687  0.72589  0.58039  1.0000
  Cu  Cu2       1.0  0.89014  0.27381  0.91949  1.0000
  Cu  Cu3       1.0  0.38308  0.27418  0.41969  1.0000
  Cu  Cu4       1.0  0.11081  0.72678  0.08164  1.0000
  Cu  Cu5       1.0  0.62338  0.49294  0.58572  1.0000
  Cu  Cu6       1.0  0.13279  0.50677  0.91416  1.0000
  Cu  Cu7       1.0  0.37662  0.50718  0.41435  1.0000
  Cu  Cu8       1.0  0.86720  0.49229  0.08575  1.0000
  Cu  Cu9       1.0  0.51207  0.99981  0.74994  1.0000
  Cu  Cu10      1.0  0.48803  0.00016  0.24998  1.0000
  H   H1        1.0  0.67128  0.79394  0.27734  1.0000
  H   H2        1.0  0.87759  0.20557  0.22235  1.0000
  H   H3        1.0  0.32860  0.20608  0.72262  1.0000
  H   H4        1.0  0.12260  0.79417  0.77793  1.0000
  H   H5        1.0  0.30327  0.59505  0.56679  1.0000
  H   H6        1.0  0.70762  0.40495  0.93310  1.0000
  H   H7        1.0  0.69664  0.40504  0.43325  1.0000
  H   H8        1.0  0.29166  0.59518  0.06627  1.0000
  H   H9        1.0  0.81651  0.92611  0.64286  1.0000
  H   H10       1.0  0.89038  0.07364  0.85714  1.0000
  H   H11       1.0  0.18350  0.07386  0.35698  1.0000
  H   H12       1.0  0.10882  0.92685  0.14283  1.0000
  H   H13       1.0  0.93894  0.84776  0.64640  1.0000
  H   H14       1.0  0.09095  0.15211  0.85354  1.0000
  H   H15       1.0  0.06114  0.15223  0.35359  1.0000
  H   H16       1.0  0.90842  0.84818  0.14617  1.0000
  H   H17       1.0  0.49439  0.59733  0.24219  1.0000
  H   H18       1.0  0.89701  0.40220  0.25772  1.0000
  H   H19       1.0  0.50573  0.40276  0.75777  1.0000
  H   H20       1.0  0.10323  0.59732  0.74263  1.0000
  H   H21       1.0  0.76801  0.87715  0.45067  1.0000
  H   H22       1.0  0.89119  0.12251  0.04895  1.0000
  H   H23       1.0  0.23193  0.12290  0.54932  1.0000
  H   H24       1.0  0.10825  0.87699  0.95140  1.0000
  H   H25       1.0  0.56660  0.92449  0.01104  1.0000
  H   H26       1.0  0.64218  0.07514  0.48883  1.0000
  H   H27       1.0  0.43347  0.07547  0.98900  1.0000
  H   H28       1.0  0.35760  0.92474  0.51089  1.0000
  H   H29       1.0  0.65417  0.56952  0.87035  1.0000
  H   H30       1.0  0.08374  0.43018  0.62956  1.0000
  H   H31       1.0  0.34596  0.43048  0.12987  1.0000
  H   H32       1.0  0.91585  0.56966  0.37033  1.0000
  C   C1        1.0  0.54527  0.65285  0.30858  1.0000
  C   C2        1.0  0.89243  0.34673  0.19128  1.0000
  C   C3        1.0  0.45476  0.34719  0.69141  1.0000
  C   C4        1.0  0.10753  0.65289  0.80898  1.0000
  C   C5        1.0  0.68629  0.79704  0.41515  1.0000
  C   C6        1.0  0.88946  0.20260  0.08457  1.0000
  C   C7        1.0  0.31368  0.20299  0.58485  1.0000
  C   C8        1.0  0.11002  0.79692  0.91564  1.0000
  C   C9        1.0  0.62885  0.71062  0.84762  1.0000
  C   C10       1.0  0.91749  0.28906  0.65231  1.0000
  C   C11       1.0  0.37116  0.28934  0.15254  1.0000
  C   C12       1.0  0.08242  0.71067  0.34746  1.0000
  C   C13       1.0  0.61151  0.81320  0.88844  1.0000
  C   C14       1.0  0.79792  0.18648  0.61147  1.0000
  C   C15       1.0  0.38858  0.18679  0.11166  1.0000
  C   C16       1.0  0.20201  0.81328  0.38831  1.0000
  C   C17       1.0  0.58610  0.84660  0.97925  1.0000
  C   C18       1.0  0.73938  0.15304  0.52065  1.0000
  C   C19       1.0  0.41391  0.15338  0.02083  1.0000
  C   C20       1.0  0.26044  0.84681  0.47914  1.0000
  C   C21       1.0  0.59047  0.78292  0.03169  1.0000
  C   C22       1.0  0.80723  0.21675  0.46822  1.0000
  C   C23       1.0  0.40928  0.21707  0.96841  1.0000
  C   C24       1.0  0.19264  0.78318  0.53164  1.0000
  C   C25       1.0  0.62062  0.68386  0.99316  1.0000
  C   C26       1.0  0.93613  0.31586  0.50678  1.0000
  C   C27       1.0  0.37913  0.31615  0.00707  1.0000
  C   C28       1.0  0.06363  0.68412  0.49309  1.0000
  C   C29       1.0  0.63690  0.64784  0.90105  1.0000
  C   C30       1.0  0.98819  0.35187  0.59888  1.0000
  C   C31       1.0  0.36323  0.35217  0.09919  1.0000
  C   C32       1.0  0.01145  0.64798  0.40097  1.0000
  C   C33       1.0  0.63185  0.66814  0.74776  1.0000
  C   C34       1.0  0.96305  0.33172  0.75214  1.0000
  C   C35       1.0  0.36818  0.33187  0.25240  1.0000
  C   C36       1.0  0.03802  0.66787  0.24755  1.0000
  C   C37       1.0  0.62846  0.89470  0.84286  1.0000
  C   C38       1.0  0.73364  0.10500  0.65706  1.0000
  C   C39       1.0  0.37188  0.10547  0.15734  1.0000
  C   C40       1.0  0.26634  0.89482  0.34276  1.0000
  C   C41       1.0  0.57585  0.83029  0.12933  1.0000
  C   C42       1.0  0.74538  0.16961  0.37061  1.0000
  C   C43       1.0  0.42387  0.16973  0.87070  1.0000
  C   C44       1.0  0.25460  0.83042  0.62926  1.0000
  C   C45       1.0  0.63823  0.61858  0.05113  1.0000
  C   C46       1.0  0.01925  0.38109  0.44880  1.0000
  C   C47       1.0  0.36119  0.38168  0.94946  1.0000
  C   C48       1.0  0.98062  0.61895  0.55115  1.0000
  N   N1        1.0  0.61305  0.72403  0.45248  1.0000
  N   N2        1.0  0.88888  0.27566  0.04735  1.0000
  N   N3        1.0  0.38693  0.27601  0.54752  1.0000
  N   N4        1.0  0.11018  0.72356  0.95256  1.0000
  N   N5        1.0  0.52469  0.63349  0.38570  1.0000
  N   N6        1.0  0.89091  0.36615  0.11421  1.0000
  N   N7        1.0  0.47533  0.36655  0.61429  1.0000
  N   N8        1.0  0.10851  0.63380  0.88623  1.0000
  N   N9        1.0  0.64570  0.75474  0.32518  1.0000
  N   N10       1.0  0.89123  0.24484  0.17457  1.0000
  N   N11       1.0  0.35432  0.24530  0.67482  1.0000
  N   N12       1.0  0.10885  0.75484  0.82560  1.0000
  O   O1        1.0  0.65547  0.57637  0.71489  1.0000
  O   O2        1.0  0.07835  0.42340  0.78479  1.0000
  O   O3        1.0  0.34434  0.42361  0.28519  1.0000
  O   O4        1.0  0.92136  0.57663  0.21474  1.0000
  O   O5        1.0  0.60608  0.72819  0.70518  1.0000
  O   O6        1.0  0.87719  0.27179  0.79488  1.0000
  O   O7        1.0  0.39439  0.27197  0.29500  1.0000
  O   O8        1.0  0.12672  0.72707  0.20480  1.0000
  O   O9        1.0  0.47422  0.91571  0.82993  1.0000
  O   O10       1.0  0.55836  0.08392  0.66998  1.0000
  O   O11       1.0  0.52607  0.08428  0.16997  1.0000
  O   O12       1.0  0.44174  0.91620  0.33012  1.0000
  O   O13       1.0  0.78809  0.94205  0.82822  1.0000
  O   O14       1.0  0.84621  0.05779  0.67169  1.0000
  O   O15       1.0  0.21239  0.05850  0.17240  1.0000
  O   O16       1.0  0.15352  0.94175  0.32787  1.0000
  O   O17       1.0  0.43946  0.87125  0.14635  1.0000
  O   O18       1.0  0.56804  0.12920  0.35362  1.0000
  O   O19       1.0  0.56053  0.12901  0.85366  1.0000
  O   O20       1.0  0.43204  0.87073  0.64620  1.0000
  O   O21       1.0  0.69988  0.83380  0.18621  1.0000
  O   O22       1.0  0.86594  0.16575  0.31369  1.0000
  O   O23       1.0  0.29964  0.16605  0.81384  1.0000
  O   O24       1.0  0.13420  0.83446  0.68621  1.0000
  O   O25       1.0  0.79721  0.59775  0.04721  1.0000
  O   O26       1.0  0.19900  0.40181  0.45267  1.0000
  O   O27       1.0  0.20257  0.40313  0.95430  1.0000
  O   O28       1.0  0.80089  0.59825  0.54731  1.0000
  O   O29       1.0  0.50980  0.59091  0.09744  1.0000
  O   O30       1.0  0.91860  0.40872  0.40246  1.0000
  O   O31       1.0  0.48856  0.40893  0.90263  1.0000
  O   O32       1.0  0.08139  0.59131  0.59741  1.0000
  O   O33       1.0  0.42428  0.59350  0.53940  1.0000
  O   O34       1.0  0.82915  0.40591  0.96091  1.0000
  O   O35       1.0  0.57567  0.40662  0.46067  1.0000
  O   O36       1.0  0.17388  0.59666  0.03646  1.0000
  O   O37       1.0  0.83364  0.85494  0.61148  1.0000
  O   O38       1.0  0.97848  0.14484  0.88850  1.0000
  O   O39       1.0  0.16635  0.14496  0.38850  1.0000
  O   O40       1.0  0.02094  0.85570  0.11132  1.0000
