data_image0
_chemical_formula_structural       Zn2H48C48N12O8
_chemical_formula_sum              "Zn2 H48 C48 N12 O8"
_cell_length_a       10.3292
_cell_length_b       10.509
_cell_length_c       12.534
_cell_angle_alpha    113.18
_cell_angle_beta     97.0152
_cell_angle_gamma    105.239

_space_group_name_H-M_alt    "P 1"
_space_group_IT_number       1

loop_
  _space_group_symop_operation_xyz
  'x, y, z'

loop_
  _atom_site_type_symbol
  _atom_site_label
  _atom_site_symmetry_multiplicity
  _atom_site_fract_x
  _atom_site_fract_y
  _atom_site_fract_z
  _atom_site_occupancy
  Zn  Zn1       1.0  0.89654  0.88932  0.68773  1.0000
  Zn  Zn2       1.0  0.10346  0.11069  0.31227  1.0000
  H   H1        1.0  0.48731  0.57679  0.44822  1.0000
  H   H2        1.0  0.51270  0.42321  0.55178  1.0000
  H   H3        1.0  0.23255  0.45104  0.35977  1.0000
  H   H4        1.0  0.76745  0.54896  0.64023  1.0000
  H   H5        1.0  0.06849  0.57300  0.44803  1.0000
  H   H6        1.0  0.93151  0.42700  0.55197  1.0000
  H   H7        1.0  0.41359  0.93826  0.71750  1.0000
  H   H8        1.0  0.58641  0.06174  0.28250  1.0000
  H   H9        1.0  0.69002  0.79484  0.83604  1.0000
  H   H10       1.0  0.30999  0.20516  0.16396  1.0000
  H   H11       1.0  0.11828  0.87126  0.89422  1.0000
  H   H12       1.0  0.88173  0.12874  0.10578  1.0000
  H   H13       1.0  0.74685  0.80438  0.10405  1.0000
  H   H14       1.0  0.25315  0.19562  0.89595  1.0000
  H   H15       1.0  0.79684  0.64660  0.05303  1.0000
  H   H16       1.0  0.20316  0.35340  0.94697  1.0000
  H   H17       1.0  0.75013  0.41549  0.79781  1.0000
  H   H18       1.0  0.24987  0.58451  0.20219  1.0000
  H   H19       1.0  0.64375  0.28350  0.83291  1.0000
  H   H20       1.0  0.35625  0.71650  0.16709  1.0000
  H   H21       1.0  0.76013  0.45045  0.94903  1.0000
  H   H22       1.0  0.23987  0.54955  0.05098  1.0000
  H   H23       1.0  0.51419  0.20833  0.67137  1.0000
  H   H24       1.0  0.48582  0.79167  0.32862  1.0000
  H   H25       1.0  0.35578  0.20264  0.59772  1.0000
  H   H26       1.0  0.64422  0.79736  0.40228  1.0000
  H   H27       1.0  0.36367  0.15563  0.71923  1.0000
  H   H28       1.0  0.63634  0.84437  0.28077  1.0000
  H   H29       1.0  0.26294  0.74343  0.95103  1.0000
  H   H30       1.0  0.73707  0.25657  0.04897  1.0000
  H   H31       1.0  0.15670  0.59385  0.81577  1.0000
  H   H32       1.0  0.84330  0.40615  0.18423  1.0000
  H   H33       1.0  0.28027  0.74676  0.81360  1.0000
  H   H34       1.0  0.71973  0.25324  0.18639  1.0000
  H   H35       1.0  0.45858  0.85882  0.08236  1.0000
  H   H36       1.0  0.54143  0.14118  0.91764  1.0000
  H   H37       1.0  0.50632  0.89981  0.96662  1.0000
  H   H38       1.0  0.49368  0.10019  0.03338  1.0000
  H   H39       1.0  0.63389  0.90519  0.07765  1.0000
  H   H40       1.0  0.36611  0.09481  0.92235  1.0000
  H   H41       1.0  0.17680  0.45818  0.65120  1.0000
  H   H42       1.0  0.82320  0.54182  0.34880  1.0000
  H   H43       1.0  0.23748  0.31218  0.58496  1.0000
  H   H44       1.0  0.76252  0.68782  0.41503  1.0000
  H   H45       1.0  0.12191  0.07025  0.59726  1.0000
  H   H46       1.0  0.87810  0.92975  0.40274  1.0000
  H   H47       1.0  0.85619  0.21563  0.80808  1.0000
  H   H48       1.0  0.14380  0.78436  0.19191  1.0000
  C   C1        1.0  0.61922  0.84383  0.64512  1.0000
  C   C2        1.0  0.38078  0.15617  0.35488  1.0000
  C   C3        1.0  0.46654  0.76660  0.58765  1.0000
  C   C4        1.0  0.53345  0.23340  0.41235  1.0000
  C   C5        1.0  0.41488  0.62878  0.48657  1.0000
  C   C6        1.0  0.58512  0.37122  0.51343  1.0000
  C   C7        1.0  0.27214  0.55920  0.43676  1.0000
  C   C8        1.0  0.72786  0.44081  0.56324  1.0000
  C   C9        1.0  0.17999  0.62651  0.48639  1.0000
  C   C10       1.0  0.82001  0.37349  0.51361  1.0000
  C   C11       1.0  0.23053  0.76371  0.58795  1.0000
  C   C12       1.0  0.76947  0.23630  0.41205  1.0000
  C   C13       1.0  0.13432  0.83661  0.64617  1.0000
  C   C14       1.0  0.86568  0.16339  0.35383  1.0000
  C   C15       1.0  0.37362  0.83246  0.63807  1.0000
  C   C16       1.0  0.62638  0.16755  0.36193  1.0000
  C   C17       1.0  0.79466  0.80255  0.86996  1.0000
  C   C18       1.0  0.20533  0.19745  0.13004  1.0000
  C   C19       1.0  0.01280  0.84083  0.90274  1.0000
  C   C20       1.0  0.98720  0.15917  0.09726  1.0000
  C   C21       1.0  0.74582  0.71034  0.02358  1.0000
  C   C22       1.0  0.25419  0.28965  0.97642  1.0000
  C   C23       1.0  0.60241  0.61853  0.94165  1.0000
  C   C24       1.0  0.39759  0.38147  0.05835  1.0000
  C   C25       1.0  0.57671  0.47071  0.86019  1.0000
  C   C26       1.0  0.42329  0.52929  0.13981  1.0000
  C   C27       1.0  0.68786  0.40185  0.86054  1.0000
  C   C28       1.0  0.31214  0.59815  0.13946  1.0000
  C   C29       1.0  0.44820  0.38981  0.77365  1.0000
  C   C30       1.0  0.55180  0.61019  0.22635  1.0000
  C   C31       1.0  0.41903  0.23167  0.68617  1.0000
  C   C32       1.0  0.58097  0.76833  0.31383  1.0000
  C   C33       1.0  0.34777  0.45839  0.77059  1.0000
  C   C34       1.0  0.65223  0.54161  0.22941  1.0000
  C   C35       1.0  0.37073  0.60276  0.85635  1.0000
  C   C36       1.0  0.62927  0.39723  0.14365  1.0000
  C   C37       1.0  0.26168  0.67434  0.85830  1.0000
  C   C38       1.0  0.73832  0.32566  0.14170  1.0000
  C   C39       1.0  0.50057  0.68485  0.94086  1.0000
  C   C40       1.0  0.49943  0.31515  0.05914  1.0000
  C   C41       1.0  0.52771  0.84448  0.02155  1.0000
  C   C42       1.0  0.47229  0.15552  0.97845  1.0000
  C   C43       1.0  0.21716  0.38008  0.66874  1.0000
  C   C44       1.0  0.78284  0.61992  0.33125  1.0000
  C   C45       1.0  0.07034  0.13767  0.65278  1.0000
  C   C46       1.0  0.92966  0.86233  0.34722  1.0000
  C   C47       1.0  0.93717  0.21617  0.76075  1.0000
  C   C48       1.0  0.06283  0.78383  0.23924  1.0000
  N   N1        1.0  0.90591  0.84933  0.83279  1.0000
  N   N2        1.0  0.09409  0.15067  0.16721  1.0000
  N   N3        1.0  0.97316  0.79168  0.98026  1.0000
  N   N4        1.0  0.02684  0.20832  0.01974  1.0000
  N   N5        1.0  0.83438  0.76787  0.95776  1.0000
  N   N6        1.0  0.16563  0.23213  0.04224  1.0000
  N   N7        1.0  0.96470  0.09160  0.69615  1.0000
  N   N8        1.0  0.03529  0.90840  0.30384  1.0000
  N   N9        1.0  0.02034  0.33546  0.75963  1.0000
  N   N10       1.0  0.97965  0.66454  0.24036  1.0000
  N   N11       1.0  0.10406  0.28276  0.69022  1.0000
  N   N12       1.0  0.89594  0.71724  0.30977  1.0000
  O   O1        1.0  0.70061  0.77927  0.59104  1.0000
  O   O2        1.0  0.29939  0.22073  0.40897  1.0000
  O   O3        1.0  0.66243  0.96119  0.74080  1.0000
  O   O4        1.0  0.33757  0.03882  0.25921  1.0000
  O   O5        1.0  0.00501  0.78128  0.58652  1.0000
  O   O6        1.0  0.99499  0.21872  0.41348  1.0000
  O   O7        1.0  0.18043  0.94568  0.74819  1.0000
  O   O8        1.0  0.81957  0.05432  0.25181  1.0000
