data_image0
_chemical_formula_structural       Zn2H48C48N12O8
_chemical_formula_sum              "Zn2 H48 C48 N12 O8"
_cell_length_a       9.29167
_cell_length_b       11.7744
_cell_length_c       13.159
_cell_angle_alpha    104.713
_cell_angle_beta     110.319
_cell_angle_gamma    108.011

_space_group_name_H-M_alt    "P 1"
_space_group_IT_number       1

loop_
  _space_group_symop_operation_xyz
  'x, y, z'

loop_
  _atom_site_type_symbol
  _atom_site_label
  _atom_site_symmetry_multiplicity
  _atom_site_fract_x
  _atom_site_fract_y
  _atom_site_fract_z
  _atom_site_occupancy
  Zn  Zn1       1.0  0.07294  0.70746  0.44915  1.0000
  Zn  Zn2       1.0  0.92706  0.29254  0.55085  1.0000
  H   H1        1.0  0.16258  0.61187  0.66554  1.0000
  H   H2        1.0  0.83742  0.38813  0.33446  1.0000
  H   H3        1.0  0.49196  0.81590  0.55225  1.0000
  H   H4        1.0  0.50805  0.18409  0.44775  1.0000
  H   H5        1.0  0.54045  0.58129  0.79990  1.0000
  H   H6        1.0  0.45955  0.41871  0.20010  1.0000
  H   H7        1.0  0.38393  0.60289  0.83677  1.0000
  H   H8        1.0  0.61607  0.39711  0.16322  1.0000
  H   H9        1.0  0.90610  0.66265  0.92221  1.0000
  H   H10       1.0  0.09390  0.33735  0.07779  1.0000
  H   H11       1.0  0.96969  0.80056  0.88992  1.0000
  H   H12       1.0  0.03031  0.19944  0.11008  1.0000
  H   H13       1.0  0.76037  0.67508  0.80031  1.0000
  H   H14       1.0  0.23963  0.32492  0.19969  1.0000
  H   H15       1.0  0.13250  0.83337  0.11601  1.0000
  H   H16       1.0  0.86750  0.16663  0.88398  1.0000
  H   H17       1.0  0.20949  0.00018  0.20639  1.0000
  H   H18       1.0  0.79051  0.99982  0.79360  1.0000
  H   H19       1.0  0.15816  0.95177  0.05543  1.0000
  H   H20       1.0  0.84184  0.04823  0.94457  1.0000
  H   H21       1.0  0.59468  0.06153  0.17497  1.0000
  H   H22       1.0  0.40532  0.93847  0.82503  1.0000
  H   H23       1.0  0.76706  0.07594  0.29883  1.0000
  H   H24       1.0  0.23294  0.92406  0.70116  1.0000
  H   H25       1.0  0.56962  0.93454  0.22416  1.0000
  H   H26       1.0  0.43038  0.06546  0.77584  1.0000
  H   H27       1.0  0.31632  0.74668  0.89362  1.0000
  H   H28       1.0  0.68368  0.25333  0.10638  1.0000
  H   H29       1.0  0.39056  0.90593  0.99798  1.0000
  H   H30       1.0  0.60944  0.09408  0.00202  1.0000
  H   H31       1.0  0.36298  0.77566  0.04238  1.0000
  H   H32       1.0  0.63702  0.22434  0.95761  1.0000
  H   H33       1.0  0.14196  0.13324  0.27309  1.0000
  H   H34       1.0  0.85804  0.86675  0.72691  1.0000
  H   H35       1.0  0.99084  0.14633  0.32083  1.0000
  H   H36       1.0  0.00917  0.85367  0.67917  1.0000
  H   H37       1.0  0.87544  0.83620  0.30673  1.0000
  H   H38       1.0  0.12456  0.16381  0.69327  1.0000
  H   H39       1.0  0.38622  0.01569  0.57235  1.0000
  H   H40       1.0  0.61378  0.98432  0.42765  1.0000
  H   H41       1.0  0.79828  0.53737  0.61638  1.0000
  H   H42       1.0  0.20173  0.46263  0.38363  1.0000
  H   H43       1.0  0.43430  0.58502  0.34308  1.0000
  H   H44       1.0  0.56570  0.41497  0.65692  1.0000
  H   H45       1.0  0.30814  0.63218  0.14472  1.0000
  H   H46       1.0  0.69187  0.36784  0.85529  1.0000
  H   H47       1.0  0.78369  0.48159  0.07269  1.0000
  H   H48       1.0  0.21630  0.51842  0.92731  1.0000
  C   C1        1.0  0.27438  0.66570  0.65850  1.0000
  C   C2        1.0  0.72562  0.33430  0.34150  1.0000
  C   C3        1.0  0.44478  0.77071  0.60361  1.0000
  C   C4        1.0  0.55522  0.22928  0.39639  1.0000
  C   C5        1.0  0.49658  0.65422  0.82820  1.0000
  C   C6        1.0  0.50342  0.34578  0.17180  1.0000
  C   C7        1.0  0.63474  0.76922  0.94207  1.0000
  C   C8        1.0  0.36527  0.23078  0.05793  1.0000
  C   C9        1.0  0.80764  0.79977  0.97321  1.0000
  C   C10       1.0  0.19236  0.20023  0.02679  1.0000
  C   C11       1.0  0.93582  0.89930  0.08427  1.0000
  C   C12       1.0  0.06419  0.10070  0.91573  1.0000
  C   C13       1.0  0.89008  0.97039  0.16119  1.0000
  C   C14       1.0  0.10991  0.02960  0.83881  1.0000
  C   C15       1.0  0.71731  0.94105  0.12918  1.0000
  C   C16       1.0  0.28269  0.05895  0.87082  1.0000
  C   C17       1.0  0.58901  0.84141  0.01782  1.0000
  C   C18       1.0  0.41098  0.15859  0.98217  1.0000
  C   C19       1.0  0.86172  0.72996  0.89163  1.0000
  C   C20       1.0  0.13828  0.27004  0.10837  1.0000
  C   C21       1.0  0.11838  0.92330  0.11830  1.0000
  C   C22       1.0  0.88162  0.07670  0.88169  1.0000
  C   C23       1.0  0.66132  0.00751  0.21144  1.0000
  C   C24       1.0  0.33867  0.99249  0.78855  1.0000
  C   C25       1.0  0.40604  0.81523  0.98542  1.0000
  C   C26       1.0  0.59396  0.18478  0.01458  1.0000
  C   C27       1.0  0.03002  0.07620  0.27982  1.0000
  C   C28       1.0  0.96999  0.92380  0.72018  1.0000
  C   C29       1.0  0.00836  0.90490  0.36522  1.0000
  C   C30       1.0  0.99164  0.09510  0.63477  1.0000
  C   C31       1.0  0.26822  0.99727  0.50013  1.0000
  C   C32       1.0  0.73178  0.00273  0.49987  1.0000
  C   C33       1.0  0.76421  0.63156  0.44583  1.0000
  C   C34       1.0  0.23579  0.36844  0.55417  1.0000
  C   C35       1.0  0.62897  0.56673  0.47626  1.0000
  C   C36       1.0  0.37104  0.43327  0.52374  1.0000
  C   C37       1.0  0.66743  0.52129  0.56643  1.0000
  C   C38       1.0  0.33258  0.47870  0.43358  1.0000
  C   C39       1.0  0.46104  0.54566  0.41037  1.0000
  C   C40       1.0  0.53897  0.45433  0.58963  1.0000
  C   C41       1.0  0.10779  0.63062  0.25107  1.0000
  C   C42       1.0  0.89221  0.36938  0.74893  1.0000
  C   C43       1.0  0.05119  0.56280  0.12120  1.0000
  C   C44       1.0  0.94881  0.43721  0.87881  1.0000
  C   C45       1.0  0.17347  0.57436  0.08023  1.0000
  C   C46       1.0  0.82653  0.42565  0.91978  1.0000
  C   C47       1.0  0.87743  0.48834  0.03993  1.0000
  C   C48       1.0  0.12257  0.51167  0.96008  1.0000
  N   N1        1.0  0.27682  0.71494  0.57757  1.0000
  N   N2        1.0  0.72318  0.28506  0.42243  1.0000
  N   N3        1.0  0.54569  0.75989  0.69681  1.0000
  N   N4        1.0  0.45430  0.24011  0.30319  1.0000
  N   N5        1.0  0.43525  0.69256  0.72995  1.0000
  N   N6        1.0  0.56475  0.30743  0.27005  1.0000
  N   N7        1.0  0.11746  0.88829  0.45182  1.0000
  N   N8        1.0  0.88254  0.11171  0.54818  1.0000
  N   N9        1.0  0.25745  0.07935  0.44854  1.0000
  N   N10       1.0  0.74255  0.92065  0.55146  1.0000
  N   N11       1.0  0.09211  0.01886  0.36288  1.0000
  N   N12       1.0  0.90789  0.98114  0.63711  1.0000
  O   O1        1.0  0.91791  0.65173  0.51595  1.0000
  O   O2        1.0  0.08209  0.34827  0.48406  1.0000
  O   O3        1.0  0.72863  0.65893  0.35715  1.0000
  O   O4        1.0  0.27138  0.34107  0.64286  1.0000
  O   O5        1.0  0.99607  0.58525  0.28675  1.0000
  O   O6        1.0  0.00393  0.41476  0.71326  1.0000
  O   O7        1.0  0.25230  0.72458  0.31693  1.0000
  O   O8        1.0  0.74770  0.27543  0.68308  1.0000
