data_image0
_chemical_formula_structural       Mn2H16C18O12
_chemical_formula_sum              "Mn2 H16 C18 O12"
_cell_length_a       5.09756
_cell_length_b       9.34256
_cell_length_c       9.74828
_cell_angle_alpha    90.0255
_cell_angle_beta     89.0838
_cell_angle_gamma    90.0055

_space_group_name_H-M_alt    "P 1"
_space_group_IT_number       1

loop_
  _space_group_symop_operation_xyz
  'x, y, z'

loop_
  _atom_site_type_symbol
  _atom_site_label
  _atom_site_symmetry_multiplicity
  _atom_site_fract_x
  _atom_site_fract_y
  _atom_site_fract_z
  _atom_site_occupancy
  Mn  Mn1       1.0  0.22085  0.38174  0.44670  1.0000
  Mn  Mn2       1.0  0.77878  0.88183  0.55341  1.0000
  H   H1        1.0  0.78215  0.23865  0.54267  1.0000
  H   H2        1.0  0.21744  0.73870  0.45764  1.0000
  H   H3        1.0  0.03180  0.16628  0.60696  1.0000
  H   H4        1.0  0.96791  0.66625  0.39324  1.0000
  H   H5        1.0  0.11640  0.06778  0.02967  1.0000
  H   H6        1.0  0.88377  0.56783  0.97015  1.0000
  H   H7        1.0  0.83074  0.11240  0.83456  1.0000
  H   H8        1.0  0.17023  0.61227  0.16514  1.0000
  H   H9        1.0  0.48155  0.29894  0.84926  1.0000
  H   H10       1.0  0.51941  0.79891  0.15052  1.0000
  H   H11       1.0  0.43351  0.44219  0.06471  1.0000
  H   H12       1.0  0.56694  0.94232  0.93527  1.0000
  H   H13       1.0  0.39719  0.08955  0.16567  1.0000
  H   H14       1.0  0.60240  0.58989  0.83436  1.0000
  H   H15       1.0  0.16523  0.99395  0.27136  1.0000
  H   H16       1.0  0.83470  0.49411  0.72876  1.0000
  C   C1        1.0  0.75734  0.34522  0.16535  1.0000
  C   C2        1.0  0.24255  0.84532  0.83467  1.0000
  C   C3        1.0  0.95253  0.23777  0.15591  1.0000
  C   C4        1.0  0.04736  0.73785  0.84408  1.0000
  C   C5        1.0  0.97265  0.15335  0.03743  1.0000
  C   C6        1.0  0.02760  0.65341  0.96249  1.0000
  C   C7        1.0  0.80844  0.17729  0.92681  1.0000
  C   C8        1.0  0.19218  0.67731  0.07301  1.0000
  C   C9        1.0  0.61249  0.28131  0.93492  1.0000
  C   C10       1.0  0.38822  0.78133  0.06490  1.0000
  C   C11       1.0  0.58707  0.36185  0.05432  1.0000
  C   C12       1.0  0.41316  0.86200  0.94563  1.0000
  C   C13       1.0  0.71336  0.44381  0.28446  1.0000
  C   C14       1.0  0.28626  0.94385  0.71561  1.0000
  C   C15       1.0  0.28245  0.09259  0.26217  1.0000
  C   C16       1.0  0.71720  0.59268  0.73785  1.0000
  C   C17       1.0  0.48050  0.09839  0.37667  1.0000
  C   C18       1.0  0.51934  0.59834  0.62330  1.0000
  O   O1        1.0  0.11418  0.21625  0.26616  1.0000
  O   O2        1.0  0.88547  0.71640  0.73392  1.0000
  O   O3        1.0  0.90977  0.48520  0.35639  1.0000
  O   O4        1.0  0.08988  0.98522  0.64377  1.0000
  O   O5        1.0  0.48194  0.48795  0.30760  1.0000
  O   O6        1.0  0.51766  0.98807  0.69245  1.0000
  O   O7        1.0  0.95841  0.26052  0.58017  1.0000
  O   O8        1.0  0.04119  0.76059  0.42003  1.0000
  O   O9        1.0  0.62754  0.98974  0.38393  1.0000
  O   O10       1.0  0.37255  0.48958  0.61596  1.0000
  O   O11       1.0  0.49460  0.20895  0.45268  1.0000
  O   O12       1.0  0.50512  0.70882  0.54731  1.0000
