data_image0
_chemical_formula_structural       Cd4H20C32N20O16
_chemical_formula_sum              "Cd4 H20 C32 N20 O16"
_cell_length_a       7.95845
_cell_length_b       10.6309
_cell_length_c       11.7678
_cell_angle_alpha    90.0001
_cell_angle_beta     105.365
_cell_angle_gamma    89.9998

_space_group_name_H-M_alt    "P 1"
_space_group_IT_number       1

loop_
  _space_group_symop_operation_xyz
  'x, y, z'

loop_
  _atom_site_type_symbol
  _atom_site_label
  _atom_site_symmetry_multiplicity
  _atom_site_fract_x
  _atom_site_fract_y
  _atom_site_fract_z
  _atom_site_occupancy
  Cd  Cd1       1.0  0.74527  0.75082  0.21959  1.0000
  Cd  Cd2       1.0  0.25473  0.25081  0.28041  1.0000
  Cd  Cd3       1.0  0.25473  0.24919  0.78041  1.0000
  Cd  Cd4       1.0  0.74527  0.74918  0.71959  1.0000
  H   H1        1.0  0.89585  0.22928  0.41983  1.0000
  H   H2        1.0  0.10415  0.72928  0.08018  1.0000
  H   H3        1.0  0.10415  0.77072  0.58018  1.0000
  H   H4        1.0  0.89585  0.27072  0.91982  1.0000
  H   H5        1.0  0.63260  0.08592  0.44444  1.0000
  H   H6        1.0  0.36740  0.58592  0.05556  1.0000
  H   H7        1.0  0.36740  0.91408  0.55556  1.0000
  H   H8        1.0  0.63260  0.41408  0.94444  1.0000
  H   H9        1.0  0.67886  0.92058  0.44588  1.0000
  H   H10       1.0  0.32114  0.42057  0.05413  1.0000
  H   H11       1.0  0.32114  0.07942  0.55413  1.0000
  H   H12       1.0  0.67886  0.57943  0.94587  1.0000
  H   H13       1.0  0.15239  0.95168  0.27361  1.0000
  H   H14       1.0  0.84760  0.45168  0.22639  1.0000
  H   H15       1.0  0.84760  0.04832  0.72639  1.0000
  H   H16       1.0  0.15239  0.54832  0.77360  1.0000
  H   H17       1.0  0.21302  0.95090  0.91382  1.0000
  H   H18       1.0  0.78698  0.45090  0.58618  1.0000
  H   H19       1.0  0.78698  0.04910  0.08618  1.0000
  H   H20       1.0  0.21302  0.54910  0.41382  1.0000
  C   C1        1.0  0.18581  0.10174  0.04041  1.0000
  C   C2        1.0  0.81418  0.60174  0.45959  1.0000
  C   C3        1.0  0.81418  0.89826  0.95959  1.0000
  C   C4        1.0  0.18582  0.39826  0.54041  1.0000
  C   C5        1.0  0.92794  0.14218  0.38245  1.0000
  C   C6        1.0  0.07206  0.64218  0.11755  1.0000
  C   C7        1.0  0.07206  0.85782  0.61755  1.0000
  C   C8        1.0  0.92794  0.35782  0.88245  1.0000
  C   C9        1.0  0.66709  0.00771  0.39424  1.0000
  C   C10       1.0  0.33291  0.50771  0.10576  1.0000
  C   C11       1.0  0.33291  0.99229  0.60576  1.0000
  C   C12       1.0  0.66709  0.49230  0.89424  1.0000
  C   C13       1.0  0.41804  0.92176  0.10174  1.0000
  C   C14       1.0  0.58197  0.42176  0.39826  1.0000
  C   C15       1.0  0.58197  0.07824  0.89826  1.0000
  C   C16       1.0  0.41803  0.57824  0.60173  1.0000
  C   C17       1.0  0.39980  0.83744  0.99982  1.0000
  C   C18       1.0  0.60021  0.33745  0.50018  1.0000
  C   C19       1.0  0.60021  0.16255  0.00019  1.0000
  C   C20       1.0  0.39979  0.66255  0.49981  1.0000
  C   C21       1.0  0.05897  0.99878  0.31109  1.0000
  C   C22       1.0  0.94103  0.49878  0.18891  1.0000
  C   C23       1.0  0.94102  0.00122  0.68891  1.0000
  C   C24       1.0  0.05897  0.50122  0.81109  1.0000
  C   C25       1.0  0.53487  0.99296  0.27819  1.0000
  C   C26       1.0  0.46512  0.49296  0.22181  1.0000
  C   C27       1.0  0.46513  0.00705  0.72181  1.0000
  C   C28       1.0  0.53488  0.50704  0.77819  1.0000
  C   C29       1.0  0.32871  0.03038  0.12021  1.0000
  C   C30       1.0  0.67129  0.53038  0.37979  1.0000
  C   C31       1.0  0.67129  0.96962  0.87979  1.0000
  C   C32       1.0  0.32871  0.46962  0.62021  1.0000
  N   N1        1.0  0.92020  0.94199  0.32821  1.0000
  N   N2        1.0  0.07979  0.44198  0.17179  1.0000
  N   N3        1.0  0.07979  0.05802  0.67179  1.0000
  N   N4        1.0  0.92021  0.55802  0.82821  1.0000
  N   N5        1.0  0.83827  0.03393  0.37419  1.0000
  N   N6        1.0  0.16173  0.53393  0.12581  1.0000
  N   N7        1.0  0.16173  0.96607  0.62581  1.0000
  N   N8        1.0  0.83827  0.46607  0.87419  1.0000
  N   N9        1.0  0.40394  0.07367  0.23200  1.0000
  N   N10       1.0  0.59606  0.57367  0.26800  1.0000
  N   N11       1.0  0.59605  0.92633  0.76800  1.0000
  N   N12       1.0  0.40395  0.42633  0.73200  1.0000
  N   N13       1.0  0.54605  0.89966  0.20317  1.0000
  N   N14       1.0  0.45395  0.39966  0.29683  1.0000
  N   N15       1.0  0.45395  0.10034  0.79683  1.0000
  N   N16       1.0  0.54605  0.60034  0.70317  1.0000
  N   N17       1.0  0.06961  0.12244  0.34365  1.0000
  N   N18       1.0  0.93040  0.62244  0.15635  1.0000
  N   N19       1.0  0.93040  0.87756  0.65636  1.0000
  N   N20       1.0  0.06961  0.37756  0.84365  1.0000
  O   O1        1.0  0.27702  0.86374  0.90336  1.0000
  O   O2        1.0  0.72299  0.36374  0.59664  1.0000
  O   O3        1.0  0.72299  0.13626  0.09664  1.0000
  O   O4        1.0  0.27701  0.63626  0.40336  1.0000
  O   O5        1.0  0.12184  0.19440  0.08174  1.0000
  O   O6        1.0  0.87816  0.69440  0.41826  1.0000
  O   O7        1.0  0.87816  0.80560  0.91825  1.0000
  O   O8        1.0  0.12184  0.30560  0.58175  1.0000
  O   O9        1.0  0.13666  0.06793  0.93156  1.0000
  O   O10       1.0  0.86334  0.56793  0.56843  1.0000
  O   O11       1.0  0.86334  0.93207  0.06843  1.0000
  O   O12       1.0  0.13667  0.43207  0.43157  1.0000
  O   O13       1.0  0.49720  0.74387  0.00691  1.0000
  O   O14       1.0  0.50280  0.24387  0.49309  1.0000
  O   O15       1.0  0.50280  0.25613  0.99309  1.0000
  O   O16       1.0  0.49720  0.75613  0.50690  1.0000
