data_image0
_chemical_formula_structural       Ca4H36C44N12O20
_chemical_formula_sum              "Ca4 H36 C44 N12 O20"
_cell_length_a       8.76567
_cell_length_b       11.3849
_cell_length_c       12.717
_cell_angle_alpha    90
_cell_angle_beta     100.198
_cell_angle_gamma    90

_space_group_name_H-M_alt    "P 1"
_space_group_IT_number       1

loop_
  _space_group_symop_operation_xyz
  'x, y, z'

loop_
  _atom_site_type_symbol
  _atom_site_label
  _atom_site_symmetry_multiplicity
  _atom_site_fract_x
  _atom_site_fract_y
  _atom_site_fract_z
  _atom_site_occupancy
  Ca  Ca1       1.0  0.83444  0.01223  0.88453  1.0000
  Ca  Ca2       1.0  0.83444  0.98777  0.38453  1.0000
  Ca  Ca3       1.0  0.37155  0.40835  0.02382  1.0000
  Ca  Ca4       1.0  0.37156  0.59165  0.52382  1.0000
  H   H1        1.0  0.24721  0.31312  0.41335  1.0000
  H   H2        1.0  0.24721  0.68688  0.91335  1.0000
  H   H3        1.0  0.08146  0.25900  0.45884  1.0000
  H   H4        1.0  0.08146  0.74100  0.95884  1.0000
  H   H5        1.0  0.39257  0.05871  0.38751  1.0000
  H   H6        1.0  0.39257  0.94130  0.88752  1.0000
  H   H7        1.0  0.20226  0.22383  0.64256  1.0000
  H   H8        1.0  0.20226  0.77617  0.14256  1.0000
  H   H9        1.0  0.54540  0.92925  0.52473  1.0000
  H   H10       1.0  0.54539  0.07075  0.02473  1.0000
  H   H11       1.0  0.36419  0.09127  0.76822  1.0000
  H   H12       1.0  0.36419  0.90873  0.26822  1.0000
  H   H13       1.0  0.57665  0.34804  0.44113  1.0000
  H   H14       1.0  0.57665  0.65196  0.94112  1.0000
  H   H15       1.0  0.68956  0.22765  0.50036  1.0000
  H   H16       1.0  0.68956  0.77235  0.00036  1.0000
  H   H17       1.0  0.90328  0.36607  0.67822  1.0000
  H   H18       1.0  0.90328  0.63393  0.17822  1.0000
  H   H19       1.0  0.77115  0.43468  0.33989  1.0000
  H   H20       1.0  0.77115  0.56532  0.83989  1.0000
  H   H21       1.0  0.14730  0.46739  0.67333  1.0000
  H   H22       1.0  0.14729  0.53261  0.17333  1.0000
  H   H23       1.0  0.02511  0.53780  0.34959  1.0000
  H   H24       1.0  0.02511  0.46220  0.84959  1.0000
  H   H25       1.0  0.25586  0.27946  0.22155  1.0000
  H   H26       1.0  0.25586  0.72054  0.72155  1.0000
  H   H27       1.0  0.71857  0.20207  0.70568  1.0000
  H   H28       1.0  0.71856  0.79793  0.20568  1.0000
  H   H29       1.0  0.03903  0.21645  0.77898  1.0000
  H   H30       1.0  0.03903  0.78354  0.27898  1.0000
  H   H31       1.0  0.16835  0.25164  0.86945  1.0000
  H   H32       1.0  0.16835  0.74836  0.36945  1.0000
  H   H33       1.0  0.56786  0.92489  0.73564  1.0000
  H   H34       1.0  0.56786  0.07511  0.23564  1.0000
  H   H35       1.0  0.65620  0.80170  0.76514  1.0000
  H   H36       1.0  0.65620  0.19830  0.26514  1.0000
  C   C1        1.0  0.13085  0.16609  0.03335  1.0000
  C   C2        1.0  0.13086  0.83391  0.53335  1.0000
  C   C3        1.0  0.10375  0.14342  0.14333  1.0000
  C   C4        1.0  0.10375  0.85658  0.64333  1.0000
  C   C5        1.0  0.00927  0.06605  0.18894  1.0000
  C   C6        1.0  0.00927  0.93395  0.68894  1.0000
  C   C7        1.0  0.91251  0.96158  0.14834  1.0000
  C   C8        1.0  0.91251  0.03841  0.64835  1.0000
  C   C9        1.0  0.12690  0.17856  0.31723  1.0000
  C   C10       1.0  0.12690  0.82144  0.81723  1.0000
  C   C11       1.0  0.18225  0.23230  0.42403  1.0000
  C   C12       1.0  0.18225  0.76770  0.92403  1.0000
  C   C13       1.0  0.28189  0.15201  0.50258  1.0000
  C   C14       1.0  0.28189  0.84799  0.00259  1.0000
  C   C15       1.0  0.38208  0.06853  0.47111  1.0000
  C   C16       1.0  0.38208  0.93147  0.97111  1.0000
  C   C17       1.0  0.27631  0.16056  0.61148  1.0000
  C   C18       1.0  0.27631  0.83944  0.11149  1.0000
  C   C19       1.0  0.46924  0.99685  0.54780  1.0000
  C   C20       1.0  0.46924  0.00315  0.04780  1.0000
  C   C21       1.0  0.36747  0.08594  0.68297  1.0000
  C   C22       1.0  0.36747  0.91406  0.18297  1.0000
  C   C23       1.0  0.60581  0.26366  0.88706  1.0000
  C   C24       1.0  0.60581  0.73633  0.38706  1.0000
  C   C25       1.0  0.58015  0.32323  0.78057  1.0000
  C   C26       1.0  0.58014  0.67677  0.28057  1.0000
  C   C27       1.0  0.50029  0.42282  0.73528  1.0000
  C   C28       1.0  0.50028  0.57718  0.23527  1.0000
  C   C29       1.0  0.41123  0.51864  0.77689  1.0000
  C   C30       1.0  0.41123  0.48136  0.27689  1.0000
  C   C31       1.0  0.60466  0.34094  0.60991  1.0000
  C   C32       1.0  0.60465  0.65906  0.10991  1.0000
  C   C33       1.0  0.66558  0.32182  0.50897  1.0000
  C   C34       1.0  0.66558  0.67818  0.00897  1.0000
  C   C35       1.0  0.81439  0.38947  0.50863  1.0000
  C   C36       1.0  0.81439  0.61053  0.00863  1.0000
  C   C37       1.0  0.92314  0.40199  0.60259  1.0000
  C   C38       1.0  0.92314  0.59801  0.10259  1.0000
  C   C39       1.0  0.85181  0.43929  0.41571  1.0000
  C   C40       1.0  0.85181  0.56071  0.91571  1.0000
  C   C41       1.0  0.06197  0.45976  0.60020  1.0000
  C   C42       1.0  0.06196  0.54024  0.10020  1.0000
  C   C43       1.0  0.99350  0.49671  0.42030  1.0000
  C   C44       1.0  0.99350  0.50329  0.92030  1.0000
  N   N1        1.0  0.02504  0.09110  0.29672  1.0000
  N   N2        1.0  0.02504  0.90890  0.79672  1.0000
  N   N3        1.0  0.17708  0.21130  0.22671  1.0000
  N   N4        1.0  0.17708  0.78870  0.72671  1.0000
  N   N5        1.0  0.46221  0.00494  0.65238  1.0000
  N   N6        1.0  0.46221  0.99506  0.15238  1.0000
  N   N7        1.0  0.64413  0.27472  0.69898  1.0000
  N   N8        1.0  0.64413  0.72528  0.19897  1.0000
  N   N9        1.0  0.51669  0.43118  0.62921  1.0000
  N   N10       1.0  0.51668  0.56882  0.12921  1.0000
  N   N11       1.0  0.09910  0.50652  0.51087  1.0000
  N   N12       1.0  0.09910  0.49348  0.01087  1.0000
  O   O1        1.0  0.24216  0.23502  0.02231  1.0000
  O   O2        1.0  0.24216  0.76499  0.52231  1.0000
  O   O3        1.0  0.04241  0.11944  0.95611  1.0000
  O   O4        1.0  0.04241  0.88057  0.45610  1.0000
  O   O5        1.0  0.88307  0.93415  0.05089  1.0000
  O   O6        1.0  0.88307  0.06585  0.55089  1.0000
  O   O7        1.0  0.86393  0.90052  0.22108  1.0000
  O   O8        1.0  0.86392  0.09948  0.72108  1.0000
  O   O9        1.0  0.66332  0.16093  0.88928  1.0000
  O   O10       1.0  0.66332  0.83907  0.38927  1.0000
  O   O11       1.0  0.57013  0.31593  0.96698  1.0000
  O   O12       1.0  0.57013  0.68407  0.46698  1.0000
  O   O13       1.0  0.37255  0.51334  0.86781  1.0000
  O   O14       1.0  0.37255  0.48666  0.36781  1.0000
  O   O15       1.0  0.37833  0.60604  0.71264  1.0000
  O   O16       1.0  0.37833  0.39395  0.21264  1.0000
  O   O17       1.0  0.12261  0.27433  0.79583  1.0000
  O   O18       1.0  0.12261  0.72567  0.29583  1.0000
  O   O19       1.0  0.64425  0.87923  0.79437  1.0000
  O   O20       1.0  0.64425  0.12077  0.29437  1.0000
