data_image0
_chemical_formula_structural       Ba4H36C44N12O20
_chemical_formula_sum              "Ba4 H36 C44 N12 O20"
_cell_length_a       7.04045
_cell_length_b       13.2801
_cell_length_c       14.589
_cell_angle_alpha    113.729
_cell_angle_beta     90
_cell_angle_gamma    90

_space_group_name_H-M_alt    "P 1"
_space_group_IT_number       1

loop_
  _space_group_symop_operation_xyz
  'x, y, z'

loop_
  _atom_site_type_symbol
  _atom_site_label
  _atom_site_symmetry_multiplicity
  _atom_site_fract_x
  _atom_site_fract_y
  _atom_site_fract_z
  _atom_site_occupancy
  Ba  Ba1       1.0  0.54158  0.65005  0.46437  1.0000
  Ba  Ba2       1.0  0.04158  0.84995  0.53563  1.0000
  Ba  Ba3       1.0  0.45842  0.34995  0.53563  1.0000
  Ba  Ba4       1.0  0.95842  0.15005  0.46437  1.0000
  H   H1        1.0  0.93437  0.30468  0.75804  1.0000
  H   H2        1.0  0.43437  0.19532  0.24196  1.0000
  H   H3        1.0  0.06563  0.69532  0.24196  1.0000
  H   H4        1.0  0.56563  0.80468  0.75804  1.0000
  H   H5        1.0  0.02013  0.19866  0.79184  1.0000
  H   H6        1.0  0.52013  0.30133  0.20816  1.0000
  H   H7        1.0  0.97987  0.80134  0.20815  1.0000
  H   H8        1.0  0.47987  0.69867  0.79185  1.0000
  H   H9        1.0  0.74845  0.46153  0.87985  1.0000
  H   H10       1.0  0.24845  0.03847  0.12015  1.0000
  H   H11       1.0  0.25155  0.53847  0.12015  1.0000
  H   H12       1.0  0.75155  0.96153  0.87985  1.0000
  H   H13       1.0  0.66961  0.57018  0.06033  1.0000
  H   H14       1.0  0.16962  0.92982  0.93967  1.0000
  H   H15       1.0  0.33038  0.42982  0.93967  1.0000
  H   H16       1.0  0.83038  0.07018  0.06033  1.0000
  H   H17       1.0  0.95859  0.20582  0.96442  1.0000
  H   H18       1.0  0.45859  0.29418  0.03558  1.0000
  H   H19       1.0  0.04141  0.79418  0.03558  1.0000
  H   H20       1.0  0.54141  0.70582  0.96442  1.0000
  H   H21       1.0  0.87573  0.32624  0.14161  1.0000
  H   H22       1.0  0.37573  0.17376  0.85839  1.0000
  H   H23       1.0  0.12427  0.67376  0.85839  1.0000
  H   H24       1.0  0.62426  0.82624  0.14161  1.0000
  H   H25       1.0  0.53638  0.29448  0.73183  1.0000
  H   H26       1.0  0.03638  0.20552  0.26817  1.0000
  H   H27       1.0  0.46362  0.70552  0.26817  1.0000
  H   H28       1.0  0.96363  0.79448  0.73183  1.0000
  H   H29       1.0  0.40550  0.51401  0.25844  1.0000
  H   H30       1.0  0.90550  0.98599  0.74156  1.0000
  H   H31       1.0  0.59450  0.48599  0.74156  1.0000
  H   H32       1.0  0.09450  0.01401  0.25844  1.0000
  H   H33       1.0  0.61044  0.52327  0.21008  1.0000
  H   H34       1.0  0.11045  0.97673  0.78992  1.0000
  H   H35       1.0  0.38955  0.47673  0.78992  1.0000
  H   H36       1.0  0.88955  0.02327  0.21008  1.0000
  C   C1        1.0  0.54962  0.91171  0.60064  1.0000
  C   C2        1.0  0.04963  0.58829  0.39935  1.0000
  C   C3        1.0  0.45038  0.08829  0.39936  1.0000
  C   C4        1.0  0.95037  0.41171  0.60064  1.0000
  C   C5        1.0  0.57007  0.03217  0.66173  1.0000
  C   C6        1.0  0.07008  0.46783  0.33827  1.0000
  C   C7        1.0  0.42993  0.96783  0.33827  1.0000
  C   C8        1.0  0.92992  0.53217  0.66173  1.0000
  C   C9        1.0  0.46142  0.12225  0.66614  1.0000
  C   C10       1.0  0.96142  0.37775  0.33386  1.0000
  C   C11       1.0  0.53858  0.87775  0.33386  1.0000
  C   C12       1.0  0.03858  0.62225  0.66614  1.0000
  C   C13       1.0  0.27694  0.13839  0.62357  1.0000
  C   C14       1.0  0.77694  0.36161  0.37643  1.0000
  C   C15       1.0  0.72306  0.86161  0.37643  1.0000
  C   C16       1.0  0.22306  0.63839  0.62356  1.0000
  C   C17       1.0  0.73629  0.17911  0.74570  1.0000
  C   C18       1.0  0.23629  0.32089  0.25430  1.0000
  C   C19       1.0  0.26371  0.82089  0.25430  1.0000
  C   C20       1.0  0.76371  0.67911  0.74570  1.0000
  C   C21       1.0  0.89844  0.25274  0.79834  1.0000
  C   C22       1.0  0.39844  0.24726  0.20166  1.0000
  C   C23       1.0  0.10156  0.74726  0.20166  1.0000
  C   C24       1.0  0.60156  0.75274  0.79834  1.0000
  C   C25       1.0  0.85776  0.32355  0.90701  1.0000
  C   C26       1.0  0.35776  0.17645  0.09299  1.0000
  C   C27       1.0  0.14224  0.67645  0.09299  1.0000
  C   C28       1.0  0.64224  0.82355  0.90702  1.0000
  C   C29       1.0  0.77852  0.42849  0.93567  1.0000
  C   C30       1.0  0.27851  0.07150  0.06433  1.0000
  C   C31       1.0  0.22148  0.57151  0.06433  1.0000
  C   C32       1.0  0.72149  0.92850  0.93567  1.0000
  C   C33       1.0  0.73504  0.48896  0.03605  1.0000
  C   C34       1.0  0.23504  0.01104  0.96395  1.0000
  C   C35       1.0  0.26496  0.51104  0.96395  1.0000
  C   C36       1.0  0.76496  0.98896  0.03605  1.0000
  C   C37       1.0  0.89465  0.28636  0.98249  1.0000
  C   C38       1.0  0.39464  0.21364  0.01751  1.0000
  C   C39       1.0  0.10536  0.71364  0.01751  1.0000
  C   C40       1.0  0.60536  0.78636  0.98250  1.0000
  C   C41       1.0  0.84826  0.35315  0.08127  1.0000
  C   C42       1.0  0.34826  0.14685  0.91873  1.0000
  C   C43       1.0  0.15174  0.64685  0.91873  1.0000
  C   C44       1.0  0.65174  0.85315  0.08127  1.0000
  N   N1        1.0  0.73839  0.06989  0.71309  1.0000
  N   N2        1.0  0.23839  0.43011  0.28691  1.0000
  N   N3        1.0  0.26161  0.93011  0.28691  1.0000
  N   N4        1.0  0.76161  0.56989  0.71309  1.0000
  N   N5        1.0  0.57087  0.21362  0.71967  1.0000
  N   N6        1.0  0.07087  0.28638  0.28033  1.0000
  N   N7        1.0  0.42913  0.78638  0.28033  1.0000
  N   N8        1.0  0.92913  0.71362  0.71967  1.0000
  N   N9        1.0  0.76685  0.45252  0.10831  1.0000
  N   N10       1.0  0.26685  0.04748  0.89169  1.0000
  N   N11       1.0  0.23315  0.54748  0.89169  1.0000
  N   N12       1.0  0.73315  0.95252  0.10832  1.0000
  O   O1        1.0  0.67797  0.84921  0.61204  1.0000
  O   O2        1.0  0.17797  0.65079  0.38796  1.0000
  O   O3        1.0  0.32203  0.15079  0.38796  1.0000
  O   O4        1.0  0.82202  0.34921  0.61204  1.0000
  O   O5        1.0  0.41736  0.87651  0.53664  1.0000
  O   O6        1.0  0.91736  0.62349  0.46336  1.0000
  O   O7        1.0  0.58264  0.12349  0.46336  1.0000
  O   O8        1.0  0.08263  0.37651  0.53664  1.0000
  O   O9        1.0  0.15589  0.06097  0.59038  1.0000
  O   O10       1.0  0.65590  0.43904  0.40962  1.0000
  O   O11       1.0  0.84411  0.93903  0.40962  1.0000
  O   O12       1.0  0.34410  0.56096  0.59038  1.0000
  O   O13       1.0  0.25027  0.23300  0.62307  1.0000
  O   O14       1.0  0.75026  0.26700  0.37694  1.0000
  O   O15       1.0  0.74973  0.76700  0.37693  1.0000
  O   O16       1.0  0.24973  0.73299  0.62306  1.0000
  O   O17       1.0  0.50363  0.56653  0.25319  1.0000
  O   O18       1.0  0.00363  0.93347  0.74681  1.0000
  O   O19       1.0  0.49637  0.43347  0.74681  1.0000
  O   O20       1.0  0.99637  0.06653  0.25319  1.0000
