data_image0
_chemical_formula_structural       Sr4H36C44N12O20
_chemical_formula_sum              "Sr4 H36 C44 N12 O20"
_cell_length_a       6.75065
_cell_length_b       12.8662
_cell_length_c       14.696
_cell_angle_alpha    112.854
_cell_angle_beta     90
_cell_angle_gamma    90

_space_group_name_H-M_alt    "P 1"
_space_group_IT_number       1

loop_
  _space_group_symop_operation_xyz
  'x, y, z'

loop_
  _atom_site_type_symbol
  _atom_site_label
  _atom_site_symmetry_multiplicity
  _atom_site_fract_x
  _atom_site_fract_y
  _atom_site_fract_z
  _atom_site_occupancy
  Sr  Sr1       1.0  0.55195  0.84653  0.03471  1.0000
  Sr  Sr2       1.0  0.05195  0.65348  0.96529  1.0000
  Sr  Sr3       1.0  0.44805  0.15347  0.96529  1.0000
  Sr  Sr4       1.0  0.94805  0.34652  0.03471  1.0000
  H   H1        1.0  0.92508  0.18453  0.73752  1.0000
  H   H2        1.0  0.42510  0.31547  0.26248  1.0000
  H   H3        1.0  0.07491  0.81547  0.26248  1.0000
  H   H4        1.0  0.57491  0.68453  0.73752  1.0000
  H   H5        1.0  0.02396  0.29400  0.70628  1.0000
  H   H6        1.0  0.52396  0.20599  0.29372  1.0000
  H   H7        1.0  0.97604  0.70599  0.29371  1.0000
  H   H8        1.0  0.47604  0.79400  0.70628  1.0000
  H   H9        1.0  0.73793  0.02640  0.61287  1.0000
  H   H10       1.0  0.23793  0.47360  0.38713  1.0000
  H   H11       1.0  0.26208  0.97360  0.38713  1.0000
  H   H12       1.0  0.76208  0.52640  0.61287  1.0000
  H   H13       1.0  0.67035  0.92011  0.43272  1.0000
  H   H14       1.0  0.17034  0.57989  0.56728  1.0000
  H   H15       1.0  0.32966  0.07989  0.56728  1.0000
  H   H16       1.0  0.82966  0.42011  0.43272  1.0000
  H   H17       1.0  0.95601  0.29930  0.53940  1.0000
  H   H18       1.0  0.45601  0.20070  0.46060  1.0000
  H   H19       1.0  0.04398  0.70069  0.46060  1.0000
  H   H20       1.0  0.54398  0.79930  0.53940  1.0000
  H   H21       1.0  0.88600  0.18019  0.36221  1.0000
  H   H22       1.0  0.38600  0.31981  0.63779  1.0000
  H   H23       1.0  0.11400  0.81980  0.63779  1.0000
  H   H24       1.0  0.61399  0.68019  0.36221  1.0000
  H   H25       1.0  0.51979  0.20230  0.77226  1.0000
  H   H26       1.0  0.01980  0.29771  0.22775  1.0000
  H   H27       1.0  0.48021  0.79770  0.22774  1.0000
  H   H28       1.0  0.98021  0.70230  0.77226  1.0000
  H   H29       1.0  0.41809  0.98555  0.23305  1.0000
  H   H30       1.0  0.91809  0.51445  0.76696  1.0000
  H   H31       1.0  0.58191  0.01445  0.76695  1.0000
  H   H32       1.0  0.08191  0.48555  0.23304  1.0000
  H   H33       1.0  0.63230  0.97437  0.28024  1.0000
  H   H34       1.0  0.13230  0.52563  0.71976  1.0000
  H   H35       1.0  0.36771  0.02563  0.71976  1.0000
  H   H36       1.0  0.86770  0.47437  0.28024  1.0000
  C   C1        1.0  0.55432  0.59306  0.90455  1.0000
  C   C2        1.0  0.05431  0.90695  0.09545  1.0000
  C   C3        1.0  0.44568  0.40694  0.09545  1.0000
  C   C4        1.0  0.94568  0.09305  0.90455  1.0000
  C   C5        1.0  0.56549  0.47120  0.83952  1.0000
  C   C6        1.0  0.06548  0.02880  0.16049  1.0000
  C   C7        1.0  0.43451  0.52880  0.16048  1.0000
  C   C8        1.0  0.93451  0.97120  0.83951  1.0000
  C   C9        1.0  0.44904  0.38003  0.83648  1.0000
  C   C10       1.0  0.94904  0.11997  0.16353  1.0000
  C   C11       1.0  0.55096  0.61997  0.16352  1.0000
  C   C12       1.0  0.05095  0.88003  0.83647  1.0000
  C   C13       1.0  0.26115  0.36553  0.88350  1.0000
  C   C14       1.0  0.76115  0.13448  0.11650  1.0000
  C   C15       1.0  0.73885  0.63448  0.11650  1.0000
  C   C16       1.0  0.23885  0.86552  0.88350  1.0000
  C   C17       1.0  0.72830  0.31859  0.75254  1.0000
  C   C18       1.0  0.22831  0.18141  0.24747  1.0000
  C   C19       1.0  0.27170  0.68141  0.24746  1.0000
  C   C20       1.0  0.77170  0.81859  0.75254  1.0000
  C   C21       1.0  0.89296  0.24083  0.69898  1.0000
  C   C22       1.0  0.39297  0.25917  0.30102  1.0000
  C   C23       1.0  0.10704  0.75917  0.30102  1.0000
  C   C24       1.0  0.60704  0.74083  0.69898  1.0000
  C   C25       1.0  0.85141  0.17260  0.59119  1.0000
  C   C26       1.0  0.35141  0.32740  0.40881  1.0000
  C   C27       1.0  0.14859  0.82740  0.40881  1.0000
  C   C28       1.0  0.64859  0.67260  0.59119  1.0000
  C   C29       1.0  0.77119  0.06393  0.55961  1.0000
  C   C30       1.0  0.27119  0.43607  0.44039  1.0000
  C   C31       1.0  0.22881  0.93607  0.44039  1.0000
  C   C32       1.0  0.72882  0.56393  0.55961  1.0000
  C   C33       1.0  0.73481  0.00456  0.45938  1.0000
  C   C34       1.0  0.23480  0.49544  0.54062  1.0000
  C   C35       1.0  0.26520  0.99543  0.54062  1.0000
  C   C36       1.0  0.76520  0.50457  0.45938  1.0000
  C   C37       1.0  0.89271  0.21529  0.51886  1.0000
  C   C38       1.0  0.39272  0.28471  0.48114  1.0000
  C   C39       1.0  0.10728  0.78471  0.48114  1.0000
  C   C40       1.0  0.60728  0.71529  0.51886  1.0000
  C   C41       1.0  0.85357  0.14930  0.42012  1.0000
  C   C42       1.0  0.35357  0.35070  0.57988  1.0000
  C   C43       1.0  0.14643  0.85070  0.57988  1.0000
  C   C44       1.0  0.64643  0.64930  0.42012  1.0000
  N   N1        1.0  0.73592  0.43058  0.78504  1.0000
  N   N2        1.0  0.23591  0.06942  0.21496  1.0000
  N   N3        1.0  0.26409  0.56942  0.21496  1.0000
  N   N4        1.0  0.76408  0.93059  0.78504  1.0000
  N   N5        1.0  0.55634  0.28504  0.78099  1.0000
  N   N6        1.0  0.05634  0.21497  0.21902  1.0000
  N   N7        1.0  0.44366  0.71496  0.21901  1.0000
  N   N8        1.0  0.94365  0.78503  0.78098  1.0000
  N   N9        1.0  0.77389  0.04561  0.39006  1.0000
  N   N10       1.0  0.27389  0.45440  0.60994  1.0000
  N   N11       1.0  0.22611  0.95439  0.60994  1.0000
  N   N12       1.0  0.72611  0.54561  0.39006  1.0000
  O   O1        1.0  0.69270  0.65711  0.89631  1.0000
  O   O2        1.0  0.19269  0.84290  0.10369  1.0000
  O   O3        1.0  0.30730  0.34289  0.10368  1.0000
  O   O4        1.0  0.80730  0.15710  0.89631  1.0000
  O   O5        1.0  0.41979  0.62819  0.96955  1.0000
  O   O6        1.0  0.91979  0.87182  0.03045  1.0000
  O   O7        1.0  0.58021  0.37181  0.03045  1.0000
  O   O8        1.0  0.08021  0.12818  0.96955  1.0000
  O   O9        1.0  0.13833  0.44589  0.91983  1.0000
  O   O10       1.0  0.63834  0.05411  0.08018  1.0000
  O   O11       1.0  0.86167  0.55411  0.08017  1.0000
  O   O12       1.0  0.36166  0.94589  0.91983  1.0000
  O   O13       1.0  0.23287  0.26849  0.88522  1.0000
  O   O14       1.0  0.73288  0.23151  0.11478  1.0000
  O   O15       1.0  0.76713  0.73151  0.11478  1.0000
  O   O16       1.0  0.26712  0.76849  0.88522  1.0000
  O   O17       1.0  0.52695  0.93140  0.23283  1.0000
  O   O18       1.0  0.02695  0.56860  0.76717  1.0000
  O   O19       1.0  0.47305  0.06860  0.76717  1.0000
  O   O20       1.0  0.97305  0.43140  0.23283  1.0000
