data_image0
_chemical_formula_structural       Ba4H36C44N12O20
_chemical_formula_sum              "Ba4 H36 C44 N12 O20"
_cell_length_a       7.14032
_cell_length_b       13.4354
_cell_length_c       13.996
_cell_angle_alpha    112.385
_cell_angle_beta     90
_cell_angle_gamma    90

_space_group_name_H-M_alt    "P 1"
_space_group_IT_number       1

loop_
  _space_group_symop_operation_xyz
  'x, y, z'

loop_
  _atom_site_type_symbol
  _atom_site_label
  _atom_site_symmetry_multiplicity
  _atom_site_fract_x
  _atom_site_fract_y
  _atom_site_fract_z
  _atom_site_occupancy
  Ba  Ba1       1.0  0.46427  0.31757  0.45852  1.0000
  Ba  Ba2       1.0  0.96427  0.18243  0.54148  1.0000
  Ba  Ba3       1.0  0.53573  0.68243  0.54148  1.0000
  Ba  Ba4       1.0  0.03573  0.81757  0.45852  1.0000
  H   H1        1.0  0.02113  0.00328  0.23836  1.0000
  H   H2        1.0  0.52113  0.49672  0.76164  1.0000
  H   H3        1.0  0.97887  0.99672  0.76164  1.0000
  H   H4        1.0  0.47887  0.50328  0.23836  1.0000
  H   H5        1.0  0.86096  0.08687  0.20878  1.0000
  H   H6        1.0  0.36096  0.41314  0.79122  1.0000
  H   H7        1.0  0.13904  0.91314  0.79122  1.0000
  H   H8        1.0  0.63904  0.58686  0.20878  1.0000
  H   H9        1.0  0.18397  0.88010  0.09472  1.0000
  H   H10       1.0  0.68397  0.61991  0.90529  1.0000
  H   H11       1.0  0.81602  0.11991  0.90529  1.0000
  H   H12       1.0  0.31603  0.38009  0.09471  1.0000
  H   H13       1.0  0.19232  0.76140  0.90526  1.0000
  H   H14       1.0  0.69232  0.73861  0.09474  1.0000
  H   H15       1.0  0.80768  0.23861  0.09474  1.0000
  H   H16       1.0  0.30768  0.26140  0.90526  1.0000
  H   H17       1.0  0.90543  0.74834  0.79924  1.0000
  H   H18       1.0  0.40543  0.75166  0.20076  1.0000
  H   H19       1.0  0.09457  0.25166  0.20076  1.0000
  H   H20       1.0  0.59457  0.24834  0.79924  1.0000
  H   H21       1.0  0.61613  0.96145  0.05010  1.0000
  H   H22       1.0  0.11613  0.53855  0.94990  1.0000
  H   H23       1.0  0.38387  0.03855  0.94990  1.0000
  H   H24       1.0  0.88386  0.46145  0.05010  1.0000
  H   H25       1.0  0.53871  0.09366  0.26724  1.0000
  H   H26       1.0  0.03871  0.40634  0.73276  1.0000
  H   H27       1.0  0.46129  0.90634  0.73276  1.0000
  H   H28       1.0  0.96129  0.59366  0.26724  1.0000
  H   H29       1.0  0.60322  0.26756  0.24187  1.0000
  H   H30       1.0  0.10322  0.23244  0.75813  1.0000
  H   H31       1.0  0.39678  0.73244  0.75813  1.0000
  H   H32       1.0  0.89678  0.76756  0.24187  1.0000
  H   H33       1.0  0.43062  0.19013  0.17445  1.0000
  H   H34       1.0  0.93061  0.30987  0.82555  1.0000
  H   H35       1.0  0.56939  0.80987  0.82555  1.0000
  H   H36       1.0  0.06939  0.69013  0.17445  1.0000
  C   C1        1.0  0.28063  0.03140  0.37779  1.0000
  C   C2        1.0  0.78063  0.46860  0.62221  1.0000
  C   C3        1.0  0.71937  0.96860  0.62221  1.0000
  C   C4        1.0  0.21937  0.53140  0.37779  1.0000
  C   C5        1.0  0.46346  0.97930  0.33592  1.0000
  C   C6        1.0  0.96345  0.52069  0.66409  1.0000
  C   C7        1.0  0.53654  0.02070  0.66408  1.0000
  C   C8        1.0  0.03655  0.47930  0.33592  1.0000
  C   C9        1.0  0.57264  0.89461  0.34052  1.0000
  C   C10       1.0  0.07263  0.60538  0.65948  1.0000
  C   C11       1.0  0.42737  0.10539  0.65948  1.0000
  C   C12       1.0  0.92737  0.39461  0.34052  1.0000
  C   C13       1.0  0.54675  0.82364  0.39941  1.0000
  C   C14       1.0  0.04675  0.67636  0.60059  1.0000
  C   C15       1.0  0.45325  0.17636  0.60059  1.0000
  C   C16       1.0  0.95325  0.32364  0.39941  1.0000
  C   C17       1.0  0.73586  0.97130  0.25622  1.0000
  C   C18       1.0  0.23586  0.52870  0.74378  1.0000
  C   C19       1.0  0.26414  0.02870  0.74378  1.0000
  C   C20       1.0  0.76414  0.47130  0.25622  1.0000
  C   C21       1.0  0.88715  0.00324  0.20003  1.0000
  C   C22       1.0  0.38715  0.49676  0.79997  1.0000
  C   C23       1.0  0.11285  0.99676  0.79997  1.0000
  C   C24       1.0  0.61285  0.50324  0.20003  1.0000
  C   C25       1.0  0.89946  0.93084  0.08725  1.0000
  C   C26       1.0  0.39946  0.56916  0.91275  1.0000
  C   C27       1.0  0.10054  0.06916  0.91275  1.0000
  C   C28       1.0  0.60054  0.43084  0.08725  1.0000
  C   C29       1.0  0.06238  0.87319  0.04530  1.0000
  C   C30       1.0  0.56239  0.62681  0.95470  1.0000
  C   C31       1.0  0.93762  0.12681  0.95470  1.0000
  C   C32       1.0  0.43761  0.37319  0.04530  1.0000
  C   C33       1.0  0.06750  0.80703  0.94069  1.0000
  C   C34       1.0  0.56750  0.69297  0.05931  1.0000
  C   C35       1.0  0.93250  0.19297  0.05931  1.0000
  C   C36       1.0  0.43250  0.30703  0.94069  1.0000
  C   C37       1.0  0.90787  0.79959  0.88120  1.0000
  C   C38       1.0  0.40787  0.70042  0.11880  1.0000
  C   C39       1.0  0.09213  0.20042  0.11880  1.0000
  C   C40       1.0  0.59213  0.29958  0.88120  1.0000
  C   C41       1.0  0.74671  0.91802  0.02068  1.0000
  C   C42       1.0  0.24671  0.58198  0.97932  1.0000
  C   C43       1.0  0.25329  0.08198  0.97932  1.0000
  C   C44       1.0  0.75329  0.41802  0.02068  1.0000
  N   N1        1.0  0.74042  0.89019  0.28911  1.0000
  N   N2        1.0  0.24042  0.60981  0.71089  1.0000
  N   N3        1.0  0.25958  0.10981  0.71089  1.0000
  N   N4        1.0  0.75958  0.39019  0.28911  1.0000
  N   N5        1.0  0.57141  0.02520  0.28196  1.0000
  N   N6        1.0  0.07141  0.47480  0.71804  1.0000
  N   N7        1.0  0.42859  0.97480  0.71804  1.0000
  N   N8        1.0  0.92860  0.52520  0.28196  1.0000
  N   N9        1.0  0.74902  0.85358  0.92031  1.0000
  N   N10       1.0  0.24902  0.64642  0.07969  1.0000
  N   N11       1.0  0.25098  0.14642  0.07969  1.0000
  N   N12       1.0  0.75098  0.35358  0.92031  1.0000
  O   O1        1.0  0.25630  0.12503  0.37694  1.0000
  O   O2        1.0  0.75630  0.37497  0.62306  1.0000
  O   O3        1.0  0.74369  0.87497  0.62306  1.0000
  O   O4        1.0  0.24370  0.62502  0.37694  1.0000
  O   O5        1.0  0.15825  0.98382  0.41116  1.0000
  O   O6        1.0  0.65825  0.51618  0.58884  1.0000
  O   O7        1.0  0.84175  0.01618  0.58884  1.0000
  O   O8        1.0  0.34175  0.48382  0.41116  1.0000
  O   O9        1.0  0.40933  0.83947  0.46077  1.0000
  O   O10       1.0  0.90932  0.66052  0.53923  1.0000
  O   O11       1.0  0.59067  0.16053  0.53923  1.0000
  O   O12       1.0  0.09067  0.33947  0.46077  1.0000
  O   O13       1.0  0.67268  0.75216  0.38821  1.0000
  O   O14       1.0  0.17267  0.74784  0.61179  1.0000
  O   O15       1.0  0.32733  0.24784  0.61179  1.0000
  O   O16       1.0  0.82732  0.25216  0.38821  1.0000
  O   O17       1.0  0.51460  0.20820  0.23618  1.0000
  O   O18       1.0  0.01460  0.29180  0.76382  1.0000
  O   O19       1.0  0.48540  0.79180  0.76382  1.0000
  O   O20       1.0  0.98540  0.70820  0.23618  1.0000
