data_image0
_chemical_formula_structural       Zn2H44C60N6O16
_chemical_formula_sum              "Zn2 H44 C60 N6 O16"
_cell_length_a       7.27826
_cell_length_b       12.1642
_cell_length_c       16.627
_cell_angle_alpha    91.2214
_cell_angle_beta     101.442
_cell_angle_gamma    101.811

_space_group_name_H-M_alt    "P 1"
_space_group_IT_number       1

loop_
  _space_group_symop_operation_xyz
  'x, y, z'

loop_
  _atom_site_type_symbol
  _atom_site_label
  _atom_site_symmetry_multiplicity
  _atom_site_fract_x
  _atom_site_fract_y
  _atom_site_fract_z
  _atom_site_occupancy
  Zn  Zn1       1.0  0.08083  0.63613  0.22783  1.0000
  Zn  Zn2       1.0  0.91917  0.36387  0.77217  1.0000
  H   H1        1.0  0.69840  0.29562  0.16993  1.0000
  H   H2        1.0  0.30161  0.70438  0.83007  1.0000
  H   H3        1.0  0.80306  0.96551  0.22169  1.0000
  H   H4        1.0  0.19695  0.03449  0.77831  1.0000
  H   H5        1.0  0.48415  0.03051  0.29437  1.0000
  H   H6        1.0  0.51585  0.96949  0.70563  1.0000
  H   H7        1.0  0.05489  0.62614  0.04174  1.0000
  H   H8        1.0  0.94511  0.37387  0.95825  1.0000
  H   H9        1.0  0.70222  0.11615  0.02474  1.0000
  H   H10       1.0  0.29777  0.88385  0.97526  1.0000
  H   H11       1.0  0.13807  0.05448  0.29399  1.0000
  H   H12       1.0  0.86193  0.94552  0.70601  1.0000
  H   H13       1.0  0.70343  0.14856  0.35564  1.0000
  H   H14       1.0  0.29656  0.85144  0.64436  1.0000
  H   H15       1.0  0.25209  0.87123  0.21284  1.0000
  H   H16       1.0  0.74791  0.12877  0.78716  1.0000
  H   H17       1.0  0.38460  0.64720  0.38763  1.0000
  H   H18       1.0  0.61540  0.35280  0.61237  1.0000
  H   H19       1.0  0.53413  0.17535  0.89134  1.0000
  H   H20       1.0  0.46586  0.82465  0.10866  1.0000
  H   H21       1.0  0.47363  0.56993  0.23439  1.0000
  H   H22       1.0  0.52637  0.43006  0.76561  1.0000
  H   H23       1.0  0.76700  0.92884  0.55647  1.0000
  H   H24       1.0  0.23300  0.07117  0.44353  1.0000
  H   H25       1.0  0.65035  0.49737  0.14105  1.0000
  H   H26       1.0  0.34964  0.50261  0.85895  1.0000
  H   H27       1.0  0.21382  0.55861  0.93779  1.0000
  H   H28       1.0  0.78618  0.44139  0.06221  1.0000
  H   H29       1.0  0.20733  0.12450  0.12820  1.0000
  H   H30       1.0  0.79268  0.87551  0.87180  1.0000
  H   H31       1.0  0.62952  0.79532  0.47675  1.0000
  H   H32       1.0  0.37048  0.20469  0.52325  1.0000
  H   H33       1.0  0.98139  0.09405  0.64113  1.0000
  H   H34       1.0  0.01861  0.90596  0.35887  1.0000
  H   H35       1.0  0.91422  0.30317  0.44983  1.0000
  H   H36       1.0  0.08579  0.69684  0.55017  1.0000
  H   H37       1.0  0.04432  0.18875  0.99534  1.0000
  H   H38       1.0  0.95569  0.81125  0.00466  1.0000
  H   H39       1.0  0.54474  0.35742  0.30379  1.0000
  H   H40       1.0  0.45525  0.64259  0.69621  1.0000
  H   H41       1.0  0.94325  0.69179  0.36502  1.0000
  H   H42       1.0  0.05674  0.30821  0.63498  1.0000
  H   H43       1.0  0.82134  0.70511  0.27656  1.0000
  H   H44       1.0  0.17865  0.29489  0.72344  1.0000
  C   C1        1.0  0.57906  0.92899  0.39467  1.0000
  C   C2        1.0  0.42094  0.07102  0.60533  1.0000
  C   C3        1.0  0.03633  0.41885  0.24944  1.0000
  C   C4        1.0  0.96366  0.58115  0.75056  1.0000
  C   C5        1.0  0.44896  0.52061  0.02953  1.0000
  C   C6        1.0  0.55104  0.47939  0.97047  1.0000
  C   C7        1.0  0.18626  0.22478  0.85602  1.0000
  C   C8        1.0  0.81373  0.77522  0.14398  1.0000
  C   C9        1.0  0.79494  0.24251  0.19688  1.0000
  C   C10       1.0  0.20506  0.75749  0.80312  1.0000
  C   C11       1.0  0.85448  0.05674  0.22645  1.0000
  C   C12       1.0  0.14552  0.94326  0.77355  1.0000
  C   C13       1.0  0.10549  0.22423  0.27382  1.0000
  C   C14       1.0  0.89451  0.77578  0.72618  1.0000
  C   C15       1.0  0.47057  0.94748  0.31833  1.0000
  C   C16       1.0  0.52943  0.05252  0.68167  1.0000
  C   C17       1.0  0.27948  0.18515  0.93531  1.0000
  C   C18       1.0  0.72051  0.81485  0.06469  1.0000
  C   C19       1.0  0.98024  0.29263  0.23891  1.0000
  C   C20       1.0  0.01975  0.70737  0.76109  1.0000
  C   C21       1.0  0.71227  0.02337  0.44750  1.0000
  C   C22       1.0  0.28773  0.97663  0.55250  1.0000
  C   C23       1.0  0.18798  0.59691  0.06040  1.0000
  C   C24       1.0  0.81203  0.40309  0.93960  1.0000
  C   C25       1.0  0.55813  0.13221  0.01772  1.0000
  C   C26       1.0  0.44187  0.86779  0.98228  1.0000
  C   C27       1.0  0.04020  0.10716  0.26735  1.0000
  C   C28       1.0  0.95980  0.89284  0.73265  1.0000
  C   C29       1.0  0.30707  0.27062  0.31814  1.0000
  C   C30       1.0  0.69292  0.72938  0.68186  1.0000
  C   C31       1.0  0.46248  0.11717  0.08304  1.0000
  C   C32       1.0  0.53752  0.88283  0.91696  1.0000
  C   C33       1.0  0.75882  0.13122  0.41866  1.0000
  C   C34       1.0  0.24118  0.86878  0.58134  1.0000
  C   C35       1.0  0.33914  0.85889  0.27204  1.0000
  C   C36       1.0  0.66086  0.14111  0.72796  1.0000
  C   C37       1.0  0.41380  0.73378  0.36970  1.0000
  C   C38       1.0  0.58621  0.26622  0.63030  1.0000
  C   C39       1.0  0.46481  0.16475  0.94376  1.0000
  C   C40       1.0  0.53518  0.83525  0.05624  1.0000
  C   C41       1.0  0.42021  0.56534  0.16812  1.0000
  C   C42       1.0  0.57979  0.43465  0.83188  1.0000
  C   C43       1.0  0.73305  0.12572  0.19114  1.0000
  C   C44       1.0  0.26696  0.87427  0.80886  1.0000
  C   C45       1.0  0.79544  0.00990  0.52945  1.0000
  C   C46       1.0  0.20456  0.99010  0.47055  1.0000
  C   C47       1.0  0.51868  0.52431  0.11476  1.0000
  C   C48       1.0  0.48131  0.47568  0.88524  1.0000
  C   C49       1.0  0.27844  0.55856  0.00278  1.0000
  C   C50       1.0  0.72157  0.44144  0.99723  1.0000
  C   C51       1.0  0.27728  0.13592  0.07590  1.0000
  C   C52       1.0  0.72273  0.86408  0.92410  1.0000
  C   C53       1.0  0.55058  0.81789  0.41903  1.0000
  C   C54       1.0  0.44941  0.18211  0.58097  1.0000
  C   C55       1.0  0.91440  0.10222  0.57730  1.0000
  C   C56       1.0  0.08560  0.89779  0.42270  1.0000
  C   C57       1.0  0.87820  0.21878  0.47133  1.0000
  C   C58       1.0  0.12180  0.78122  0.52867  1.0000
  C   C59       1.0  0.18730  0.17113  0.00200  1.0000
  C   C60       1.0  0.81271  0.82887  0.99800  1.0000
  N   N1        1.0  0.25675  0.60089  0.14201  1.0000
  N   N2        1.0  0.74325  0.39911  0.85799  1.0000
  N   N3        1.0  0.30766  0.75382  0.29775  1.0000
  N   N4        1.0  0.69234  0.24618  0.70225  1.0000
  N   N5        1.0  0.95455  0.20574  0.55000  1.0000
  N   N6        1.0  0.04546  0.79426  0.45000  1.0000
  O   O1        1.0  0.88737  0.65056  0.30997  1.0000
  O   O2        1.0  0.11262  0.34944  0.69002  1.0000
  O   O3        1.0  0.93471  0.47217  0.19820  1.0000
  O   O4        1.0  0.06529  0.52783  0.80180  1.0000
  O   O5        1.0  0.17407  0.46619  0.30569  1.0000
  O   O6        1.0  0.82593  0.53381  0.69431  1.0000
  O   O7        1.0  0.04256  0.27018  0.85865  1.0000
  O   O8        1.0  0.95744  0.72982  0.14135  1.0000
  O   O9        1.0  0.25355  0.21215  0.79257  1.0000
  O   O10       1.0  0.74644  0.78785  0.20743  1.0000
  O   O11       1.0  0.54510  0.07561  0.15554  1.0000
  O   O12       1.0  0.45490  0.92439  0.84446  1.0000
  O   O13       1.0  0.41899  0.32487  0.26888  1.0000
  O   O14       1.0  0.58100  0.67514  0.73112  1.0000
  O   O15       1.0  0.37070  0.25297  0.38957  1.0000
  O   O16       1.0  0.62930  0.74702  0.61043  1.0000
