data_image0
_chemical_formula_structural       Hg4H36C48N28O4
_chemical_formula_sum              "Hg4 H36 C48 N28 O4"
_cell_length_a       8.23887
_cell_length_b       14.024
_cell_length_c       14.482
_cell_angle_alpha    90
_cell_angle_beta     90
_cell_angle_gamma    97.032

_space_group_name_H-M_alt    "P 1"
_space_group_IT_number       1

loop_
  _space_group_symop_operation_xyz
  'x, y, z'

loop_
  _atom_site_type_symbol
  _atom_site_label
  _atom_site_symmetry_multiplicity
  _atom_site_fract_x
  _atom_site_fract_y
  _atom_site_fract_z
  _atom_site_occupancy
  Hg  Hg1       1.0  0.54355  0.18157  0.98785  1.0000
  Hg  Hg2       1.0  0.45644  0.31843  0.48785  1.0000
  Hg  Hg3       1.0  0.45645  0.81843  0.01215  1.0000
  Hg  Hg4       1.0  0.54355  0.68157  0.51215  1.0000
  H   H1        1.0  0.27981  0.72958  0.67498  1.0000
  H   H2        1.0  0.72019  0.77042  0.17498  1.0000
  H   H3        1.0  0.72020  0.27042  0.32502  1.0000
  H   H4        1.0  0.27980  0.22958  0.82502  1.0000
  H   H5        1.0  0.26288  0.84088  0.81015  1.0000
  H   H6        1.0  0.73712  0.65912  0.31015  1.0000
  H   H7        1.0  0.73712  0.15911  0.18985  1.0000
  H   H8        1.0  0.26288  0.34089  0.68985  1.0000
  H   H9        1.0  0.67909  0.01917  0.69842  1.0000
  H   H10       1.0  0.32091  0.48083  0.19843  1.0000
  H   H11       1.0  0.32091  0.98083  0.30158  1.0000
  H   H12       1.0  0.67909  0.51917  0.80158  1.0000
  H   H13       1.0  0.68725  0.89721  0.57088  1.0000
  H   H14       1.0  0.31275  0.60279  0.07088  1.0000
  H   H15       1.0  0.31276  0.10279  0.42912  1.0000
  H   H16       1.0  0.68725  0.39721  0.92912  1.0000
  H   H17       1.0  0.12801  0.98451  0.02659  1.0000
  H   H18       1.0  0.87198  0.51549  0.52659  1.0000
  H   H19       1.0  0.87199  0.01549  0.97341  1.0000
  H   H20       1.0  0.12801  0.48451  0.47341  1.0000
  H   H21       1.0  0.98499  0.04994  0.15761  1.0000
  H   H22       1.0  0.01501  0.45006  0.65761  1.0000
  H   H23       1.0  0.01501  0.95006  0.84239  1.0000
  H   H24       1.0  0.98499  0.54994  0.34239  1.0000
  H   H25       1.0  0.97715  0.17689  0.28021  1.0000
  H   H26       1.0  0.02285  0.32312  0.78021  1.0000
  H   H27       1.0  0.02285  0.82312  0.71979  1.0000
  H   H28       1.0  0.97715  0.67688  0.21979  1.0000
  H   H29       1.0  0.19967  0.31615  0.28326  1.0000
  H   H30       1.0  0.80033  0.18386  0.78326  1.0000
  H   H31       1.0  0.80033  0.68386  0.71673  1.0000
  H   H32       1.0  0.19966  0.81614  0.21673  1.0000
  H   H33       1.0  0.42457  0.32115  0.16773  1.0000
  H   H34       1.0  0.57543  0.17885  0.66773  1.0000
  H   H35       1.0  0.57544  0.67885  0.83227  1.0000
  H   H36       1.0  0.42456  0.82115  0.33227  1.0000
  C   C1        1.0  0.46719  0.94039  0.76257  1.0000
  C   C2        1.0  0.53281  0.55961  0.26257  1.0000
  C   C3        1.0  0.53281  0.05960  0.23743  1.0000
  C   C4        1.0  0.46719  0.44040  0.73743  1.0000
  C   C5        1.0  0.36619  0.79456  0.68289  1.0000
  C   C6        1.0  0.63381  0.70544  0.18289  1.0000
  C   C7        1.0  0.63382  0.20544  0.31712  1.0000
  C   C8        1.0  0.36618  0.29456  0.81711  1.0000
  C   C9        1.0  0.35499  0.85705  0.75664  1.0000
  C   C10       1.0  0.64501  0.64295  0.25664  1.0000
  C   C11       1.0  0.64502  0.14295  0.24337  1.0000
  C   C12       1.0  0.35498  0.35706  0.74337  1.0000
  C   C13       1.0  0.58811  0.95610  0.69448  1.0000
  C   C14       1.0  0.41189  0.54390  0.19448  1.0000
  C   C15       1.0  0.41189  0.04390  0.30552  1.0000
  C   C16       1.0  0.58811  0.45610  0.80552  1.0000
  C   C17       1.0  0.59226  0.88926  0.62391  1.0000
  C   C18       1.0  0.40774  0.61074  0.12391  1.0000
  C   C19       1.0  0.40774  0.11074  0.37609  1.0000
  C   C20       1.0  0.59226  0.38926  0.87609  1.0000
  C   C21       1.0  0.46461  0.01234  0.83883  1.0000
  C   C22       1.0  0.53539  0.48766  0.33883  1.0000
  C   C23       1.0  0.53539  0.98766  0.16117  1.0000
  C   C24       1.0  0.46461  0.51235  0.66117  1.0000
  C   C25       1.0  0.22102  0.04729  0.02813  1.0000
  C   C26       1.0  0.77898  0.45271  0.52813  1.0000
  C   C27       1.0  0.77899  0.95271  0.97187  1.0000
  C   C28       1.0  0.22101  0.54729  0.47187  1.0000
  C   C29       1.0  0.21092  0.11954  0.09933  1.0000
  C   C30       1.0  0.78907  0.38046  0.59933  1.0000
  C   C31       1.0  0.78908  0.88046  0.90067  1.0000
  C   C32       1.0  0.21092  0.61954  0.40068  1.0000
  C   C33       1.0  0.08054  0.11090  0.16243  1.0000
  C   C34       1.0  0.91946  0.38910  0.66243  1.0000
  C   C35       1.0  0.91946  0.88910  0.83757  1.0000
  C   C36       1.0  0.08054  0.61090  0.33757  1.0000
  C   C37       1.0  0.07529  0.18176  0.22938  1.0000
  C   C38       1.0  0.92471  0.31824  0.72938  1.0000
  C   C39       1.0  0.92472  0.81824  0.77062  1.0000
  C   C40       1.0  0.07528  0.68176  0.27062  1.0000
  C   C41       1.0  0.19820  0.25951  0.23189  1.0000
  C   C42       1.0  0.80180  0.24049  0.73189  1.0000
  C   C43       1.0  0.80180  0.74049  0.76811  1.0000
  C   C44       1.0  0.19820  0.75951  0.26811  1.0000
  C   C45       1.0  0.32401  0.26274  0.16707  1.0000
  C   C46       1.0  0.67600  0.23726  0.66707  1.0000
  C   C47       1.0  0.67600  0.73726  0.83293  1.0000
  C   C48       1.0  0.32400  0.76274  0.33293  1.0000
  N   N1        1.0  0.34088  0.99096  0.90028  1.0000
  N   N2        1.0  0.65912  0.50904  0.40028  1.0000
  N   N3        1.0  0.65912  0.00904  0.09972  1.0000
  N   N4        1.0  0.34088  0.49096  0.59972  1.0000
  N   N5        1.0  0.33733  0.05705  0.96724  1.0000
  N   N6        1.0  0.66267  0.44295  0.46724  1.0000
  N   N7        1.0  0.66267  0.94295  0.03276  1.0000
  N   N8        1.0  0.33732  0.55705  0.53276  1.0000
  N   N9        1.0  0.32993  0.19490  0.10286  1.0000
  N   N10       1.0  0.67007  0.30511  0.60286  1.0000
  N   N11       1.0  0.67007  0.80510  0.89714  1.0000
  N   N12       1.0  0.32993  0.69490  0.39714  1.0000
  N   N13       1.0  0.79295  0.24760  0.01541  1.0000
  N   N14       1.0  0.20705  0.25240  0.51541  1.0000
  N   N15       1.0  0.20706  0.75239  0.98458  1.0000
  N   N16       1.0  0.79295  0.74761  0.48459  1.0000
  N   N17       1.0  0.89757  0.21595  0.96988  1.0000
  N   N18       1.0  0.10242  0.28404  0.46988  1.0000
  N   N19       1.0  0.10243  0.78403  0.03011  1.0000
  N   N20       1.0  0.89757  0.71596  0.53012  1.0000
  N   N21       1.0  0.00484  0.18880  0.92864  1.0000
  N   N22       1.0  0.99516  0.31118  0.42864  1.0000
  N   N23       1.0  0.99516  0.81117  0.07135  1.0000
  N   N24       1.0  0.00484  0.68882  0.57135  1.0000
  N   N25       1.0  0.48258  0.81039  0.61761  1.0000
  N   N26       1.0  0.51742  0.68961  0.11761  1.0000
  N   N27       1.0  0.51743  0.18961  0.38239  1.0000
  N   N28       1.0  0.48258  0.31039  0.88239  1.0000
  O   O1        1.0  0.57346  0.08418  0.83913  1.0000
  O   O2        1.0  0.42654  0.41582  0.33913  1.0000
  O   O3        1.0  0.42653  0.91582  0.16087  1.0000
  O   O4        1.0  0.57346  0.58419  0.66087  1.0000
