data_image0
_chemical_formula_structural       Zn3H28C42N4O16
_chemical_formula_sum              "Zn3 H28 C42 N4 O16"
_cell_length_a       7.55217
_cell_length_b       9.56163
_cell_length_c       13.8969
_cell_angle_alpha    82.6599
_cell_angle_beta     77.6011
_cell_angle_gamma    81.1977

_space_group_name_H-M_alt    "P 1"
_space_group_IT_number       1

loop_
  _space_group_symop_operation_xyz
  'x, y, z'

loop_
  _atom_site_type_symbol
  _atom_site_label
  _atom_site_symmetry_multiplicity
  _atom_site_fract_x
  _atom_site_fract_y
  _atom_site_fract_z
  _atom_site_occupancy
  Zn  Zn1       1.0  0.23303  0.58878  0.50174  1.0000
  Zn  Zn2       1.0  0.76697  0.41122  0.49826  1.0000
  Zn  Zn3       1.0  0.50000  0.00000  0.50000  1.0000
  H   H1        1.0  0.86796  0.26657  0.78484  1.0000
  H   H2        1.0  0.13203  0.73343  0.21516  1.0000
  H   H3        1.0  0.23310  0.89390  0.87830  1.0000
  H   H4        1.0  0.76690  0.10609  0.12170  1.0000
  H   H5        1.0  0.52841  0.23548  0.78785  1.0000
  H   H6        1.0  0.47159  0.76452  0.21215  1.0000
  H   H7        1.0  0.95090  0.43900  0.18193  1.0000
  H   H8        1.0  0.04910  0.56100  0.81807  1.0000
  H   H9        1.0  0.97894  0.18839  0.94265  1.0000
  H   H10       1.0  0.02105  0.81161  0.05735  1.0000
  H   H11       1.0  0.16930  0.01763  0.28317  1.0000
  H   H12       1.0  0.83071  0.98237  0.71683  1.0000
  H   H13       1.0  0.32813  0.69702  0.99142  1.0000
  H   H14       1.0  0.67188  0.30297  0.00858  1.0000
  H   H15       1.0  0.63506  0.55832  0.75330  1.0000
  H   H16       1.0  0.36494  0.44168  0.24670  1.0000
  H   H17       1.0  0.11502  0.40041  0.00820  1.0000
  H   H18       1.0  0.88498  0.59959  0.99180  1.0000
  H   H19       1.0  0.33495  0.97858  0.10856  1.0000
  H   H20       1.0  0.66505  0.02143  0.89144  1.0000
  H   H21       1.0  0.65661  0.70462  0.59052  1.0000
  H   H22       1.0  0.34340  0.29538  0.40948  1.0000
  H   H23       1.0  0.26601  0.02302  0.70935  1.0000
  H   H24       1.0  0.73400  0.97698  0.29066  1.0000
  H   H25       1.0  0.15296  0.10632  0.48010  1.0000
  H   H26       1.0  0.84704  0.89368  0.51990  1.0000
  H   H27       1.0  0.15505  0.96574  0.55000  1.0000
  H   H28       1.0  0.84495  0.03426  0.45000  1.0000
  C   C1        1.0  0.22986  0.18607  0.05002  1.0000
  C   C2        1.0  0.77013  0.81393  0.94998  1.0000
  C   C3        1.0  0.46866  0.30033  0.60728  1.0000
  C   C4        1.0  0.53134  0.69967  0.39272  1.0000
  C   C5        1.0  0.06084  0.33914  0.60557  1.0000
  C   C6        1.0  0.93916  0.66086  0.39443  1.0000
  C   C7        1.0  0.32165  0.28050  0.69807  1.0000
  C   C8        1.0  0.67835  0.71951  0.30193  1.0000
  C   C9        1.0  0.95737  0.25377  0.34584  1.0000
  C   C10       1.0  0.04263  0.74623  0.65416  1.0000
  C   C11       1.0  0.13408  0.29152  0.69747  1.0000
  C   C12       1.0  0.86592  0.70849  0.30253  1.0000
  C   C13       1.0  0.01276  0.25838  0.78642  1.0000
  C   C14       1.0  0.98724  0.74162  0.21358  1.0000
  C   C15       1.0  0.32985  0.84814  0.81666  1.0000
  C   C16       1.0  0.67015  0.15186  0.18334  1.0000
  C   C17       1.0  0.04972  0.23018  0.24220  1.0000
  C   C18       1.0  0.95029  0.76982  0.75780  1.0000
  C   C19       1.0  0.38350  0.24228  0.78677  1.0000
  C   C20       1.0  0.61649  0.75772  0.21323  1.0000
  C   C21       1.0  0.03324  0.33795  0.16485  1.0000
  C   C22       1.0  0.96676  0.66205  0.83515  1.0000
  C   C23       1.0  0.26037  0.20995  0.87411  1.0000
  C   C24       1.0  0.73963  0.79006  0.12589  1.0000
  C   C25       1.0  0.43517  0.71573  0.83082  1.0000
  C   C26       1.0  0.56483  0.28427  0.16918  1.0000
  C   C27       1.0  0.07379  0.21614  0.87441  1.0000
  C   C28       1.0  0.92621  0.78386  0.12558  1.0000
  C   C29       1.0  0.15710  0.10005  0.22219  1.0000
  C   C30       1.0  0.84291  0.89994  0.77781  1.0000
  C   C31       1.0  0.42036  0.64341  0.93055  1.0000
  C   C32       1.0  0.57964  0.35658  0.06945  1.0000
  C   C33       1.0  0.55298  0.66180  0.74734  1.0000
  C   C34       1.0  0.44703  0.33820  0.25266  1.0000
  C   C35       1.0  0.12302  0.31654  0.06861  1.0000
  C   C36       1.0  0.87698  0.68346  0.93139  1.0000
  C   C37       1.0  0.24755  0.07746  0.12600  1.0000
  C   C38       1.0  0.75245  0.92254  0.87400  1.0000
  C   C39       1.0  0.56517  0.74308  0.65639  1.0000
  C   C40       1.0  0.43483  0.25692  0.34360  1.0000
  C   C41       1.0  0.34863  0.92173  0.72293  1.0000
  C   C42       1.0  0.65137  0.07827  0.27707  1.0000
  N   N1        1.0  0.46706  0.87206  0.64392  1.0000
  N   N2        1.0  0.53294  0.12794  0.35609  1.0000
  N   N3        1.0  0.51554  0.52235  0.94971  1.0000
  N   N4        1.0  0.48447  0.47764  0.05030  1.0000
  O   O1        1.0  0.16689  0.38705  0.52766  1.0000
  O   O2        1.0  0.83310  0.61295  0.47234  1.0000
  O   O3        1.0  0.21929  0.05186  0.53032  1.0000
  O   O4        1.0  0.78071  0.94815  0.46968  1.0000
  O   O5        1.0  0.54030  0.19661  0.55851  1.0000
  O   O6        1.0  0.45970  0.80340  0.44149  1.0000
  O   O7        1.0  0.98452  0.15863  0.41539  1.0000
  O   O8        1.0  0.01548  0.84137  0.58461  1.0000
  O   O9        1.0  0.52667  0.42210  0.59109  1.0000
  O   O10       1.0  0.47333  0.57791  0.40891  1.0000
  O   O11       1.0  0.85305  0.37163  0.35958  1.0000
  O   O12       1.0  0.14695  0.62836  0.64042  1.0000
  O   O13       1.0  0.89291  0.32960  0.61023  1.0000
  O   O14       1.0  0.10708  0.67040  0.38977  1.0000
  O   O15       1.0  0.33398  0.16229  0.95705  1.0000
  O   O16       1.0  0.66602  0.83771  0.04295  1.0000
