data_image0
_chemical_formula_structural       Zn4H44C44N4O20
_chemical_formula_sum              "Zn4 H44 C44 N4 O20"
_cell_length_a       7.9434
_cell_length_b       11.6187
_cell_length_c       14.1677
_cell_angle_alpha    90
_cell_angle_beta     90
_cell_angle_gamma    107.498

_space_group_name_H-M_alt    "P 1"
_space_group_IT_number       1

loop_
  _space_group_symop_operation_xyz
  'x, y, z'

loop_
  _atom_site_type_symbol
  _atom_site_label
  _atom_site_symmetry_multiplicity
  _atom_site_fract_x
  _atom_site_fract_y
  _atom_site_fract_z
  _atom_site_occupancy
  Zn  Zn1       1.0  0.41815  0.09699  0.99733  1.0000
  Zn  Zn2       1.0  0.58185  0.40301  0.49733  1.0000
  Zn  Zn3       1.0  0.58185  0.90301  0.00267  1.0000
  Zn  Zn4       1.0  0.41815  0.59699  0.50267  1.0000
  H   H1        1.0  0.04243  0.07659  0.84415  1.0000
  H   H2        1.0  0.95757  0.42341  0.34416  1.0000
  H   H3        1.0  0.95757  0.92341  0.15585  1.0000
  H   H4        1.0  0.04243  0.57659  0.65585  1.0000
  H   H5        1.0  0.27932  0.19314  0.73491  1.0000
  H   H6        1.0  0.72069  0.30686  0.23491  1.0000
  H   H7        1.0  0.72069  0.80686  0.26509  1.0000
  H   H8        1.0  0.27932  0.69314  0.76509  1.0000
  H   H9        1.0  0.93214  0.38549  0.62973  1.0000
  H   H10       1.0  0.06786  0.11451  0.12973  1.0000
  H   H11       1.0  0.06786  0.61451  0.37027  1.0000
  H   H12       1.0  0.93214  0.88549  0.87027  1.0000
  H   H13       1.0  0.69614  0.27058  0.73869  1.0000
  H   H14       1.0  0.30386  0.22942  0.23869  1.0000
  H   H15       1.0  0.30386  0.72942  0.26131  1.0000
  H   H16       1.0  0.69614  0.77058  0.76131  1.0000
  H   H17       1.0  0.51886  0.32530  0.89192  1.0000
  H   H18       1.0  0.48114  0.17470  0.39192  1.0000
  H   H19       1.0  0.48114  0.67470  0.10808  1.0000
  H   H20       1.0  0.51886  0.82530  0.60808  1.0000
  H   H21       1.0  0.55496  0.49456  0.82199  1.0000
  H   H22       1.0  0.44504  0.00544  0.32199  1.0000
  H   H23       1.0  0.44504  0.50544  0.17801  1.0000
  H   H24       1.0  0.55496  0.99456  0.67801  1.0000
  H   H25       1.0  0.46773  0.60228  0.87811  1.0000
  H   H26       1.0  0.53227  0.89772  0.37811  1.0000
  H   H27       1.0  0.53227  0.39772  0.12189  1.0000
  H   H28       1.0  0.46773  0.10228  0.62189  1.0000
  H   H29       1.0  0.35081  0.51240  0.78277  1.0000
  H   H30       1.0  0.64919  0.98760  0.28277  1.0000
  H   H31       1.0  0.64919  0.48760  0.21723  1.0000
  H   H32       1.0  0.35081  0.01240  0.71723  1.0000
  H   H33       1.0  0.12354  0.35493  0.00134  1.0000
  H   H34       1.0  0.87646  0.14506  0.50134  1.0000
  H   H35       1.0  0.87646  0.64507  0.99866  1.0000
  H   H36       1.0  0.12354  0.85493  0.49866  1.0000
  H   H37       1.0  0.07914  0.42449  0.89497  1.0000
  H   H38       1.0  0.92086  0.07550  0.39497  1.0000
  H   H39       1.0  0.92086  0.57551  0.10503  1.0000
  H   H40       1.0  0.07914  0.92449  0.60503  1.0000
  H   H41       1.0  0.20049  0.51641  0.98816  1.0000
  H   H42       1.0  0.79951  0.98359  0.48816  1.0000
  H   H43       1.0  0.79951  0.48359  0.01184  1.0000
  H   H44       1.0  0.20049  0.01641  0.51184  1.0000
  C   C1        1.0  0.85443  0.16571  0.79715  1.0000
  C   C2        1.0  0.14557  0.33429  0.29715  1.0000
  C   C3        1.0  0.14557  0.83429  0.20285  1.0000
  C   C4        1.0  0.85443  0.66571  0.70285  1.0000
  C   C5        1.0  0.01809  0.14295  0.79611  1.0000
  C   C6        1.0  0.98191  0.35705  0.29612  1.0000
  C   C7        1.0  0.98191  0.85705  0.20389  1.0000
  C   C8        1.0  0.01809  0.64295  0.70389  1.0000
  C   C9        1.0  0.15029  0.20803  0.73568  1.0000
  C   C10       1.0  0.84971  0.29197  0.23568  1.0000
  C   C11       1.0  0.84971  0.79197  0.26432  1.0000
  C   C12       1.0  0.15029  0.70803  0.76432  1.0000
  C   C13       1.0  0.11977  0.29599  0.67623  1.0000
  C   C14       1.0  0.88022  0.20401  0.17623  1.0000
  C   C15       1.0  0.88023  0.70401  0.32377  1.0000
  C   C16       1.0  0.11977  0.79599  0.82377  1.0000
  C   C17       1.0  0.95591  0.31817  0.67684  1.0000
  C   C18       1.0  0.04409  0.18183  0.17684  1.0000
  C   C19       1.0  0.04409  0.68183  0.32316  1.0000
  C   C20       1.0  0.95591  0.81817  0.82316  1.0000
  C   C21       1.0  0.82374  0.25347  0.73743  1.0000
  C   C22       1.0  0.17626  0.24652  0.23743  1.0000
  C   C23       1.0  0.17626  0.74652  0.26257  1.0000
  C   C24       1.0  0.82374  0.75347  0.76257  1.0000
  C   C25       1.0  0.71506  0.09824  0.86434  1.0000
  C   C26       1.0  0.28494  0.40176  0.36434  1.0000
  C   C27       1.0  0.28494  0.90176  0.13566  1.0000
  C   C28       1.0  0.71506  0.59824  0.63566  1.0000
  C   C29       1.0  0.26304  0.36812  0.61305  1.0000
  C   C30       1.0  0.73696  0.13188  0.11305  1.0000
  C   C31       1.0  0.73696  0.63188  0.38695  1.0000
  C   C32       1.0  0.26304  0.86812  0.88695  1.0000
  C   C33       1.0  0.39634  0.32475  0.92876  1.0000
  C   C34       1.0  0.60366  0.17525  0.42877  1.0000
  C   C35       1.0  0.60366  0.67525  0.07124  1.0000
  C   C36       1.0  0.39634  0.82475  0.57123  1.0000
  C   C37       1.0  0.43363  0.51271  0.84499  1.0000
  C   C38       1.0  0.56637  0.98729  0.34499  1.0000
  C   C39       1.0  0.56637  0.48729  0.15501  1.0000
  C   C40       1.0  0.43363  0.01271  0.65501  1.0000
  C   C41       1.0  0.17570  0.42934  0.95168  1.0000
  C   C42       1.0  0.82430  0.07066  0.45168  1.0000
  C   C43       1.0  0.82430  0.57066  0.04832  1.0000
  C   C44       1.0  0.17570  0.92934  0.54832  1.0000
  N   N1        1.0  0.34001  0.41983  0.91163  1.0000
  N   N2        1.0  0.65999  0.08017  0.41163  1.0000
  N   N3        1.0  0.65999  0.58017  0.08837  1.0000
  N   N4        1.0  0.34001  0.91983  0.58837  1.0000
  O   O1        1.0  0.59847  0.14808  0.88775  1.0000
  O   O2        1.0  0.40153  0.35192  0.38775  1.0000
  O   O3        1.0  0.40153  0.85192  0.11225  1.0000
  O   O4        1.0  0.59847  0.64808  0.61225  1.0000
  O   O5        1.0  0.72492  0.99665  0.89318  1.0000
  O   O6        1.0  0.27508  0.50335  0.39318  1.0000
  O   O7        1.0  0.27508  0.00335  0.10682  1.0000
  O   O8        1.0  0.72493  0.49665  0.60682  1.0000
  O   O9        1.0  0.25571  0.47266  0.59053  1.0000
  O   O10       1.0  0.74428  0.02734  0.09053  1.0000
  O   O11       1.0  0.74428  0.52734  0.40947  1.0000
  O   O12       1.0  0.25572  0.97266  0.90947  1.0000
  O   O13       1.0  0.38015  0.31971  0.58772  1.0000
  O   O14       1.0  0.61985  0.18029  0.08772  1.0000
  O   O15       1.0  0.61985  0.68029  0.41228  1.0000
  O   O16       1.0  0.38015  0.81971  0.91228  1.0000
  O   O17       1.0  0.31850  0.23873  0.98259  1.0000
  O   O18       1.0  0.68150  0.26127  0.48259  1.0000
  O   O19       1.0  0.68150  0.76127  0.01741  1.0000
  O   O20       1.0  0.31850  0.73873  0.51741  1.0000
