data_image0
_chemical_formula_structural       Hg4H52C32S4Cl8
_chemical_formula_sum              "Hg4 H52 C32 S4 Cl8"
_cell_length_a       9.48835
_cell_length_b       10.6262
_cell_length_c       11.9823
_cell_angle_alpha    90
_cell_angle_beta     110.72
_cell_angle_gamma    90

_space_group_name_H-M_alt    "P 1"
_space_group_IT_number       1

loop_
  _space_group_symop_operation_xyz
  'x, y, z'

loop_
  _atom_site_type_symbol
  _atom_site_label
  _atom_site_symmetry_multiplicity
  _atom_site_fract_x
  _atom_site_fract_y
  _atom_site_fract_z
  _atom_site_occupancy
  Hg  Hg1       1.0  0.48864  0.49099  0.15886  1.0000
  Hg  Hg2       1.0  0.01136  0.99099  0.34114  1.0000
  Hg  Hg3       1.0  0.51136  0.50901  0.84114  1.0000
  Hg  Hg4       1.0  0.98864  0.00901  0.65886  1.0000
  H   H1        1.0  0.68249  0.24796  0.18366  1.0000
  H   H2        1.0  0.81751  0.74796  0.31634  1.0000
  H   H3        1.0  0.31751  0.75204  0.81634  1.0000
  H   H4        1.0  0.18249  0.25204  0.68366  1.0000
  H   H5        1.0  0.65139  0.13277  0.28094  1.0000
  H   H6        1.0  0.84861  0.63277  0.21906  1.0000
  H   H7        1.0  0.34861  0.86723  0.71906  1.0000
  H   H8        1.0  0.15139  0.36723  0.78094  1.0000
  H   H9        1.0  0.52913  0.93353  0.20569  1.0000
  H   H10       1.0  0.97086  0.43353  0.29430  1.0000
  H   H11       1.0  0.47086  0.06647  0.79430  1.0000
  H   H12       1.0  0.02914  0.56647  0.70569  1.0000
  H   H13       1.0  0.56049  0.21897  0.95957  1.0000
  H   H14       1.0  0.93950  0.71897  0.54043  1.0000
  H   H15       1.0  0.43951  0.78104  0.04043  1.0000
  H   H16       1.0  0.06049  0.28103  0.45957  1.0000
  H   H17       1.0  0.44483  0.14838  0.49674  1.0000
  H   H18       1.0  0.05517  0.64838  0.00326  1.0000
  H   H19       1.0  0.55517  0.85162  0.50326  1.0000
  H   H20       1.0  0.94483  0.35162  0.99674  1.0000
  H   H21       1.0  0.33105  0.10813  0.34832  1.0000
  H   H22       1.0  0.16895  0.60813  0.15168  1.0000
  H   H23       1.0  0.66895  0.89187  0.65168  1.0000
  H   H24       1.0  0.83105  0.39187  0.84832  1.0000
  H   H25       1.0  0.52979  0.07865  0.40143  1.0000
  H   H26       1.0  0.97021  0.57865  0.09857  1.0000
  H   H27       1.0  0.47021  0.92135  0.59857  1.0000
  H   H28       1.0  0.02979  0.42135  0.90143  1.0000
  H   H29       1.0  0.63266  0.33011  0.53367  1.0000
  H   H30       1.0  0.86734  0.83011  0.96633  1.0000
  H   H31       1.0  0.36734  0.66989  0.46633  1.0000
  H   H32       1.0  0.13266  0.16989  0.03367  1.0000
  H   H33       1.0  0.71394  0.26539  0.43417  1.0000
  H   H34       1.0  0.78606  0.76539  0.06583  1.0000
  H   H35       1.0  0.28606  0.73461  0.56583  1.0000
  H   H36       1.0  0.21394  0.23461  0.93417  1.0000
  H   H37       1.0  0.64239  0.42239  0.41295  1.0000
  H   H38       1.0  0.85761  0.92239  0.08704  1.0000
  H   H39       1.0  0.35761  0.57761  0.58704  1.0000
  H   H40       1.0  0.14239  0.07761  0.91296  1.0000
  H   H41       1.0  0.23138  0.33328  0.31634  1.0000
  H   H42       1.0  0.26862  0.83328  0.18367  1.0000
  H   H43       1.0  0.76862  0.66672  0.68366  1.0000
  H   H44       1.0  0.73138  0.16672  0.81634  1.0000
  H   H45       1.0  0.36091  0.46300  0.34719  1.0000
  H   H46       1.0  0.13909  0.96300  0.15281  1.0000
  H   H47       1.0  0.63909  0.53700  0.65281  1.0000
  H   H48       1.0  0.86091  0.03700  0.84719  1.0000
  H   H49       1.0  0.34778  0.36870  0.46539  1.0000
  H   H50       1.0  0.15222  0.86870  0.03462  1.0000
  H   H51       1.0  0.65222  0.63130  0.53461  1.0000
  H   H52       1.0  0.84779  0.13130  0.96539  1.0000
  C   C1        1.0  0.60112  0.18060  0.19479  1.0000
  C   C2        1.0  0.89888  0.68060  0.30522  1.0000
  C   C3        1.0  0.39888  0.81940  0.80521  1.0000
  C   C4        1.0  0.10112  0.31940  0.69478  1.0000
  C   C5        1.0  0.54999  0.08744  0.09429  1.0000
  C   C6        1.0  0.95001  0.58744  0.40571  1.0000
  C   C7        1.0  0.45001  0.91256  0.90571  1.0000
  C   C8        1.0  0.04999  0.41256  0.59429  1.0000
  C   C9        1.0  0.51588  0.96341  0.11543  1.0000
  C   C10       1.0  0.98412  0.46341  0.38457  1.0000
  C   C11       1.0  0.48412  0.03659  0.88457  1.0000
  C   C12       1.0  0.01588  0.53659  0.61543  1.0000
  C   C13       1.0  0.53353  0.12312  0.97773  1.0000
  C   C14       1.0  0.96646  0.62312  0.52227  1.0000
  C   C15       1.0  0.46646  0.87688  0.02227  1.0000
  C   C16       1.0  0.03353  0.37688  0.47773  1.0000
  C   C17       1.0  0.46749  0.27751  0.36646  1.0000
  C   C18       1.0  0.03251  0.77751  0.13354  1.0000
  C   C19       1.0  0.53251  0.72249  0.63354  1.0000
  C   C20       1.0  0.96749  0.22249  0.86646  1.0000
  C   C21       1.0  0.44188  0.14437  0.40426  1.0000
  C   C22       1.0  0.05813  0.64437  0.09574  1.0000
  C   C23       1.0  0.55812  0.85563  0.59574  1.0000
  C   C24       1.0  0.94187  0.35563  0.90426  1.0000
  C   C25       1.0  0.62366  0.32675  0.43968  1.0000
  C   C26       1.0  0.87635  0.82675  0.06032  1.0000
  C   C27       1.0  0.37634  0.67325  0.56032  1.0000
  C   C28       1.0  0.12366  0.17325  0.93968  1.0000
  C   C29       1.0  0.34370  0.36644  0.37261  1.0000
  C   C30       1.0  0.15630  0.86644  0.12739  1.0000
  C   C31       1.0  0.65630  0.63356  0.62739  1.0000
  C   C32       1.0  0.84370  0.13356  0.87261  1.0000
  S   S1        1.0  0.43783  0.26826  0.20384  1.0000
  S   S2        1.0  0.06217  0.76825  0.29616  1.0000
  S   S3        1.0  0.56217  0.73174  0.79616  1.0000
  S   S4        1.0  0.93783  0.23174  0.70384  1.0000
  Cl  Cl1       1.0  0.70014  0.46368  0.06424  1.0000
  Cl  Cl2       1.0  0.79986  0.96368  0.43576  1.0000
  Cl  Cl3       1.0  0.29986  0.53632  0.93577  1.0000
  Cl  Cl4       1.0  0.20014  0.03632  0.56424  1.0000
  Cl  Cl5       1.0  0.51332  0.67606  0.28274  1.0000
  Cl  Cl6       1.0  0.98668  0.17606  0.21726  1.0000
  Cl  Cl7       1.0  0.48668  0.32394  0.71726  1.0000
  Cl  Cl8       1.0  0.01332  0.82394  0.78274  1.0000
