data_image0
_chemical_formula_structural       Hg2H52C32S4Br4
_chemical_formula_sum              "Hg2 H52 C32 S4 Br4"
_cell_length_a       9.05479
_cell_length_b       9.05479
_cell_length_c       12.8104
_cell_angle_alpha    93.5362
_cell_angle_beta     93.5363
_cell_angle_gamma    90.9753

_space_group_name_H-M_alt    "P 1"
_space_group_IT_number       1

loop_
  _space_group_symop_operation_xyz
  'x, y, z'

loop_
  _atom_site_type_symbol
  _atom_site_label
  _atom_site_symmetry_multiplicity
  _atom_site_fract_x
  _atom_site_fract_y
  _atom_site_fract_z
  _atom_site_occupancy
  Hg  Hg1       1.0  0.21698  0.78301  0.75000  1.0000
  Hg  Hg2       1.0  0.78301  0.21697  0.25000  1.0000
  H   H1        1.0  0.64902  0.83640  0.93886  1.0000
  H   H2        1.0  0.16362  0.35096  0.56114  1.0000
  H   H3        1.0  0.35096  0.16363  0.06114  1.0000
  H   H4        1.0  0.83640  0.64902  0.43886  1.0000
  H   H5        1.0  0.45471  0.86735  0.94697  1.0000
  H   H6        1.0  0.13266  0.54527  0.55303  1.0000
  H   H7        1.0  0.54527  0.13267  0.05303  1.0000
  H   H8        1.0  0.86734  0.45471  0.44697  1.0000
  H   H9        1.0  0.31551  0.69475  0.03324  1.0000
  H   H10       1.0  0.30526  0.68449  0.46675  1.0000
  H   H11       1.0  0.68448  0.30527  0.96676  1.0000
  H   H12       1.0  0.69474  0.31551  0.53324  1.0000
  H   H13       1.0  0.71276  0.55177  0.89355  1.0000
  H   H14       1.0  0.44825  0.28724  0.60645  1.0000
  H   H15       1.0  0.28723  0.44825  0.10646  1.0000
  H   H16       1.0  0.55175  0.71276  0.39354  1.0000
  H   H17       1.0  0.61276  0.04197  0.58574  1.0000
  H   H18       1.0  0.95803  0.38725  0.91426  1.0000
  H   H19       1.0  0.38725  0.95803  0.41426  1.0000
  H   H20       1.0  0.04198  0.61276  0.08574  1.0000
  H   H21       1.0  0.44024  0.94711  0.59694  1.0000
  H   H22       1.0  0.05290  0.55976  0.90306  1.0000
  H   H23       1.0  0.55976  0.05290  0.40306  1.0000
  H   H24       1.0  0.94711  0.44024  0.09693  1.0000
  H   H25       1.0  0.60435  0.84603  0.57624  1.0000
  H   H26       1.0  0.15397  0.39565  0.92376  1.0000
  H   H27       1.0  0.39565  0.15397  0.42376  1.0000
  H   H28       1.0  0.84603  0.60435  0.07624  1.0000
  H   H29       1.0  0.81448  0.03789  0.72290  1.0000
  H   H30       1.0  0.96210  0.18551  0.77711  1.0000
  H   H31       1.0  0.18552  0.96210  0.27711  1.0000
  H   H32       1.0  0.03789  0.81448  0.22290  1.0000
  H   H33       1.0  0.80996  0.84325  0.72142  1.0000
  H   H34       1.0  0.15675  0.19003  0.77858  1.0000
  H   H35       1.0  0.19004  0.15674  0.27858  1.0000
  H   H36       1.0  0.84325  0.80996  0.22142  1.0000
  H   H37       1.0  0.79574  0.95105  0.84190  1.0000
  H   H38       1.0  0.04895  0.20425  0.65810  1.0000
  H   H39       1.0  0.20426  0.04895  0.15810  1.0000
  H   H40       1.0  0.95104  0.79573  0.34190  1.0000
  H   H41       1.0  0.57740  0.18371  0.76298  1.0000
  H   H42       1.0  0.81629  0.42260  0.73702  1.0000
  H   H43       1.0  0.42261  0.81629  0.23702  1.0000
  H   H44       1.0  0.18371  0.57740  0.26298  1.0000
  H   H45       1.0  0.55127  0.08436  0.87519  1.0000
  H   H46       1.0  0.91564  0.44873  0.62481  1.0000
  H   H47       1.0  0.44874  0.91564  0.12481  1.0000
  H   H48       1.0  0.08436  0.55127  0.37519  1.0000
  H   H49       1.0  0.40801  0.08435  0.77335  1.0000
  H   H50       1.0  0.91566  0.59199  0.72665  1.0000
  H   H51       1.0  0.59200  0.91566  0.22665  1.0000
  H   H52       1.0  0.08435  0.40801  0.27335  1.0000
  C   C1        1.0  0.53724  0.79026  0.91786  1.0000
  C   C2        1.0  0.20975  0.46275  0.58214  1.0000
  C   C3        1.0  0.46275  0.20975  0.08214  1.0000
  C   C4        1.0  0.79026  0.53723  0.41786  1.0000
  C   C5        1.0  0.51739  0.64038  0.96000  1.0000
  C   C6        1.0  0.35963  0.48261  0.54001  1.0000
  C   C7        1.0  0.48261  0.35964  0.04001  1.0000
  C   C8        1.0  0.64037  0.51739  0.45999  1.0000
  C   C9        1.0  0.39727  0.60965  0.01968  1.0000
  C   C10       1.0  0.39036  0.60272  0.48032  1.0000
  C   C11       1.0  0.60273  0.39037  0.98033  1.0000
  C   C12       1.0  0.60965  0.39727  0.51967  1.0000
  C   C13       1.0  0.61928  0.52895  0.94044  1.0000
  C   C14       1.0  0.47105  0.38072  0.55957  1.0000
  C   C15       1.0  0.38071  0.47107  0.05957  1.0000
  C   C16       1.0  0.52894  0.61928  0.44043  1.0000
  C   C17       1.0  0.59593  0.94783  0.73450  1.0000
  C   C18       1.0  0.05218  0.40406  0.76550  1.0000
  C   C19       1.0  0.40407  0.05217  0.26550  1.0000
  C   C20       1.0  0.94783  0.59593  0.23450  1.0000
  C   C21       1.0  0.56002  0.94470  0.61636  1.0000
  C   C22       1.0  0.05530  0.43997  0.88364  1.0000
  C   C23       1.0  0.43998  0.05530  0.38364  1.0000
  C   C24       1.0  0.94470  0.56002  0.11636  1.0000
  C   C25       1.0  0.76326  0.94345  0.75774  1.0000
  C   C26       1.0  0.05655  0.23674  0.74226  1.0000
  C   C27       1.0  0.23674  0.05655  0.24226  1.0000
  C   C28       1.0  0.94345  0.76326  0.25774  1.0000
  C   C29       1.0  0.52840  0.08190  0.79007  1.0000
  C   C30       1.0  0.91810  0.47159  0.70993  1.0000
  C   C31       1.0  0.47160  0.91810  0.20993  1.0000
  C   C32       1.0  0.08190  0.52840  0.29007  1.0000
  S   S1        1.0  0.51534  0.77219  0.77481  1.0000
  S   S2        1.0  0.22781  0.48466  0.72519  1.0000
  S   S3        1.0  0.48466  0.22781  0.22520  1.0000
  S   S4        1.0  0.77219  0.51533  0.27480  1.0000
  Br  Br1       1.0  0.09864  0.85993  0.57259  1.0000
  Br  Br2       1.0  0.14007  0.90136  0.92741  1.0000
  Br  Br3       1.0  0.90136  0.14007  0.42741  1.0000
  Br  Br4       1.0  0.85992  0.09863  0.07259  1.0000
