data_image0
_chemical_formula_structural       Hg4H56C40S8I8
_chemical_formula_sum              "Hg4 H56 C40 S8 I8"
_cell_length_a       4.54172
_cell_length_b       18.1771
_cell_length_c       18.2534
_cell_angle_alpha    95.8962
_cell_angle_beta     90
_cell_angle_gamma    90

_space_group_name_H-M_alt    "P 1"
_space_group_IT_number       1

loop_
  _space_group_symop_operation_xyz
  'x, y, z'

loop_
  _atom_site_type_symbol
  _atom_site_label
  _atom_site_symmetry_multiplicity
  _atom_site_fract_x
  _atom_site_fract_y
  _atom_site_fract_z
  _atom_site_occupancy
  Hg  Hg1       1.0  0.70500  0.75000  0.25000  1.0000
  Hg  Hg2       1.0  0.29500  0.25000  0.75000  1.0000
  Hg  Hg3       1.0  0.33645  0.75000  0.75000  1.0000
  Hg  Hg4       1.0  0.66355  0.25000  0.25000  1.0000
  H   H1        1.0  0.57664  0.87600  0.38736  1.0000
  H   H2        1.0  0.57664  0.62400  0.11263  1.0000
  H   H3        1.0  0.42336  0.12400  0.61263  1.0000
  H   H4        1.0  0.42336  0.37600  0.88737  1.0000
  H   H5        1.0  0.85208  0.82087  0.42447  1.0000
  H   H6        1.0  0.85207  0.67913  0.07553  1.0000
  H   H7        1.0  0.14793  0.17913  0.57553  1.0000
  H   H8        1.0  0.14791  0.32087  0.92447  1.0000
  H   H9        1.0  0.22949  0.87714  0.50864  1.0000
  H   H10       1.0  0.22950  0.62286  0.99136  1.0000
  H   H11       1.0  0.77050  0.12286  0.49136  1.0000
  H   H12       1.0  0.77050  0.37714  0.00864  1.0000
  H   H13       1.0  0.60767  0.01546  0.40797  1.0000
  H   H14       1.0  0.60767  0.48454  0.09203  1.0000
  H   H15       1.0  0.39233  0.98454  0.59203  1.0000
  H   H16       1.0  0.39232  0.51546  0.90797  1.0000
  H   H17       1.0  0.96955  0.99166  0.29541  1.0000
  H   H18       1.0  0.96955  0.50835  0.20458  1.0000
  H   H19       1.0  0.03045  0.00835  0.70459  1.0000
  H   H20       1.0  0.03045  0.49166  0.79542  1.0000
  H   H21       1.0  0.63416  0.94136  0.27204  1.0000
  H   H22       1.0  0.63415  0.55864  0.22796  1.0000
  H   H23       1.0  0.36585  0.05864  0.72796  1.0000
  H   H24       1.0  0.36585  0.44136  0.77205  1.0000
  H   H25       1.0  0.94589  0.92971  0.21202  1.0000
  H   H26       1.0  0.94589  0.57029  0.28798  1.0000
  H   H27       1.0  0.05411  0.07029  0.78798  1.0000
  H   H28       1.0  0.05411  0.42971  0.71203  1.0000
  H   H29       1.0  0.44338  0.60943  0.62192  1.0000
  H   H30       1.0  0.44338  0.89057  0.87808  1.0000
  H   H31       1.0  0.55662  0.39057  0.37808  1.0000
  H   H32       1.0  0.55662  0.10943  0.12192  1.0000
  H   H33       1.0  0.17872  0.57087  0.67886  1.0000
  H   H34       1.0  0.17873  0.92913  0.82114  1.0000
  H   H35       1.0  0.82129  0.42913  0.32114  1.0000
  H   H36       1.0  0.82128  0.07087  0.17886  1.0000
  H   H37       1.0  0.77766  0.48992  0.62291  1.0000
  H   H38       1.0  0.77766  0.01008  0.87709  1.0000
  H   H39       1.0  0.22233  0.51008  0.37709  1.0000
  H   H40       1.0  0.22234  0.98992  0.12291  1.0000
  H   H41       1.0  0.40360  0.58928  0.48524  1.0000
  H   H42       1.0  0.40361  0.91072  0.01476  1.0000
  H   H43       1.0  0.59639  0.41072  0.51476  1.0000
  H   H44       1.0  0.59640  0.08928  0.98524  1.0000
  H   H45       1.0  0.01575  0.70003  0.51278  1.0000
  H   H46       1.0  0.01575  0.79997  0.98722  1.0000
  H   H47       1.0  0.98425  0.29997  0.48722  1.0000
  H   H48       1.0  0.98427  0.20003  0.01278  1.0000
  H   H49       1.0  0.35590  0.72948  0.55769  1.0000
  H   H50       1.0  0.35590  0.77052  0.94230  1.0000
  H   H51       1.0  0.64410  0.27052  0.44230  1.0000
  H   H52       1.0  0.64411  0.22948  0.05770  1.0000
  H   H53       1.0  0.03005  0.78462  0.57317  1.0000
  H   H54       1.0  0.03005  0.71538  0.92682  1.0000
  H   H55       1.0  0.96996  0.21538  0.42683  1.0000
  H   H56       1.0  0.96997  0.28462  0.07318  1.0000
  C   C1        1.0  0.81131  0.87340  0.40137  1.0000
  C   C2        1.0  0.81130  0.62660  0.09863  1.0000
  C   C3        1.0  0.18869  0.12660  0.59863  1.0000
  C   C4        1.0  0.18869  0.37340  0.90137  1.0000
  C   C5        1.0  0.90865  0.93862  0.45203  1.0000
  C   C6        1.0  0.90864  0.56138  0.04797  1.0000
  C   C7        1.0  0.09135  0.06138  0.54796  1.0000
  C   C8        1.0  0.09134  0.43862  0.95203  1.0000
  C   C9        1.0  0.12730  0.93099  0.50490  1.0000
  C   C10       1.0  0.12729  0.56901  0.99510  1.0000
  C   C11       1.0  0.87270  0.06901  0.49510  1.0000
  C   C12       1.0  0.87270  0.43099  0.00490  1.0000
  C   C13       1.0  0.78193  0.00838  0.44775  1.0000
  C   C14       1.0  0.78193  0.49163  0.05225  1.0000
  C   C15       1.0  0.21805  0.99162  0.55225  1.0000
  C   C16       1.0  0.21807  0.50838  0.94775  1.0000
  C   C17       1.0  0.87535  0.93970  0.26965  1.0000
  C   C18       1.0  0.87535  0.56030  0.23035  1.0000
  C   C19       1.0  0.12466  0.06030  0.73035  1.0000
  C   C20       1.0  0.12465  0.43970  0.76965  1.0000
  C   C21       1.0  0.20947  0.59536  0.62685  1.0000
  C   C22       1.0  0.20948  0.90464  0.87314  1.0000
  C   C23       1.0  0.79052  0.40464  0.37315  1.0000
  C   C24       1.0  0.79053  0.09536  0.12685  1.0000
  C   C25       1.0  0.10136  0.54608  0.56177  1.0000
  C   C26       1.0  0.10137  0.95391  0.93823  1.0000
  C   C27       1.0  0.89863  0.45391  0.43824  1.0000
  C   C28       1.0  0.89864  0.04609  0.06177  1.0000
  C   C29       1.0  0.87689  0.49447  0.56909  1.0000
  C   C30       1.0  0.87690  0.00553  0.93091  1.0000
  C   C31       1.0  0.12310  0.50552  0.43091  1.0000
  C   C32       1.0  0.12311  0.99447  0.06909  1.0000
  C   C33       1.0  0.22354  0.55084  0.49191  1.0000
  C   C34       1.0  0.22355  0.94915  0.00809  1.0000
  C   C35       1.0  0.77645  0.44915  0.50810  1.0000
  C   C36       1.0  0.77645  0.05085  0.99191  1.0000
  C   C37       1.0  0.11549  0.72804  0.56283  1.0000
  C   C38       1.0  0.11549  0.77196  0.93717  1.0000
  C   C39       1.0  0.88451  0.27196  0.43717  1.0000
  C   C40       1.0  0.88452  0.22804  0.06283  1.0000
  S   S1        1.0  0.01578  0.86291  0.31429  1.0000
  S   S2        1.0  0.01578  0.63710  0.18570  1.0000
  S   S3        1.0  0.98423  0.13709  0.68570  1.0000
  S   S4        1.0  0.98422  0.36290  0.81430  1.0000
  S   S5        1.0  0.00484  0.68267  0.64163  1.0000
  S   S6        1.0  0.00485  0.81733  0.85837  1.0000
  S   S7        1.0  0.99516  0.31733  0.35837  1.0000
  S   S8        1.0  0.99516  0.18266  0.14163  1.0000
  I   I1        1.0  0.40943  0.69149  0.36425  1.0000
  I   I2        1.0  0.40941  0.80852  0.13576  1.0000
  I   I3        1.0  0.59057  0.30852  0.63575  1.0000
  I   I4        1.0  0.59059  0.19149  0.86425  1.0000
  I   I5        1.0  0.62096  0.86527  0.68847  1.0000
  I   I6        1.0  0.62096  0.63473  0.81153  1.0000
  I   I7        1.0  0.37903  0.13473  0.31153  1.0000
  I   I8        1.0  0.37904  0.36527  0.18847  1.0000
