data_image0
_chemical_formula_structural       Ni2H34C46N8O10
_chemical_formula_sum              "Ni2 H34 C46 N8 O10"
_cell_length_a       8.05487
_cell_length_b       9.80393
_cell_length_c       11.8864
_cell_angle_alpha    80.6235
_cell_angle_beta     89.6445
_cell_angle_gamma    83.8497

_space_group_name_H-M_alt    "P 1"
_space_group_IT_number       1

loop_
  _space_group_symop_operation_xyz
  'x, y, z'

loop_
  _atom_site_type_symbol
  _atom_site_label
  _atom_site_symmetry_multiplicity
  _atom_site_fract_x
  _atom_site_fract_y
  _atom_site_fract_z
  _atom_site_occupancy
  Ni  Ni1       1.0  0.31097  0.96765  0.46834  1.0000
  Ni  Ni2       1.0  0.68903  0.03235  0.53166  1.0000
  H   H1        1.0  0.11058  0.22160  0.59243  1.0000
  H   H2        1.0  0.88943  0.77840  0.40757  1.0000
  H   H3        1.0  0.33137  0.82044  0.73121  1.0000
  H   H4        1.0  0.66863  0.17956  0.26879  1.0000
  H   H5        1.0  0.16555  0.93689  0.90236  1.0000
  H   H6        1.0  0.83445  0.06311  0.09764  1.0000
  H   H7        1.0  0.13073  0.11959  0.98904  1.0000
  H   H8        1.0  0.86927  0.88041  0.01096  1.0000
  H   H9        1.0  0.97427  0.28670  0.09083  1.0000
  H   H10       1.0  0.02573  0.71330  0.90917  1.0000
  H   H11       1.0  0.73869  0.49321  0.77375  1.0000
  H   H12       1.0  0.26131  0.50678  0.22625  1.0000
  H   H13       1.0  0.88955  0.32176  0.67400  1.0000
  H   H14       1.0  0.11045  0.67823  0.32601  1.0000
  H   H15       1.0  0.83530  0.41577  0.17497  1.0000
  H   H16       1.0  0.16470  0.58422  0.82503  1.0000
  H   H17       1.0  0.68429  0.58548  0.27064  1.0000
  H   H18       1.0  0.31571  0.41452  0.72937  1.0000
  H   H19       1.0  0.46950  0.79957  0.94829  1.0000
  H   H20       1.0  0.53050  0.20042  0.05172  1.0000
  H   H21       1.0  0.62675  0.63115  0.85131  1.0000
  H   H22       1.0  0.37324  0.36884  0.14869  1.0000
  H   H23       1.0  0.52606  0.72683  0.35034  1.0000
  H   H24       1.0  0.47395  0.27318  0.64966  1.0000
  H   H25       1.0  0.23882  0.09457  0.20086  1.0000
  H   H26       1.0  0.76117  0.90542  0.79913  1.0000
  H   H27       1.0  0.36796  0.95666  0.02897  1.0000
  H   H28       1.0  0.63204  0.04334  0.97102  1.0000
  H   H29       1.0  0.21488  0.45065  0.45864  1.0000
  H   H30       1.0  0.78513  0.54935  0.54135  1.0000
  H   H31       1.0  0.00876  0.13051  0.43068  1.0000
  H   H32       1.0  0.99124  0.86949  0.56932  1.0000
  H   H33       1.0  0.16333  0.18171  0.35639  1.0000
  H   H34       1.0  0.83667  0.81828  0.64360  1.0000
  C   C1        1.0  0.15077  0.12816  0.65198  1.0000
  C   C2        1.0  0.84923  0.87184  0.34803  1.0000
  C   C3        1.0  0.26295  0.92230  0.72746  1.0000
  C   C4        1.0  0.73705  0.07770  0.27254  1.0000
  C   C5        1.0  0.18435  0.97938  0.81397  1.0000
  C   C6        1.0  0.81565  0.02062  0.18603  1.0000
  C   C7        1.0  0.01962  0.20771  0.82437  1.0000
  C   C8        1.0  0.98038  0.79228  0.17564  1.0000
  C   C9        1.0  0.04074  0.19889  0.94213  1.0000
  C   C10       1.0  0.95925  0.80111  0.05787  1.0000
  C   C11       1.0  0.95145  0.29506  0.99963  1.0000
  C   C12       1.0  0.04856  0.70493  0.00037  1.0000
  C   C13       1.0  0.83863  0.40322  0.94230  1.0000
  C   C14       1.0  0.16136  0.59678  0.05770  1.0000
  C   C15       1.0  0.82103  0.41032  0.82357  1.0000
  C   C16       1.0  0.17897  0.58968  0.17644  1.0000
  C   C17       1.0  0.90882  0.31423  0.76537  1.0000
  C   C18       1.0  0.09118  0.68577  0.23464  1.0000
  C   C19       1.0  0.74389  0.50595  0.00338  1.0000
  C   C20       1.0  0.25611  0.49404  0.99662  1.0000
  C   C21       1.0  0.75451  0.49763  0.12256  1.0000
  C   C22       1.0  0.24549  0.50236  0.87744  1.0000
  C   C23       1.0  0.66673  0.59594  0.17878  1.0000
  C   C24       1.0  0.33327  0.40406  0.82122  1.0000
  C   C25       1.0  0.56321  0.70639  0.11711  1.0000
  C   C26       1.0  0.43679  0.29361  0.88289  1.0000
  C   C27       1.0  0.54965  0.71579  0.99893  1.0000
  C   C28       1.0  0.45035  0.28421  0.00107  1.0000
  C   C29       1.0  0.63902  0.61776  0.94357  1.0000
  C   C30       1.0  0.36098  0.38223  0.05643  1.0000
  C   C31       1.0  0.46484  0.80856  0.28757  1.0000
  C   C32       1.0  0.53516  0.19144  0.71243  1.0000
  C   C33       1.0  0.31662  0.99670  0.20647  1.0000
  C   C34       1.0  0.68337  0.00330  0.79353  1.0000
  C   C35       1.0  0.37966  0.92942  0.12057  1.0000
  C   C36       1.0  0.62033  0.07058  0.87943  1.0000
  C   C37       1.0  0.19785  0.67278  0.55207  1.0000
  C   C38       1.0  0.80215  0.32723  0.44792  1.0000
  C   C39       1.0  0.34100  0.47321  0.47670  1.0000
  C   C40       1.0  0.65900  0.52679  0.52330  1.0000
  C   C41       1.0  0.36008  0.59176  0.52500  1.0000
  C   C42       1.0  0.63993  0.40824  0.47500  1.0000
  C   C43       1.0  0.52343  0.61894  0.54856  1.0000
  C   C44       1.0  0.47658  0.38106  0.45144  1.0000
  C   C45       1.0  0.57673  0.74085  0.59623  1.0000
  C   C46       1.0  0.42327  0.25915  0.40376  1.0000
  N   N1        1.0  0.24140  0.01587  0.62707  1.0000
  N   N2        1.0  0.75861  0.98413  0.37293  1.0000
  N   N3        1.0  0.11285  0.11072  0.76548  1.0000
  N   N4        1.0  0.88715  0.88928  0.23452  1.0000
  N   N5        1.0  0.37055  0.92018  0.31034  1.0000
  N   N6        1.0  0.62945  0.07982  0.68966  1.0000
  N   N7        1.0  0.47466  0.80933  0.17272  1.0000
  N   N8        1.0  0.52534  0.19067  0.82729  1.0000
  O   O1        1.0  0.17094  0.80479  0.51290  1.0000
  O   O2        1.0  0.82906  0.19522  0.48709  1.0000
  O   O3        1.0  0.09178  0.60505  0.60611  1.0000
  O   O4        1.0  0.90823  0.39496  0.39388  1.0000
  O   O5        1.0  0.53024  0.86557  0.54444  1.0000
  O   O6        1.0  0.46976  0.13443  0.45556  1.0000
  O   O7        1.0  0.68040  0.71454  0.67739  1.0000
  O   O8        1.0  0.31959  0.28546  0.32261  1.0000
  O   O9        1.0  0.10999  0.09720  0.38912  1.0000
  O   O10       1.0  0.89001  0.90280  0.61088  1.0000
