data_image0
_chemical_formula_structural       Cd2H16C28N4O8
_chemical_formula_sum              "Cd2 H16 C28 N4 O8"
_cell_length_a       7.82782
_cell_length_b       9.45499
_cell_length_c       10.211
_cell_angle_alpha    91.2912
_cell_angle_beta     71.1532
_cell_angle_gamma    68.0556

_space_group_name_H-M_alt    "P 1"
_space_group_IT_number       1

loop_
  _space_group_symop_operation_xyz
  'x, y, z'

loop_
  _atom_site_type_symbol
  _atom_site_label
  _atom_site_symmetry_multiplicity
  _atom_site_fract_x
  _atom_site_fract_y
  _atom_site_fract_z
  _atom_site_occupancy
  Cd  Cd1       1.0  0.14294  0.05187  0.60139  1.0000
  Cd  Cd2       1.0  0.85707  0.94813  0.39860  1.0000
  H   H1        1.0  0.50031  0.93478  0.73219  1.0000
  H   H2        1.0  0.49971  0.06521  0.26781  1.0000
  H   H3        1.0  0.97186  0.86521  0.87041  1.0000
  H   H4        1.0  0.02814  0.13480  0.12958  1.0000
  H   H5        1.0  0.21488  0.69520  0.00879  1.0000
  H   H6        1.0  0.78512  0.30481  0.99121  1.0000
  H   H7        1.0  0.78034  0.66764  0.70221  1.0000
  H   H8        1.0  0.21966  0.33236  0.29779  1.0000
  H   H9        1.0  0.07086  0.51900  0.75848  1.0000
  H   H10       1.0  0.92914  0.48098  0.24151  1.0000
  H   H11       1.0  0.70289  0.60005  0.19518  1.0000
  H   H12       1.0  0.29710  0.39995  0.80482  1.0000
  H   H13       1.0  0.41340  0.74810  0.13917  1.0000
  H   H14       1.0  0.58659  0.25190  0.86083  1.0000
  H   H15       1.0  0.80285  0.52662  0.49724  1.0000
  H   H16       1.0  0.19714  0.47337  0.50276  1.0000
  C   C1        1.0  0.38956  0.89271  0.78767  1.0000
  C   C2        1.0  0.61045  0.10729  0.21232  1.0000
  C   C3        1.0  0.11696  0.85552  0.86340  1.0000
  C   C4        1.0  0.88304  0.14449  0.13659  1.0000
  C   C5        1.0  0.23468  0.77070  0.93232  1.0000
  C   C6        1.0  0.76533  0.22931  0.06768  1.0000
  C   C7        1.0  0.57870  0.71764  0.91674  1.0000
  C   C8        1.0  0.42129  0.28236  0.08326  1.0000
  C   C9        1.0  0.76474  0.65456  0.81072  1.0000
  C   C10       1.0  0.23526  0.34543  0.18928  1.0000
  C   C11       1.0  0.92912  0.57030  0.84395  1.0000
  C   C12       1.0  0.07088  0.42967  0.15605  1.0000
  C   C13       1.0  0.91296  0.54684  0.98246  1.0000
  C   C14       1.0  0.08704  0.45313  0.01754  1.0000
  C   C15       1.0  0.72363  0.61468  0.08671  1.0000
  C   C16       1.0  0.27636  0.38530  0.91330  1.0000
  C   C17       1.0  0.55776  0.69936  0.05554  1.0000
  C   C18       1.0  0.44223  0.30062  0.94446  1.0000
  C   C19       1.0  0.56904  0.77678  0.43396  1.0000
  C   C20       1.0  0.43097  0.22323  0.56604  1.0000
  C   C21       1.0  0.52659  0.63664  0.46968  1.0000
  C   C22       1.0  0.47340  0.36338  0.53033  1.0000
  C   C23       1.0  0.66981  0.51320  0.49904  1.0000
  C   C24       1.0  0.33017  0.48680  0.50095  1.0000
  C   C25       1.0  0.35302  0.62327  0.47083  1.0000
  C   C26       1.0  0.64698  0.37673  0.52917  1.0000
  C   C27       1.0  0.18638  0.74617  0.44233  1.0000
  C   C28       1.0  0.81360  0.25385  0.55768  1.0000
  N   N1        1.0  0.21440  0.93153  0.77479  1.0000
  N   N2        1.0  0.78561  0.06847  0.22521  1.0000
  N   N3        1.0  0.40770  0.79446  0.88254  1.0000
  N   N4        1.0  0.59231  0.20555  0.11746  1.0000
  O   O1        1.0  0.04652  0.84649  0.54709  1.0000
  O   O2        1.0  0.95347  0.15353  0.45293  1.0000
  O   O3        1.0  0.43593  0.89552  0.41804  1.0000
  O   O4        1.0  0.56408  0.10448  0.58195  1.0000
  O   O5        1.0  0.74347  0.76169  0.41860  1.0000
  O   O6        1.0  0.25654  0.23830  0.58140  1.0000
  O   O7        1.0  0.17913  0.73987  0.32071  1.0000
  O   O8        1.0  0.82087  0.26014  0.67929  1.0000
