data_image0
_chemical_formula_structural       Co2Ni2H16C32N12
_chemical_formula_sum              "Co2 Ni2 H16 C32 N12"
_cell_length_a       6.41836
_cell_length_b       10.1744
_cell_length_c       11.1044
_cell_angle_alpha    90.328
_cell_angle_beta     91.1759
_cell_angle_gamma    71.6424

_space_group_name_H-M_alt    "P 1"
_space_group_IT_number       1

loop_
  _space_group_symop_operation_xyz
  'x, y, z'

loop_
  _atom_site_type_symbol
  _atom_site_label
  _atom_site_symmetry_multiplicity
  _atom_site_fract_x
  _atom_site_fract_y
  _atom_site_fract_z
  _atom_site_occupancy
  Co  Co1       1.0  0.37704  0.24628  0.74989  1.0000
  Co  Co2       1.0  0.62297  0.75372  0.25011  1.0000
  Ni  Ni1       1.0  0.00000  0.00001  0.00001  1.0000
  Ni  Ni2       1.0  0.00001  0.99999  0.50000  1.0000
  H   H1        1.0  0.93219  0.29228  0.61100  1.0000
  H   H2        1.0  0.77613  0.29206  0.88875  1.0000
  H   H3        1.0  0.06781  0.70771  0.38900  1.0000
  H   H4        1.0  0.22387  0.70796  0.11125  1.0000
  H   H5        1.0  0.63823  0.50097  0.54487  1.0000
  H   H6        1.0  0.86155  0.50062  0.95508  1.0000
  H   H7        1.0  0.36177  0.49902  0.45513  1.0000
  H   H8        1.0  0.13843  0.49940  0.04492  1.0000
  H   H9        1.0  0.66703  0.73652  0.58814  1.0000
  H   H10       1.0  0.59717  0.73627  0.91200  1.0000
  H   H11       1.0  0.33296  0.26347  0.41186  1.0000
  H   H12       1.0  0.40280  0.26375  0.08800  1.0000
  H   H13       1.0  0.89344  0.87609  0.69476  1.0000
  H   H14       1.0  0.23168  0.87596  0.80529  1.0000
  H   H15       1.0  0.10653  0.12391  0.30523  1.0000
  H   H16       1.0  0.76829  0.12403  0.19471  1.0000
  C   C1        1.0  0.11487  0.13496  0.94794  1.0000
  C   C2        1.0  0.75043  0.13503  0.55175  1.0000
  C   C3        1.0  0.88514  0.86506  0.05207  1.0000
  C   C4        1.0  0.24960  0.86497  0.44826  1.0000
  C   C5        1.0  0.16989  0.06482  0.60611  1.0000
  C   C6        1.0  0.76555  0.06467  0.89368  1.0000
  C   C7        1.0  0.83013  0.93517  0.39390  1.0000
  C   C8        1.0  0.23446  0.93534  0.10633  1.0000
  C   C9        1.0  0.94626  0.39347  0.63038  1.0000
  C   C10       1.0  0.66085  0.39327  0.86947  1.0000
  C   C11       1.0  0.05376  0.60652  0.36963  1.0000
  C   C12       1.0  0.33916  0.60675  0.13053  1.0000
  C   C13       1.0  0.77908  0.51347  0.59396  1.0000
  C   C14       1.0  0.70811  0.51321  0.90605  1.0000
  C   C15       1.0  0.22092  0.48652  0.40604  1.0000
  C   C16       1.0  0.29188  0.48680  0.09395  1.0000
  C   C17       1.0  0.79467  0.64332  0.61880  1.0000
  C   C18       1.0  0.56276  0.64310  0.88130  1.0000
  C   C19       1.0  0.20532  0.35667  0.38120  1.0000
  C   C20       1.0  0.43723  0.35691  0.11869  1.0000
  C   C21       1.0  0.98110  0.65191  0.68404  1.0000
  C   C22       1.0  0.36775  0.65179  0.81602  1.0000
  C   C23       1.0  0.01890  0.34807  0.31596  1.0000
  C   C24       1.0  0.63224  0.34823  0.18398  1.0000
  C   C25       1.0  0.14211  0.52582  0.71708  1.0000
  C   C26       1.0  0.33272  0.52578  0.78287  1.0000
  C   C27       1.0  0.85789  0.47418  0.28291  1.0000
  C   C28       1.0  0.66727  0.47422  0.21712  1.0000
  C   C29       1.0  0.01818  0.77853  0.71864  1.0000
  C   C30       1.0  0.20423  0.77847  0.78141  1.0000
  C   C31       1.0  0.98182  0.22146  0.28136  1.0000
  C   C32       1.0  0.79576  0.22154  0.21859  1.0000
  N   N1        1.0  0.18517  0.21997  0.91021  1.0000
  N   N2        1.0  0.59522  0.22008  0.58934  1.0000
  N   N3        1.0  0.81483  0.78003  0.08979  1.0000
  N   N4        1.0  0.40481  0.77991  0.41065  1.0000
  N   N5        1.0  0.26696  0.11786  0.67022  1.0000
  N   N6        1.0  0.61551  0.11774  0.82952  1.0000
  N   N7        1.0  0.73307  0.88213  0.32979  1.0000
  N   N8        1.0  0.38450  0.88226  0.17049  1.0000
  N   N9        1.0  0.12761  0.39786  0.68942  1.0000
  N   N10       1.0  0.47511  0.39776  0.81043  1.0000
  N   N11       1.0  0.87240  0.60213  0.31058  1.0000
  N   N12       1.0  0.52490  0.60224  0.18957  1.0000
