data_image0
_chemical_formula_structural       Co2Ni2H16C28N12
_chemical_formula_sum              "Co2 Ni2 H16 C28 N12"
_cell_length_a       6.5388
_cell_length_b       8.97554
_cell_length_c       11.4823
_cell_angle_alpha    90.7777
_cell_angle_beta     92.1096
_cell_angle_gamma    68.6042

_space_group_name_H-M_alt    "P 1"
_space_group_IT_number       1

loop_
  _space_group_symop_operation_xyz
  'x, y, z'

loop_
  _atom_site_type_symbol
  _atom_site_label
  _atom_site_symmetry_multiplicity
  _atom_site_fract_x
  _atom_site_fract_y
  _atom_site_fract_z
  _atom_site_occupancy
  Co  Co1       1.0  0.36458  0.27050  0.75006  1.0000
  Co  Co2       1.0  0.63515  0.72985  0.24993  1.0000
  Ni  Ni1       1.0  0.99947  0.00007  0.00001  1.0000
  Ni  Ni2       1.0  0.00020  0.00022  0.49999  1.0000
  H   H1        1.0  0.93124  0.85289  0.70731  1.0000
  H   H2        1.0  0.21615  0.85268  0.79287  1.0000
  H   H3        1.0  0.07009  0.14707  0.29188  1.0000
  H   H4        1.0  0.78302  0.14722  0.20799  1.0000
  H   H5        1.0  0.61223  0.82885  0.59335  1.0000
  H   H6        1.0  0.55950  0.82825  0.90671  1.0000
  H   H7        1.0  0.38836  0.17126  0.40621  1.0000
  H   H8        1.0  0.44044  0.17156  0.09364  1.0000
  H   H9        1.0  0.61525  0.55241  0.54918  1.0000
  H   H10       1.0  0.83279  0.55162  0.95093  1.0000
  H   H11       1.0  0.38367  0.44752  0.45214  1.0000
  H   H12       1.0  0.16866  0.44791  0.04774  1.0000
  H   H13       1.0  0.93392  0.31779  0.61498  1.0000
  H   H14       1.0  0.74835  0.31729  0.88516  1.0000
  H   H15       1.0  0.06444  0.68226  0.38672  1.0000
  H   H16       1.0  0.25318  0.68250  0.11314  1.0000
  C   C1        1.0  0.10491  0.59759  0.71685  1.0000
  C   C2        1.0  0.29755  0.59744  0.78335  1.0000
  C   C3        1.0  0.89509  0.40242  0.28325  1.0000
  C   C4        1.0  0.70260  0.40251  0.21658  1.0000
  C   C5        1.0  0.92907  0.73578  0.68324  1.0000
  C   C6        1.0  0.33545  0.73552  0.81689  1.0000
  C   C7        1.0  0.07142  0.26422  0.31649  1.0000
  C   C8        1.0  0.66440  0.26438  0.18339  1.0000
  C   C9        1.0  0.75002  0.72260  0.62112  1.0000
  C   C10       1.0  0.52783  0.72209  0.87896  1.0000
  C   C11       1.0  0.25014  0.27746  0.37887  1.0000
  C   C12       1.0  0.47239  0.27773  0.12103  1.0000
  C   C13       1.0  0.75169  0.56990  0.59656  1.0000
  C   C14       1.0  0.67879  0.56933  0.90355  1.0000
  C   C15       1.0  0.24766  0.43012  0.40428  1.0000
  C   C16       1.0  0.32214  0.43043  0.09558  1.0000
  C   C17       1.0  0.93128  0.43692  0.63256  1.0000
  C   C18       1.0  0.63191  0.43651  0.86759  1.0000
  C   C19       1.0  0.06779  0.56307  0.36852  1.0000
  C   C20       1.0  0.36910  0.56330  0.13133  1.0000
  C   C21       1.0  0.10362  0.14647  0.93808  1.0000
  C   C22       1.0  0.74946  0.14661  0.56198  1.0000
  C   C23       1.0  0.89599  0.85331  0.06217  1.0000
  C   C24       1.0  0.25068  0.85336  0.43784  1.0000
  C   C25       1.0  0.17330  0.06202  0.60698  1.0000
  C   C26       1.0  0.76441  0.06175  0.89308  1.0000
  C   C27       1.0  0.82681  0.93852  0.39301  1.0000
  C   C28       1.0  0.23473  0.93844  0.10685  1.0000
  N   N1        1.0  0.10811  0.44809  0.69008  1.0000
  N   N2        1.0  0.44378  0.44788  0.81013  1.0000
  N   N3        1.0  0.89142  0.55192  0.31044  1.0000
  N   N4        1.0  0.55670  0.55203  0.18938  1.0000
  N   N5        1.0  0.16982  0.23817  0.89619  1.0000
  N   N6        1.0  0.59154  0.23831  0.60398  1.0000
  N   N7        1.0  0.83073  0.76128  0.10433  1.0000
  N   N8        1.0  0.40805  0.76136  0.39558  1.0000
  N   N9        1.0  0.26936  0.12051  0.66928  1.0000
  N   N10       1.0  0.60977  0.12031  0.83079  1.0000
  N   N11       1.0  0.73003  0.88032  0.33093  1.0000
  N   N12       1.0  0.38978  0.88032  0.16896  1.0000
