data_image0
_chemical_formula_structural       Hg4H54C48N14Cl8O6
_chemical_formula_sum              "Hg4 H54 C48 N14 Cl8 O6"
_cell_length_a       8.23702
_cell_length_b       13.5376
_cell_length_c       14.007
_cell_angle_alpha    105.037
_cell_angle_beta     95.5243
_cell_angle_gamma    96.9069

_space_group_name_H-M_alt    "P 1"
_space_group_IT_number       1

loop_
  _space_group_symop_operation_xyz
  'x, y, z'

loop_
  _atom_site_type_symbol
  _atom_site_label
  _atom_site_symmetry_multiplicity
  _atom_site_fract_x
  _atom_site_fract_y
  _atom_site_fract_z
  _atom_site_occupancy
  Hg  Hg1       1.0  0.99025  0.11855  0.61668  1.0000
  Hg  Hg2       1.0  0.00975  0.88145  0.38332  1.0000
  Hg  Hg3       1.0  0.53148  0.80732  0.21106  1.0000
  Hg  Hg4       1.0  0.46852  0.19268  0.78893  1.0000
  H   H1        1.0  0.53729  0.28640  0.10886  1.0000
  H   H2        1.0  0.46270  0.71360  0.89114  1.0000
  H   H3        1.0  0.43836  0.53455  0.08104  1.0000
  H   H4        1.0  0.56164  0.46545  0.91896  1.0000
  H   H5        1.0  0.40491  0.39953  0.02527  1.0000
  H   H6        1.0  0.59509  0.60047  0.97473  1.0000
  H   H7        1.0  0.65739  0.46814  0.15598  1.0000
  H   H8        1.0  0.34261  0.53186  0.84402  1.0000
  H   H9        1.0  0.52313  0.49058  0.24877  1.0000
  H   H10       1.0  0.47687  0.50942  0.75123  1.0000
  H   H11       1.0  0.00903  0.25951  0.12061  1.0000
  H   H12       1.0  0.99097  0.74050  0.87940  1.0000
  H   H13       1.0  0.12162  0.44334  0.98003  1.0000
  H   H14       1.0  0.87838  0.55666  0.01997  1.0000
  H   H15       1.0  0.98900  0.41548  0.06531  1.0000
  H   H16       1.0  0.01100  0.58452  0.93469  1.0000
  H   H17       1.0  0.01400  0.26385  0.92898  1.0000
  H   H18       1.0  0.98600  0.73614  0.07102  1.0000
  H   H19       1.0  0.22590  0.27281  0.96791  1.0000
  H   H20       1.0  0.77410  0.72719  0.03209  1.0000
  H   H21       1.0  0.15449  0.53204  0.38701  1.0000
  H   H22       1.0  0.84551  0.46796  0.61300  1.0000
  H   H23       1.0  0.19704  0.60580  0.13820  1.0000
  H   H24       1.0  0.80296  0.39420  0.86180  1.0000
  H   H25       1.0  0.32577  0.58616  0.23731  1.0000
  H   H26       1.0  0.67423  0.41384  0.76269  1.0000
  H   H27       1.0  0.06084  0.63304  0.28233  1.0000
  H   H28       1.0  0.93916  0.36695  0.71767  1.0000
  H   H29       1.0  0.95113  0.51835  0.19725  1.0000
  H   H30       1.0  0.04887  0.48164  0.80275  1.0000
  H   H31       1.0  0.61559  0.97105  0.09382  1.0000
  H   H32       1.0  0.38441  0.02895  0.90618  1.0000
  H   H33       1.0  0.59444  0.15203  0.09558  1.0000
  H   H34       1.0  0.40556  0.84797  0.90442  1.0000
  H   H35       1.0  0.43236  0.19535  0.38681  1.0000
  H   H36       1.0  0.56764  0.80465  0.61318  1.0000
  H   H37       1.0  0.45568  0.00858  0.37181  1.0000
  H   H38       1.0  0.54431  0.99142  0.62818  1.0000
  H   H39       1.0  0.17421  0.85952  0.18734  1.0000
  H   H40       1.0  0.82578  0.14048  0.81266  1.0000
  H   H41       1.0  0.22845  0.95975  0.06379  1.0000
  H   H42       1.0  0.77154  0.04025  0.93621  1.0000
  H   H43       1.0  0.93870  0.18182  0.21733  1.0000
  H   H44       1.0  0.06130  0.81818  0.78267  1.0000
  H   H45       1.0  0.89319  0.07111  0.33249  1.0000
  H   H46       1.0  0.10682  0.92889  0.66751  1.0000
  H   H47       1.0  0.75155  0.21821  0.50317  1.0000
  H   H48       1.0  0.24845  0.78180  0.49683  1.0000
  H   H49       1.0  0.74738  0.32466  0.38110  1.0000
  H   H50       1.0  0.25263  0.67534  0.61891  1.0000
  H   H51       1.0  0.28214  0.36595  0.42344  1.0000
  H   H52       1.0  0.71787  0.63404  0.57656  1.0000
  H   H53       1.0  0.26245  0.26247  0.54879  1.0000
  H   H54       1.0  0.73755  0.73753  0.45122  1.0000
  C   C1        1.0  0.40343  0.45873  0.09556  1.0000
  C   C2        1.0  0.59657  0.54127  0.90444  1.0000
  C   C3        1.0  0.53380  0.44402  0.17354  1.0000
  C   C4        1.0  0.46620  0.55599  0.82646  1.0000
  C   C5        1.0  0.10981  0.40473  0.04052  1.0000
  C   C6        1.0  0.89019  0.59526  0.95948  1.0000
  C   C7        1.0  0.10889  0.28974  0.99484  1.0000
  C   C8        1.0  0.89111  0.71025  0.00515  1.0000
  C   C9        1.0  0.21291  0.55171  0.18482  1.0000
  C   C10       1.0  0.78708  0.44829  0.81518  1.0000
  C   C11       1.0  0.06858  0.55217  0.24497  1.0000
  C   C12       1.0  0.93142  0.44782  0.75503  1.0000
  C   C13       1.0  0.57312  0.02291  0.15675  1.0000
  C   C14       1.0  0.42688  0.97709  0.84325  1.0000
  C   C15       1.0  0.56116  0.12506  0.15909  1.0000
  C   C16       1.0  0.43885  0.87494  0.84091  1.0000
  C   C17       1.0  0.50991  0.18949  0.24256  1.0000
  C   C18       1.0  0.49009  0.81052  0.75744  1.0000
  C   C19       1.0  0.47153  0.14731  0.32044  1.0000
  C   C20       1.0  0.52847  0.85269  0.67956  1.0000
  C   C21       1.0  0.48546  0.04431  0.31304  1.0000
  C   C22       1.0  0.51454  0.95569  0.68695  1.0000
  C   C23       1.0  0.50295  0.30309  0.25537  1.0000
  C   C24       1.0  0.49706  0.69691  0.74463  1.0000
  C   C25       1.0  0.12379  0.93085  0.19034  1.0000
  C   C26       1.0  0.87621  0.06915  0.80966  1.0000
  C   C27       1.0  0.15472  0.98744  0.12278  1.0000
  C   C28       1.0  0.84528  0.01256  0.87722  1.0000
  C   C29       1.0  0.09254  0.08058  0.13158  1.0000
  C   C30       1.0  0.90746  0.91942  0.86842  1.0000
  C   C31       1.0  0.99490  0.11150  0.20731  1.0000
  C   C32       1.0  0.00510  0.88850  0.79269  1.0000
  C   C33       1.0  0.96817  0.05085  0.27223  1.0000
  C   C34       1.0  0.03183  0.94915  0.72777  1.0000
  C   C35       1.0  0.13494  0.13993  0.05755  1.0000
  C   C36       1.0  0.86504  0.86007  0.94245  1.0000
  C   C37       1.0  0.86492  0.25376  0.48364  1.0000
  C   C38       1.0  0.13509  0.74624  0.51636  1.0000
  C   C39       1.0  0.86421  0.31209  0.41583  1.0000
  C   C40       1.0  0.13579  0.68791  0.58418  1.0000
  C   C41       1.0  0.01465  0.35280  0.39195  1.0000
  C   C42       1.0  0.98535  0.64720  0.60806  1.0000
  C   C43       1.0  0.16183  0.33783  0.44121  1.0000
  C   C44       1.0  0.83818  0.66217  0.55879  1.0000
  C   C45       1.0  0.15251  0.27880  0.50936  1.0000
  C   C46       1.0  0.84749  0.72119  0.49065  1.0000
  C   C47       1.0  0.00429  0.40023  0.30628  1.0000
  C   C48       1.0  0.99572  0.59977  0.69372  1.0000
  N   N1        1.0  0.23791  0.45009  0.12559  1.0000
  N   N2        1.0  0.76209  0.54991  0.87441  1.0000
  N   N3        1.0  0.51947  0.33645  0.17421  1.0000
  N   N4        1.0  0.48053  0.66355  0.82579  1.0000
  N   N5        1.0  0.07495  0.22930  0.06455  1.0000
  N   N6        1.0  0.92505  0.77070  0.93545  1.0000
  N   N7        1.0  0.08370  0.49641  0.32066  1.0000
  N   N8        1.0  0.91631  0.50359  0.67934  1.0000
  N   N9        1.0  0.53653  0.98395  0.23255  1.0000
  N   N10       1.0  0.46347  0.01605  0.76745  1.0000
  N   N11       1.0  0.03332  0.96299  0.26426  1.0000
  N   N12       1.0  0.96668  0.03701  0.73574  1.0000
  N   N13       1.0  0.00705  0.23686  0.52852  1.0000
  N   N14       1.0  0.99295  0.76314  0.47148  1.0000
  Cl  Cl1       1.0  0.76914  0.97388  0.46922  1.0000
  Cl  Cl2       1.0  0.23087  0.02612  0.53078  1.0000
  Cl  Cl3       1.0  0.32264  0.79857  0.33674  1.0000
  Cl  Cl4       1.0  0.67736  0.20143  0.66326  1.0000
  Cl  Cl5       1.0  0.75744  0.71244  0.23859  1.0000
  Cl  Cl6       1.0  0.24256  0.28756  0.76142  1.0000
  Cl  Cl7       1.0  0.35392  0.75106  0.04137  1.0000
  Cl  Cl8       1.0  0.64608  0.24894  0.95863  1.0000
  O   O1        1.0  0.48881  0.36033  0.33917  1.0000
  O   O2        1.0  0.51119  0.63967  0.66083  1.0000
  O   O3        1.0  0.22232  0.10437  0.99262  1.0000
  O   O4        1.0  0.77766  0.89562  0.00737  1.0000
  O   O5        1.0  0.91605  0.34923  0.22697  1.0000
  O   O6        1.0  0.08395  0.65076  0.77304  1.0000
