data_image0
_chemical_formula_structural       Cd4H36C56S4N12Cl8O4
_chemical_formula_sum              "Cd4 H36 C56 S4 N12 Cl8 O4"
_cell_length_a       7.66858
_cell_length_b       13.1156
_cell_length_c       16.911
_cell_angle_alpha    111.93
_cell_angle_beta     90
_cell_angle_gamma    90

_space_group_name_H-M_alt    "P 1"
_space_group_IT_number       1

loop_
  _space_group_symop_operation_xyz
  'x, y, z'

loop_
  _atom_site_type_symbol
  _atom_site_label
  _atom_site_symmetry_multiplicity
  _atom_site_fract_x
  _atom_site_fract_y
  _atom_site_fract_z
  _atom_site_occupancy
  Cd  Cd1       1.0  0.67850  0.56312  0.46763  1.0000
  Cd  Cd2       1.0  0.17850  0.43688  0.03237  1.0000
  Cd  Cd3       1.0  0.32150  0.43687  0.53237  1.0000
  Cd  Cd4       1.0  0.82149  0.56313  0.96763  1.0000
  H   H1        1.0  0.78484  0.03935  0.32051  1.0000
  H   H2        1.0  0.28484  0.96065  0.17948  1.0000
  H   H3        1.0  0.21515  0.96065  0.67949  1.0000
  H   H4        1.0  0.71516  0.03935  0.82051  1.0000
  H   H5        1.0  0.51921  0.20151  0.17586  1.0000
  H   H6        1.0  0.01921  0.79849  0.32414  1.0000
  H   H7        1.0  0.48079  0.79849  0.82414  1.0000
  H   H8        1.0  0.98079  0.20151  0.67586  1.0000
  H   H9        1.0  0.42506  0.37596  0.23252  1.0000
  H   H10       1.0  0.92506  0.62404  0.26748  1.0000
  H   H11       1.0  0.57494  0.62404  0.76748  1.0000
  H   H12       1.0  0.07495  0.37596  0.73252  1.0000
  H   H13       1.0  0.29318  0.60055  0.35820  1.0000
  H   H14       1.0  0.79318  0.39946  0.14181  1.0000
  H   H15       1.0  0.70682  0.39945  0.64181  1.0000
  H   H16       1.0  0.20683  0.60055  0.85819  1.0000
  H   H17       1.0  0.39282  0.55404  0.25540  1.0000
  H   H18       1.0  0.89282  0.44596  0.24460  1.0000
  H   H19       1.0  0.60718  0.44596  0.74460  1.0000
  H   H20       1.0  0.10718  0.55404  0.75540  1.0000
  H   H21       1.0  0.39856  0.74836  0.26643  1.0000
  H   H22       1.0  0.89856  0.25164  0.23357  1.0000
  H   H23       1.0  0.60145  0.25164  0.73357  1.0000
  H   H24       1.0  0.10145  0.74836  0.76643  1.0000
  H   H25       1.0  0.54814  0.93000  0.32634  1.0000
  H   H26       1.0  0.04814  0.07000  0.17366  1.0000
  H   H27       1.0  0.45187  0.07000  0.67366  1.0000
  H   H28       1.0  0.95187  0.93000  0.82634  1.0000
  H   H29       1.0  0.76466  0.96363  0.44609  1.0000
  H   H30       1.0  0.26466  0.03637  0.05391  1.0000
  H   H31       1.0  0.23534  0.03637  0.55391  1.0000
  H   H32       1.0  0.73534  0.96363  0.94609  1.0000
  H   H33       1.0  0.82414  0.80868  0.49613  1.0000
  H   H34       1.0  0.32414  0.19132  0.00387  1.0000
  H   H35       1.0  0.17585  0.19132  0.50387  1.0000
  H   H36       1.0  0.67586  0.80868  0.99613  1.0000
  C   C1        1.0  0.56313  0.30098  0.30872  1.0000
  C   C2        1.0  0.06313  0.69902  0.19127  1.0000
  C   C3        1.0  0.43687  0.69902  0.69127  1.0000
  C   C4        1.0  0.93687  0.30098  0.80872  1.0000
  C   C5        1.0  0.62342  0.30453  0.39045  1.0000
  C   C6        1.0  0.12343  0.69547  0.10955  1.0000
  C   C7        1.0  0.37658  0.69547  0.60955  1.0000
  C   C8        1.0  0.87658  0.30453  0.89045  1.0000
  C   C9        1.0  0.70329  0.20581  0.39031  1.0000
  C   C10       1.0  0.20329  0.79419  0.10969  1.0000
  C   C11       1.0  0.29671  0.79419  0.60969  1.0000
  C   C12       1.0  0.79672  0.20581  0.89031  1.0000
  C   C13       1.0  0.71817  0.11110  0.31762  1.0000
  C   C14       1.0  0.21818  0.88890  0.18238  1.0000
  C   C15       1.0  0.28182  0.88890  0.68238  1.0000
  C   C16       1.0  0.78183  0.11110  0.81762  1.0000
  C   C17       1.0  0.64777  0.10933  0.24071  1.0000
  C   C18       1.0  0.14777  0.89067  0.25928  1.0000
  C   C19       1.0  0.35223  0.89067  0.75928  1.0000
  C   C20       1.0  0.85223  0.10933  0.74071  1.0000
  C   C21       1.0  0.57126  0.20269  0.23621  1.0000
  C   C22       1.0  0.07127  0.79731  0.26379  1.0000
  C   C23       1.0  0.42874  0.79731  0.76379  1.0000
  C   C24       1.0  0.92874  0.20269  0.73621  1.0000
  C   C25       1.0  0.49050  0.39519  0.29461  1.0000
  C   C26       1.0  0.99050  0.60481  0.20539  1.0000
  C   C27       1.0  0.50950  0.60481  0.70539  1.0000
  C   C28       1.0  0.00950  0.39519  0.79460  1.0000
  C   C29       1.0  0.41961  0.58088  0.32428  1.0000
  C   C30       1.0  0.91961  0.41912  0.17572  1.0000
  C   C31       1.0  0.58039  0.41913  0.67572  1.0000
  C   C32       1.0  0.08039  0.58088  0.82428  1.0000
  C   C33       1.0  0.52367  0.68666  0.35356  1.0000
  C   C34       1.0  0.02367  0.31335  0.14644  1.0000
  C   C35       1.0  0.47633  0.31335  0.64644  1.0000
  C   C36       1.0  0.97633  0.68666  0.85356  1.0000
  C   C37       1.0  0.49095  0.76595  0.31864  1.0000
  C   C38       1.0  0.99095  0.23405  0.18136  1.0000
  C   C39       1.0  0.50905  0.23406  0.68136  1.0000
  C   C40       1.0  0.00905  0.76595  0.81864  1.0000
  C   C41       1.0  0.57576  0.86684  0.35190  1.0000
  C   C42       1.0  0.07576  0.13316  0.14810  1.0000
  C   C43       1.0  0.42424  0.13316  0.64810  1.0000
  C   C44       1.0  0.92424  0.86684  0.85190  1.0000
  C   C45       1.0  0.69611  0.88560  0.41785  1.0000
  C   C46       1.0  0.19611  0.11440  0.08216  1.0000
  C   C47       1.0  0.30389  0.11440  0.58215  1.0000
  C   C48       1.0  0.80389  0.88560  0.91784  1.0000
  C   C49       1.0  0.72741  0.80105  0.44682  1.0000
  C   C50       1.0  0.22741  0.19895  0.05318  1.0000
  C   C51       1.0  0.27258  0.19896  0.55318  1.0000
  C   C52       1.0  0.77259  0.80105  0.94682  1.0000
  C   C53       1.0  0.96895  0.58157  0.60512  1.0000
  C   C54       1.0  0.46895  0.41843  0.89488  1.0000
  C   C55       1.0  0.03104  0.41843  0.39488  1.0000
  C   C56       1.0  0.53105  0.58157  0.10512  1.0000
  S   S1        1.0  0.83756  0.68121  0.60866  1.0000
  S   S2        1.0  0.33755  0.31878  0.89133  1.0000
  S   S3        1.0  0.16244  0.31878  0.39134  1.0000
  S   S4        1.0  0.66244  0.68122  0.10866  1.0000
  N   N1        1.0  0.50134  0.49582  0.34661  1.0000
  N   N2        1.0  0.00134  0.50418  0.15339  1.0000
  N   N3        1.0  0.49866  0.50418  0.65339  1.0000
  N   N4        1.0  0.99866  0.49581  0.84661  1.0000
  N   N5        1.0  0.64214  0.70459  0.41588  1.0000
  N   N6        1.0  0.14214  0.29542  0.08412  1.0000
  N   N7        1.0  0.35786  0.29542  0.58412  1.0000
  N   N8        1.0  0.85786  0.70458  0.91588  1.0000
  N   N9        1.0  0.06430  0.51083  0.60590  1.0000
  N   N10       1.0  0.56430  0.48917  0.89410  1.0000
  N   N11       1.0  0.93570  0.48917  0.39410  1.0000
  N   N12       1.0  0.43569  0.51082  0.10590  1.0000
  Cl  Cl1       1.0  0.78363  0.20495  0.48571  1.0000
  Cl  Cl2       1.0  0.28364  0.79505  0.01429  1.0000
  Cl  Cl3       1.0  0.21637  0.79505  0.51429  1.0000
  Cl  Cl4       1.0  0.71638  0.20495  0.98571  1.0000
  Cl  Cl5       1.0  0.66141  0.98937  0.15057  1.0000
  Cl  Cl6       1.0  0.16142  0.01063  0.34943  1.0000
  Cl  Cl7       1.0  0.33858  0.01063  0.84943  1.0000
  Cl  Cl8       1.0  0.83858  0.98937  0.65057  1.0000
  O   O1        1.0  0.60562  0.38931  0.46180  1.0000
  O   O2        1.0  0.10562  0.61069  0.03820  1.0000
  O   O3        1.0  0.39438  0.61069  0.53820  1.0000
  O   O4        1.0  0.89438  0.38931  0.96180  1.0000
