data_image0
_chemical_formula_structural       K4Ni2H24C20O32
_chemical_formula_sum              "K4 Ni2 H24 C20 O32"
_cell_length_a       6.67017
_cell_length_b       8.13057
_cell_length_c       16.0568
_cell_angle_alpha    90.2712
_cell_angle_beta     90.0006
_cell_angle_gamma    89.9859

_space_group_name_H-M_alt    "P 1"
_space_group_IT_number       1

loop_
  _space_group_symop_operation_xyz
  'x, y, z'

loop_
  _atom_site_type_symbol
  _atom_site_label
  _atom_site_symmetry_multiplicity
  _atom_site_fract_x
  _atom_site_fract_y
  _atom_site_fract_z
  _atom_site_occupancy
  K   K1        1.0  0.00226  0.36119  0.29299  1.0000
  K   K2        1.0  0.50212  0.13892  0.20710  1.0000
  K   K3        1.0  0.99773  0.63883  0.70701  1.0000
  K   K4        1.0  0.49787  0.86107  0.79290  1.0000
  Ni  Ni1       1.0  0.99999  0.50000  0.50000  1.0000
  Ni  Ni2       1.0  0.50001  0.00000  1.00000  1.0000
  H   H1        1.0  0.72408  0.70322  0.46656  1.0000
  H   H2        1.0  0.22413  0.79646  0.03343  1.0000
  H   H3        1.0  0.27591  0.29679  0.53344  1.0000
  H   H4        1.0  0.77589  0.20354  0.96657  1.0000
  H   H5        1.0  0.67598  0.53038  0.41937  1.0000
  H   H6        1.0  0.17586  0.96926  0.08059  1.0000
  H   H7        1.0  0.32401  0.46962  0.58063  1.0000
  H   H8        1.0  0.82416  0.03074  0.91940  1.0000
  H   H9        1.0  0.50952  0.47307  0.29369  1.0000
  H   H10       1.0  0.00954  0.02682  0.20633  1.0000
  H   H11       1.0  0.49049  0.52692  0.70631  1.0000
  H   H12       1.0  0.99047  0.97318  0.79366  1.0000
  H   H13       1.0  0.50138  0.34044  0.36468  1.0000
  H   H14       1.0  0.00134  0.15939  0.13532  1.0000
  H   H15       1.0  0.49863  0.65955  0.63532  1.0000
  H   H16       1.0  0.99867  0.84061  0.86468  1.0000
  H   H17       1.0  0.80741  0.96686  0.34219  1.0000
  H   H18       1.0  0.30736  0.53318  0.15782  1.0000
  H   H19       1.0  0.19258  0.03314  0.65781  1.0000
  H   H20       1.0  0.69265  0.46681  0.84218  1.0000
  H   H21       1.0  0.80578  0.85608  0.26134  1.0000
  H   H22       1.0  0.30552  0.64366  0.23877  1.0000
  H   H23       1.0  0.19422  0.14393  0.73866  1.0000
  H   H24       1.0  0.69447  0.35633  0.76122  1.0000
  C   C1        1.0  0.29619  0.02306  0.40065  1.0000
  C   C2        1.0  0.79618  0.47709  0.09932  1.0000
  C   C3        1.0  0.70380  0.97693  0.59935  1.0000
  C   C4        1.0  0.20382  0.52293  0.90070  1.0000
  C   C5        1.0  0.25117  0.99388  0.48940  1.0000
  C   C6        1.0  0.75096  0.50661  0.01057  1.0000
  C   C7        1.0  0.74882  0.00611  0.51059  1.0000
  C   C8        1.0  0.24904  0.49340  0.98942  1.0000
  C   C9        1.0  0.26979  0.86502  0.35455  1.0000
  C   C10       1.0  0.76992  0.63494  0.14558  1.0000
  C   C11       1.0  0.73020  0.13496  0.64546  1.0000
  C   C12       1.0  0.23009  0.36506  0.85442  1.0000
  C   C13       1.0  0.17437  0.82601  0.49601  1.0000
  C   C14       1.0  0.67413  0.67449  0.00422  1.0000
  C   C15       1.0  0.82562  0.17399  0.50399  1.0000
  C   C16       1.0  0.32588  0.32551  0.99578  1.0000
  C   C17       1.0  0.18279  0.74904  0.41396  1.0000
  C   C18       1.0  0.68286  0.75123  0.08630  1.0000
  C   C19       1.0  0.81721  0.25096  0.58604  1.0000
  C   C20       1.0  0.31716  0.24879  0.91370  1.0000
  O   O1        1.0  0.34482  0.15646  0.36772  1.0000
  O   O2        1.0  0.84487  0.34356  0.13211  1.0000
  O   O3        1.0  0.65517  0.84353  0.63228  1.0000
  O   O4        1.0  0.15511  0.65645  0.86789  1.0000
  O   O5        1.0  0.26750  0.09447  0.54908  1.0000
  O   O6        1.0  0.76727  0.40617  0.95083  1.0000
  O   O7        1.0  0.73247  0.90552  0.45092  1.0000
  O   O8        1.0  0.23274  0.59383  0.04917  1.0000
  O   O9        1.0  0.31193  0.84184  0.27955  1.0000
  O   O10       1.0  0.81224  0.65782  0.22060  1.0000
  O   O11       1.0  0.68804  0.15814  0.72045  1.0000
  O   O12       1.0  0.18776  0.34220  0.77940  1.0000
  O   O13       1.0  0.10246  0.75692  0.55921  1.0000
  O   O14       1.0  0.60191  0.74411  0.94119  1.0000
  O   O15       1.0  0.89752  0.24308  0.44079  1.0000
  O   O16       1.0  0.39811  0.25588  0.05881  1.0000
  O   O17       1.0  0.11644  0.60544  0.39959  1.0000
  O   O18       1.0  0.61668  0.89488  0.10072  1.0000
  O   O19       1.0  0.88355  0.39455  0.60041  1.0000
  O   O20       1.0  0.38333  0.10514  0.89928  1.0000
  O   O21       1.0  0.73086  0.58045  0.47212  1.0000
  O   O22       1.0  0.23074  0.91920  0.02784  1.0000
  O   O23       1.0  0.26913  0.41955  0.52788  1.0000
  O   O24       1.0  0.76929  0.08080  0.97215  1.0000
  O   O25       1.0  0.59125  0.42073  0.33799  1.0000
  O   O26       1.0  0.09127  0.07919  0.16202  1.0000
  O   O27       1.0  0.40876  0.57926  0.66201  1.0000
  O   O28       1.0  0.90874  0.92081  0.83797  1.0000
  O   O29       1.0  0.82283  0.97188  0.28100  1.0000
  O   O30       1.0  0.32272  0.52793  0.21899  1.0000
  O   O31       1.0  0.17717  0.02813  0.71900  1.0000
  O   O32       1.0  0.67729  0.47207  0.78101  1.0000
