data_image0
_chemical_formula_structural       K2P2H24Pt2C4N4Cl4O8
_chemical_formula_sum              "K2 P2 H24 Pt2 C4 N4 Cl4 O8"
_cell_length_a       7.94201
_cell_length_b       8.67595
_cell_length_c       8.77673
_cell_angle_alpha    84.0412
_cell_angle_beta     67.8413
_cell_angle_gamma    85.6916

_space_group_name_H-M_alt    "P 1"
_space_group_IT_number       1

loop_
  _space_group_symop_operation_xyz
  'x, y, z'

loop_
  _atom_site_type_symbol
  _atom_site_label
  _atom_site_symmetry_multiplicity
  _atom_site_fract_x
  _atom_site_fract_y
  _atom_site_fract_z
  _atom_site_occupancy
  K   K1        1.0  0.57236  0.78371  0.43235  1.0000
  K   K2        1.0  0.42765  0.21628  0.56764  1.0000
  P   P1        1.0  0.80705  0.21301  0.74536  1.0000
  P   P2        1.0  0.19293  0.78699  0.25464  1.0000
  H   H1        1.0  0.77453  0.45359  0.59622  1.0000
  H   H2        1.0  0.22547  0.54641  0.40378  1.0000
  H   H3        1.0  0.59253  0.43426  0.79242  1.0000
  H   H4        1.0  0.40747  0.56574  0.20758  1.0000
  H   H5        1.0  0.58028  0.18831  0.02346  1.0000
  H   H6        1.0  0.41972  0.81169  0.97654  1.0000
  H   H7        1.0  0.75078  0.03550  0.98622  1.0000
  H   H8        1.0  0.24922  0.96450  0.01378  1.0000
  H   H9        1.0  0.97375  0.49917  0.74054  1.0000
  H   H10       1.0  0.02625  0.50083  0.25946  1.0000
  H   H11       1.0  0.80416  0.63110  0.76859  1.0000
  H   H12       1.0  0.19584  0.36890  0.23141  1.0000
  H   H13       1.0  0.86759  0.97356  0.31932  1.0000
  H   H14       1.0  0.13241  0.02644  0.68068  1.0000
  H   H15       1.0  0.96473  0.22985  0.98269  1.0000
  H   H16       1.0  0.03527  0.77015  0.01731  1.0000
  H   H17       1.0  0.79887  0.19803  0.16400  1.0000
  H   H18       1.0  0.20113  0.80196  0.83600  1.0000
  H   H19       1.0  0.86001  0.79959  0.53388  1.0000
  H   H20       1.0  0.13998  0.20041  0.46612  1.0000
  H   H21       1.0  0.74295  0.90709  0.67329  1.0000
  H   H22       1.0  0.25704  0.09291  0.32671  1.0000
  H   H23       1.0  0.77925  0.09782  0.44653  1.0000
  H   H24       1.0  0.22076  0.90218  0.55348  1.0000
  Pt  Pt1       1.0  0.77872  0.48370  0.04740  1.0000
  Pt  Pt2       1.0  0.22128  0.51629  0.95260  1.0000
  C   C1        1.0  0.74063  0.41786  0.72831  1.0000
  C   C2        1.0  0.25938  0.58214  0.27169  1.0000
  C   C3        1.0  0.72712  0.16167  0.96727  1.0000
  C   C4        1.0  0.27289  0.83834  0.03273  1.0000
  N   N1        1.0  0.83454  0.51521  0.79798  1.0000
  N   N2        1.0  0.16546  0.48479  0.20202  1.0000
  N   N3        1.0  0.82595  0.24671  0.04374  1.0000
  N   N4        1.0  0.17405  0.75328  0.95626  1.0000
  Cl  Cl1       1.0  0.72975  0.75146  0.05240  1.0000
  Cl  Cl2       1.0  0.27026  0.24853  0.94760  1.0000
  Cl  Cl3       1.0  0.71905  0.45268  0.32980  1.0000
  Cl  Cl4       1.0  0.28095  0.54732  0.67020  1.0000
  O   O1        1.0  0.71104  0.12003  0.66657  1.0000
  O   O2        1.0  0.28897  0.87998  0.33343  1.0000
  O   O3        1.0  0.01512  0.20006  0.67891  1.0000
  O   O4        1.0  0.98489  0.79995  0.32109  1.0000
  O   O5        1.0  0.75908  0.79845  0.64374  1.0000
  O   O6        1.0  0.24092  0.20154  0.35626  1.0000
  O   O7        1.0  0.77389  0.06043  0.34562  1.0000
  O   O8        1.0  0.22611  0.93958  0.65439  1.0000
