data_image0
_chemical_formula_structural       K4H12C16S4N8O8
_chemical_formula_sum              "K4 H12 C16 S4 N8 O8"
_cell_length_a       3.8574
_cell_length_b       11.2084
_cell_length_c       14.5187
_cell_angle_alpha    97.5866
_cell_angle_beta     90.0001
_cell_angle_gamma    90.0001

_space_group_name_H-M_alt    "P 1"
_space_group_IT_number       1

loop_
  _space_group_symop_operation_xyz
  'x, y, z'

loop_
  _atom_site_type_symbol
  _atom_site_label
  _atom_site_symmetry_multiplicity
  _atom_site_fract_x
  _atom_site_fract_y
  _atom_site_fract_z
  _atom_site_occupancy
  K   K1        1.0  0.05636  0.00000  0.25000  1.0000
  K   K2        1.0  0.94364  0.00000  0.75000  1.0000
  K   K3        1.0  0.60826  0.50000  0.25000  1.0000
  K   K4        1.0  0.39174  0.50000  0.75000  1.0000
  H   H1        1.0  0.65013  0.07786  0.05130  1.0000
  H   H2        1.0  0.65013  0.92214  0.44870  1.0000
  H   H3        1.0  0.34987  0.92214  0.94870  1.0000
  H   H4        1.0  0.34987  0.07786  0.55130  1.0000
  H   H5        1.0  0.50430  0.24553  0.80935  1.0000
  H   H6        1.0  0.50430  0.75447  0.69065  1.0000
  H   H7        1.0  0.49569  0.75447  0.19065  1.0000
  H   H8        1.0  0.49570  0.24553  0.30935  1.0000
  H   H9        1.0  0.00751  0.42344  0.04902  1.0000
  H   H10       1.0  0.00751  0.57656  0.45098  1.0000
  H   H11       1.0  0.99249  0.57656  0.95098  1.0000
  H   H12       1.0  0.99249  0.42344  0.54902  1.0000
  C   C1        1.0  0.60764  0.24678  0.87930  1.0000
  C   C2        1.0  0.60764  0.75322  0.62070  1.0000
  C   C3        1.0  0.39236  0.75322  0.12070  1.0000
  C   C4        1.0  0.39236  0.24678  0.37930  1.0000
  C   C5        1.0  0.85040  0.25027  0.06171  1.0000
  C   C6        1.0  0.85041  0.74973  0.43829  1.0000
  C   C7        1.0  0.14960  0.74973  0.93829  1.0000
  C   C8        1.0  0.14960  0.25027  0.56171  1.0000
  C   C9        1.0  0.56436  0.14493  0.92495  1.0000
  C   C10       1.0  0.56437  0.85506  0.57505  1.0000
  C   C11       1.0  0.43564  0.85507  0.07505  1.0000
  C   C12       1.0  0.43564  0.14493  0.42495  1.0000
  C   C13       1.0  0.77430  0.35040  0.92344  1.0000
  C   C14       1.0  0.77430  0.64960  0.57656  1.0000
  C   C15       1.0  0.22570  0.64960  0.07656  1.0000
  C   C16       1.0  0.22570  0.35040  0.42344  1.0000
  S   S1        1.0  0.99806  0.25476  0.17140  1.0000
  S   S2        1.0  0.99806  0.74525  0.32860  1.0000
  S   S3        1.0  0.00195  0.74524  0.82860  1.0000
  S   S4        1.0  0.00194  0.25476  0.67140  1.0000
  N   N1        1.0  0.88858  0.34619  0.01441  1.0000
  N   N2        1.0  0.88859  0.65382  0.48559  1.0000
  N   N3        1.0  0.11141  0.65382  0.98559  1.0000
  N   N4        1.0  0.11142  0.34619  0.51441  1.0000
  N   N5        1.0  0.69086  0.15209  0.01588  1.0000
  N   N6        1.0  0.69087  0.84791  0.48412  1.0000
  N   N7        1.0  0.30913  0.84791  0.98412  1.0000
  N   N8        1.0  0.30913  0.15209  0.51588  1.0000
  O   O1        1.0  0.42461  0.04616  0.88929  1.0000
  O   O2        1.0  0.42461  0.95384  0.61071  1.0000
  O   O3        1.0  0.57539  0.95384  0.11071  1.0000
  O   O4        1.0  0.57539  0.04616  0.38929  1.0000
  O   O5        1.0  0.82818  0.44696  0.88808  1.0000
  O   O6        1.0  0.82818  0.55304  0.61192  1.0000
  O   O7        1.0  0.17182  0.55304  0.11192  1.0000
  O   O8        1.0  0.17182  0.44696  0.38808  1.0000
