data_image0
_chemical_formula_structural       Ag2H28C38N14O6
_chemical_formula_sum              "Ag2 H28 C38 N14 O6"
_cell_length_a       9.04624
_cell_length_b       9.94811
_cell_length_c       11.6695
_cell_angle_alpha    90.2888
_cell_angle_beta     87.6392
_cell_angle_gamma    82.9379

_space_group_name_H-M_alt    "P 1"
_space_group_IT_number       1

loop_
  _space_group_symop_operation_xyz
  'x, y, z'

loop_
  _atom_site_type_symbol
  _atom_site_label
  _atom_site_symmetry_multiplicity
  _atom_site_fract_x
  _atom_site_fract_y
  _atom_site_fract_z
  _atom_site_occupancy
  Ag  Ag1       1.0  0.24560  0.30360  0.81910  1.0000
  Ag  Ag2       1.0  0.75439  0.69640  0.18090  1.0000
  H   H1        1.0  0.35321  0.11354  0.55422  1.0000
  H   H2        1.0  0.64679  0.88645  0.44578  1.0000
  H   H3        1.0  0.39497  0.88466  0.45174  1.0000
  H   H4        1.0  0.60503  0.11533  0.54826  1.0000
  H   H5        1.0  0.21596  0.72323  0.47362  1.0000
  H   H6        1.0  0.78404  0.27676  0.52639  1.0000
  H   H7        1.0  0.98514  0.77110  0.60024  1.0000
  H   H8        1.0  0.01486  0.22890  0.39976  1.0000
  H   H9        1.0  0.70387  0.06991  0.74001  1.0000
  H   H10       1.0  0.29613  0.93009  0.25999  1.0000
  H   H11       1.0  0.78177  0.89706  0.71829  1.0000
  H   H12       1.0  0.21824  0.10294  0.28171  1.0000
  H   H13       1.0  0.68769  0.26039  0.87632  1.0000
  H   H14       1.0  0.31230  0.73960  0.12367  1.0000
  H   H15       1.0  0.54923  0.37806  0.04624  1.0000
  H   H16       1.0  0.45075  0.62193  0.95376  1.0000
  H   H17       1.0  0.49587  0.25443  0.22134  1.0000
  H   H18       1.0  0.50415  0.74556  0.77867  1.0000
  H   H19       1.0  0.57646  0.00324  0.23517  1.0000
  H   H20       1.0  0.42359  0.99675  0.76485  1.0000
  H   H21       1.0  0.08341  0.83064  0.85895  1.0000
  H   H22       1.0  0.91656  0.16938  0.14101  1.0000
  H   H23       1.0  0.24205  0.61843  0.79525  1.0000
  H   H24       1.0  0.75794  0.38158  0.20473  1.0000
  H   H25       1.0  0.89582  0.38783  0.85294  1.0000
  H   H26       1.0  0.10417  0.61217  0.14707  1.0000
  H   H27       1.0  0.72079  0.59015  0.92003  1.0000
  H   H28       1.0  0.27922  0.40986  0.07998  1.0000
  C   C1        1.0  0.14553  0.06633  0.63415  1.0000
  C   C2        1.0  0.85447  0.93368  0.36584  1.0000
  C   C3        1.0  0.27499  0.03880  0.56327  1.0000
  C   C4        1.0  0.72501  0.96120  0.43674  1.0000
  C   C5        1.0  0.29713  0.91344  0.50835  1.0000
  C   C6        1.0  0.70287  0.08655  0.49165  1.0000
  C   C7        1.0  0.19329  0.81830  0.52183  1.0000
  C   C8        1.0  0.80671  0.18169  0.47818  1.0000
  C   C9        1.0  0.06441  0.84483  0.59128  1.0000
  C   C10       1.0  0.93559  0.15518  0.40873  1.0000
  C   C11       1.0  0.04294  0.97078  0.64791  1.0000
  C   C12       1.0  0.95707  0.02922  0.35210  1.0000
  C   C13       1.0  0.79433  0.99185  0.76293  1.0000
  C   C14       1.0  0.20567  0.00816  0.23707  1.0000
  C   C15       1.0  0.70484  0.06655  0.96250  1.0000
  C   C16       1.0  0.29516  0.93345  0.03750  1.0000
  C   C17       1.0  0.66034  0.20509  0.95296  1.0000
  C   C18       1.0  0.33967  0.79490  0.04705  1.0000
  C   C19       1.0  0.58390  0.26932  0.04811  1.0000
  C   C20       1.0  0.41609  0.73067  0.95190  1.0000
  C   C21       1.0  0.55352  0.19799  0.14882  1.0000
  C   C22       1.0  0.44650  0.80200  0.85119  1.0000
  C   C23       1.0  0.59852  0.05950  0.15778  1.0000
  C   C24       1.0  0.40151  0.94049  0.84223  1.0000
  C   C25       1.0  0.67551  0.99347  0.06281  1.0000
  C   C26       1.0  0.32451  0.00653  0.93720  1.0000
  C   C27       1.0  0.79735  0.84874  0.94189  1.0000
  C   C28       1.0  0.20265  0.15126  0.05811  1.0000
  C   C29       1.0  0.88828  0.72738  0.89497  1.0000
  C   C30       1.0  0.11171  0.27263  0.10502  1.0000
  C   C31       1.0  0.03619  0.73510  0.85738  1.0000
  C   C32       1.0  0.96379  0.26491  0.14259  1.0000
  C   C33       1.0  0.12578  0.61693  0.82309  1.0000
  C   C34       1.0  0.87420  0.38308  0.17688  1.0000
  C   C35       1.0  0.93269  0.48791  0.85701  1.0000
  C   C36       1.0  0.06730  0.51209  0.14299  1.0000
  C   C37       1.0  0.83549  0.60072  0.89351  1.0000
  C   C38       1.0  0.16450  0.39929  0.10649  1.0000
  N   N1        1.0  0.73455  0.85854  0.04677  1.0000
  N   N2        1.0  0.26547  0.14146  0.95323  1.0000
  N   N3        1.0  0.78178  0.97204  0.88602  1.0000
  N   N4        1.0  0.21822  0.02796  0.11398  1.0000
  N   N5        1.0  0.07621  0.49500  0.82434  1.0000
  N   N6        1.0  0.92378  0.50501  0.17566  1.0000
  N   N7        1.0  0.93485  0.03412  0.72255  1.0000
  N   N8        1.0  0.06515  0.96589  0.27745  1.0000
  N   N9        1.0  0.96713  0.15978  0.75152  1.0000
  N   N10       1.0  0.03287  0.84023  0.24848  1.0000
  N   N11       1.0  0.09312  0.17928  0.69974  1.0000
  N   N12       1.0  0.90689  0.82072  0.30027  1.0000
  N   N13       1.0  0.53944  0.36660  0.72445  1.0000
  N   N14       1.0  0.46056  0.63340  0.27555  1.0000
  O   O1        1.0  0.48792  0.25535  0.70016  1.0000
  O   O2        1.0  0.51208  0.74464  0.29985  1.0000
  O   O3        1.0  0.45868  0.45390  0.78772  1.0000
  O   O4        1.0  0.54131  0.54610  0.21228  1.0000
  O   O5        1.0  0.66750  0.38666  0.68912  1.0000
  O   O6        1.0  0.33249  0.61334  0.31088  1.0000
