data_image0
_chemical_formula_structural       Cd2H28C38N16O12
_chemical_formula_sum              "Cd2 H28 C38 N16 O12"
_cell_length_a       9.6839
_cell_length_b       9.75558
_cell_length_c       11.1679
_cell_angle_alpha    80.4041
_cell_angle_beta     88.5902
_cell_angle_gamma    89.2748

_space_group_name_H-M_alt    "P 1"
_space_group_IT_number       1

loop_
  _space_group_symop_operation_xyz
  'x, y, z'

loop_
  _atom_site_type_symbol
  _atom_site_label
  _atom_site_symmetry_multiplicity
  _atom_site_fract_x
  _atom_site_fract_y
  _atom_site_fract_z
  _atom_site_occupancy
  Cd  Cd1       1.0  0.70312  0.86979  0.25788  1.0000
  Cd  Cd2       1.0  0.29688  0.13021  0.74212  1.0000
  H   H1        1.0  0.37322  0.86769  0.26635  1.0000
  H   H2        1.0  0.62678  0.13231  0.73365  1.0000
  H   H3        1.0  0.05576  0.42586  0.24309  1.0000
  H   H4        1.0  0.94424  0.57414  0.75691  1.0000
  H   H5        1.0  0.16625  0.28006  0.22809  1.0000
  H   H6        1.0  0.83375  0.71994  0.77191  1.0000
  H   H7        1.0  0.80924  0.42373  0.37142  1.0000
  H   H8        1.0  0.19076  0.57627  0.62858  1.0000
  H   H9        1.0  0.44999  0.27667  0.46038  1.0000
  H   H10       1.0  0.55001  0.72333  0.53962  1.0000
  H   H11       1.0  0.16804  0.98469  0.34620  1.0000
  H   H12       1.0  0.83196  0.01531  0.65380  1.0000
  H   H13       1.0  0.64153  0.15201  0.37094  1.0000
  H   H14       1.0  0.35846  0.84799  0.62906  1.0000
  H   H15       1.0  0.67200  0.45517  0.55815  1.0000
  H   H16       1.0  0.32800  0.54484  0.44185  1.0000
  H   H17       1.0  0.75884  0.37049  0.76181  1.0000
  H   H18       1.0  0.24116  0.62952  0.23818  1.0000
  H   H19       1.0  0.98809  0.24897  0.79175  1.0000
  H   H20       1.0  0.01191  0.75103  0.20825  1.0000
  H   H21       1.0  0.59083  0.12913  0.03560  1.0000
  H   H22       1.0  0.40917  0.87087  0.96440  1.0000
  H   H23       1.0  0.90482  0.52843  0.07988  1.0000
  H   H24       1.0  0.09517  0.47157  0.92012  1.0000
  H   H25       1.0  0.70423  0.56163  0.94405  1.0000
  H   H26       1.0  0.29577  0.43838  0.05595  1.0000
  H   H27       1.0  0.55015  0.36754  0.92349  1.0000
  H   H28       1.0  0.44985  0.63246  0.07651  1.0000
  C   C1        1.0  0.86124  0.30650  0.13340  1.0000
  C   C2        1.0  0.13875  0.69350  0.86661  1.0000
  C   C3        1.0  0.84030  0.44098  0.06932  1.0000
  C   C4        1.0  0.15969  0.55902  0.93068  1.0000
  C   C5        1.0  0.72729  0.45834  0.99395  1.0000
  C   C6        1.0  0.27271  0.54167  0.00605  1.0000
  C   C7        1.0  0.63878  0.34712  0.98218  1.0000
  C   C8        1.0  0.36122  0.65288  0.01783  1.0000
  C   C9        1.0  0.66020  0.21364  0.04439  1.0000
  C   C10       1.0  0.33980  0.78636  0.95561  1.0000
  C   C11       1.0  0.77399  0.19486  0.12097  1.0000
  C   C12       1.0  0.22601  0.80514  0.87904  1.0000
  C   C13       1.0  0.06920  0.31285  0.26826  1.0000
  C   C14       1.0  0.93080  0.68715  0.73174  1.0000
  C   C15       1.0  0.97362  0.31514  0.48025  1.0000
  C   C16       1.0  0.02638  0.68486  0.51975  1.0000
  C   C17       1.0  0.84776  0.38549  0.46181  1.0000
  C   C18       1.0  0.15224  0.61451  0.53819  1.0000
  C   C19       1.0  0.77301  0.40453  0.56611  1.0000
  C   C20       1.0  0.22699  0.59547  0.43389  1.0000
  C   C21       1.0  0.82289  0.35561  0.68327  1.0000
  C   C22       1.0  0.17711  0.64439  0.31673  1.0000
  C   C23       1.0  0.94968  0.28673  0.70112  1.0000
  C   C24       1.0  0.05032  0.71327  0.29888  1.0000
  C   C25       1.0  0.02549  0.26684  0.59695  1.0000
  C   C26       1.0  0.97451  0.73316  0.40305  1.0000
  C   C27       1.0  0.17580  0.20607  0.46572  1.0000
  C   C28       1.0  0.82420  0.79393  0.53428  1.0000
  C   C29       1.0  0.29344  0.13922  0.41142  1.0000
  C   C30       1.0  0.70656  0.86078  0.58858  1.0000
  C   C31       1.0  0.42820  0.18691  0.41795  1.0000
  C   C32       1.0  0.57179  0.81309  0.58205  1.0000
  C   C33       1.0  0.53540  0.11694  0.36820  1.0000
  C   C34       1.0  0.46459  0.88306  0.63180  1.0000
  C   C35       1.0  0.38528  0.95950  0.30868  1.0000
  C   C36       1.0  0.61472  0.04050  0.69132  1.0000
  C   C37       1.0  0.27158  0.02403  0.35452  1.0000
  C   C38       1.0  0.72842  0.97596  0.64548  1.0000
  N   N1        1.0  0.73045  0.82924  0.00186  1.0000
  N   N2        1.0  0.26955  0.17076  0.99814  1.0000
  N   N3        1.0  0.60045  0.58556  0.29433  1.0000
  N   N4        1.0  0.39955  0.41444  0.70567  1.0000
  N   N5        1.0  0.82061  0.07958  0.19841  1.0000
  N   N6        1.0  0.17939  0.92042  0.80159  1.0000
  N   N7        1.0  0.92846  0.11190  0.25602  1.0000
  N   N8        1.0  0.07154  0.88810  0.74398  1.0000
  N   N9        1.0  0.95400  0.24794  0.21854  1.0000
  N   N10       1.0  0.04600  0.75206  0.78146  1.0000
  N   N11       1.0  0.07148  0.27565  0.39890  1.0000
  N   N12       1.0  0.92852  0.72435  0.60110  1.0000
  N   N13       1.0  0.15224  0.20091  0.58418  1.0000
  N   N14       1.0  0.84776  0.79909  0.41582  1.0000
  N   N15       1.0  0.51515  0.00425  0.31617  1.0000
  N   N16       1.0  0.48486  0.99575  0.68383  1.0000
  O   O1        1.0  0.55095  0.46645  0.30744  1.0000
  O   O2        1.0  0.44905  0.53355  0.69256  1.0000
  O   O3        1.0  0.72142  0.61152  0.24889  1.0000
  O   O4        1.0  0.27858  0.38847  0.75111  1.0000
  O   O5        1.0  0.53059  0.68694  0.32688  1.0000
  O   O6        1.0  0.46941  0.31307  0.67312  1.0000
  O   O7        1.0  0.84860  0.81637  0.04741  1.0000
  O   O8        1.0  0.15140  0.18363  0.95259  1.0000
  O   O9        1.0  0.62748  0.86867  0.06514  1.0000
  O   O10       1.0  0.37252  0.13133  0.93486  1.0000
  O   O11       1.0  0.70731  0.80526  0.89752  1.0000
  O   O12       1.0  0.29269  0.19474  0.10248  1.0000
