data_image0
_chemical_formula_structural       Tb4H32C48N8O28
_chemical_formula_sum              "Tb4 H32 C48 N8 O28"
_cell_length_a       8.6127
_cell_length_b       11.7283
_cell_length_c       13.8186
_cell_angle_alpha    90
_cell_angle_beta     90
_cell_angle_gamma    91.2121

_space_group_name_H-M_alt    "P 1"
_space_group_IT_number       1

loop_
  _space_group_symop_operation_xyz
  'x, y, z'

loop_
  _atom_site_type_symbol
  _atom_site_label
  _atom_site_symmetry_multiplicity
  _atom_site_fract_x
  _atom_site_fract_y
  _atom_site_fract_z
  _atom_site_occupancy
  Tb  Tb1       1.0  0.26809  0.56577  0.63900  1.0000
  Tb  Tb2       1.0  0.73192  0.93424  0.13900  1.0000
  Tb  Tb3       1.0  0.73193  0.43424  0.36100  1.0000
  Tb  Tb4       1.0  0.26808  0.06577  0.86100  1.0000
  H   H1        1.0  0.83681  0.80148  0.52756  1.0000
  H   H2        1.0  0.16314  0.69850  0.02755  1.0000
  H   H3        1.0  0.16318  0.19850  0.47245  1.0000
  H   H4        1.0  0.83682  0.30150  0.97245  1.0000
  H   H5        1.0  0.64284  0.99758  0.82212  1.0000
  H   H6        1.0  0.35716  0.50242  0.32210  1.0000
  H   H7        1.0  0.35716  0.00243  0.17789  1.0000
  H   H8        1.0  0.64283  0.49757  0.67788  1.0000
  H   H9        1.0  0.67389  0.97252  0.51061  1.0000
  H   H10       1.0  0.32609  0.52748  0.01059  1.0000
  H   H11       1.0  0.32610  0.02747  0.48940  1.0000
  H   H12       1.0  0.67389  0.47254  0.98939  1.0000
  H   H13       1.0  0.90131  0.72751  0.69054  1.0000
  H   H14       1.0  0.09867  0.77248  0.19053  1.0000
  H   H15       1.0  0.09871  0.27250  0.30948  1.0000
  H   H16       1.0  0.90129  0.22750  0.80948  1.0000
  H   H17       1.0  0.80343  0.82576  0.83783  1.0000
  H   H18       1.0  0.19656  0.67423  0.33782  1.0000
  H   H19       1.0  0.19655  0.17424  0.16218  1.0000
  H   H20       1.0  0.80345  0.32577  0.66218  1.0000
  H   H21       1.0  0.63150  0.16747  0.52069  1.0000
  H   H22       1.0  0.36852  0.33253  0.02068  1.0000
  H   H23       1.0  0.36848  0.83253  0.47931  1.0000
  H   H24       1.0  0.63151  0.66747  0.97930  1.0000
  H   H25       1.0  0.06287  0.61408  0.82144  1.0000
  H   H26       1.0  0.93715  0.88592  0.32143  1.0000
  H   H27       1.0  0.93715  0.38592  0.17856  1.0000
  H   H28       1.0  0.06287  0.11409  0.67855  1.0000
  H   H29       1.0  0.01006  0.49905  0.77226  1.0000
  H   H30       1.0  0.98995  0.00094  0.27224  1.0000
  H   H31       1.0  0.98996  0.50094  0.22775  1.0000
  H   H32       1.0  0.01005  0.99907  0.72773  1.0000
  C   C1        1.0  0.30456  0.31137  0.75265  1.0000
  C   C2        1.0  0.69544  0.18863  0.25264  1.0000
  C   C3        1.0  0.69543  0.68863  0.24736  1.0000
  C   C4        1.0  0.30455  0.81137  0.74735  1.0000
  C   C5        1.0  0.55350  0.09845  0.65715  1.0000
  C   C6        1.0  0.44650  0.40154  0.15714  1.0000
  C   C7        1.0  0.44650  0.90155  0.34285  1.0000
  C   C8        1.0  0.55349  0.59845  0.84285  1.0000
  C   C9        1.0  0.40306  0.24207  0.68758  1.0000
  C   C10       1.0  0.59694  0.25792  0.18757  1.0000
  C   C11       1.0  0.59693  0.75792  0.31243  1.0000
  C   C12       1.0  0.40305  0.74208  0.81243  1.0000
  C   C13       1.0  0.46927  0.26320  0.59706  1.0000
  C   C14       1.0  0.53074  0.23680  0.09705  1.0000
  C   C15       1.0  0.53071  0.73681  0.40294  1.0000
  C   C16       1.0  0.46927  0.76320  0.90294  1.0000
  C   C17       1.0  0.45727  0.35179  0.52113  1.0000
  C   C18       1.0  0.54274  0.14822  0.02111  1.0000
  C   C19       1.0  0.54272  0.64822  0.47889  1.0000
  C   C20       1.0  0.45727  0.85179  0.97888  1.0000
  C   C21       1.0  0.64578  0.99612  0.66555  1.0000
  C   C22       1.0  0.35422  0.50388  0.16553  1.0000
  C   C23       1.0  0.35422  0.00389  0.33446  1.0000
  C   C24       1.0  0.64577  0.49612  0.83445  1.0000
  C   C25       1.0  0.79418  0.84499  0.59177  1.0000
  C   C26       1.0  0.20579  0.65500  0.09176  1.0000
  C   C27       1.0  0.20582  0.15501  0.40824  1.0000
  C   C28       1.0  0.79417  0.34500  0.90824  1.0000
  C   C29       1.0  0.68250  0.95326  0.75754  1.0000
  C   C30       1.0  0.31750  0.54673  0.25753  1.0000
  C   C31       1.0  0.31751  0.04674  0.24246  1.0000
  C   C32       1.0  0.68250  0.45327  0.74246  1.0000
  C   C33       1.0  0.70303  0.94123  0.58261  1.0000
  C   C34       1.0  0.29695  0.55877  0.08260  1.0000
  C   C35       1.0  0.29696  0.05877  0.41739  1.0000
  C   C36       1.0  0.70303  0.44124  0.91739  1.0000
  C   C37       1.0  0.82954  0.80241  0.68349  1.0000
  C   C38       1.0  0.17043  0.69758  0.18348  1.0000
  C   C39       1.0  0.17046  0.19760  0.31652  1.0000
  C   C40       1.0  0.82954  0.30241  0.81652  1.0000
  C   C41       1.0  0.77349  0.85688  0.76607  1.0000
  C   C42       1.0  0.22650  0.64311  0.26606  1.0000
  C   C43       1.0  0.22650  0.14313  0.23394  1.0000
  C   C44       1.0  0.77350  0.35688  0.73394  1.0000
  C   C45       1.0  0.98462  0.44344  0.52806  1.0000
  C   C46       1.0  0.01542  0.05658  0.02806  1.0000
  C   C47       1.0  0.01543  0.55657  0.47195  1.0000
  C   C48       1.0  0.98459  0.94344  0.97195  1.0000
  N   N1        1.0  0.56290  0.17168  0.58063  1.0000
  N   N2        1.0  0.43712  0.32832  0.08062  1.0000
  N   N3        1.0  0.43709  0.82832  0.41937  1.0000
  N   N4        1.0  0.56290  0.67168  0.91936  1.0000
  N   N5        1.0  0.45300  0.13893  0.72241  1.0000
  N   N6        1.0  0.54700  0.36107  0.22240  1.0000
  N   N7        1.0  0.54700  0.86107  0.27759  1.0000
  N   N8        1.0  0.45298  0.63893  0.77759  1.0000
  O   O1        1.0  0.23197  0.25790  0.81917  1.0000
  O   O2        1.0  0.76803  0.24210  0.31917  1.0000
  O   O3        1.0  0.76802  0.74209  0.18083  1.0000
  O   O4        1.0  0.23197  0.75791  0.68083  1.0000
  O   O5        1.0  0.30422  0.41870  0.74269  1.0000
  O   O6        1.0  0.69579  0.08131  0.24269  1.0000
  O   O7        1.0  0.69576  0.58130  0.25732  1.0000
  O   O8        1.0  0.30421  0.91870  0.75731  1.0000
  O   O9        1.0  0.36699  0.43402  0.53296  1.0000
  O   O10       1.0  0.63303  0.06597  0.03296  1.0000
  O   O11       1.0  0.63303  0.56597  0.46704  1.0000
  O   O12       1.0  0.36699  0.93403  0.96704  1.0000
  O   O13       1.0  0.54038  0.33563  0.44629  1.0000
  O   O14       1.0  0.45965  0.16437  0.94628  1.0000
  O   O15       1.0  0.45964  0.66438  0.55372  1.0000
  O   O16       1.0  0.54037  0.83562  0.05371  1.0000
  O   O17       1.0  0.06148  0.42901  0.60463  1.0000
  O   O18       1.0  0.93853  0.07100  0.10464  1.0000
  O   O19       1.0  0.93854  0.57099  0.39537  1.0000
  O   O20       1.0  0.06146  0.92902  0.89537  1.0000
  O   O21       1.0  0.05018  0.57621  0.75927  1.0000
  O   O22       1.0  0.94983  0.92378  0.25926  1.0000
  O   O23       1.0  0.94982  0.42379  0.24073  1.0000
  O   O24       1.0  0.05019  0.07622  0.74072  1.0000
  O   O25       1.0  0.88412  0.37451  0.49234  1.0000
  O   O26       1.0  0.11591  0.12549  0.99235  1.0000
  O   O27       1.0  0.11592  0.62548  0.50765  1.0000
  O   O28       1.0  0.88410  0.87453  0.00766  1.0000
