data_image0
_chemical_formula_structural       Sm4H32C48N8O28
_chemical_formula_sum              "Sm4 H32 C48 N8 O28"
_cell_length_a       8.99626
_cell_length_b       11.9023
_cell_length_c       13.547
_cell_angle_alpha    89.9966
_cell_angle_beta     90.0019
_cell_angle_gamma    89.086

_space_group_name_H-M_alt    "P 1"
_space_group_IT_number       1

loop_
  _space_group_symop_operation_xyz
  'x, y, z'

loop_
  _atom_site_type_symbol
  _atom_site_label
  _atom_site_symmetry_multiplicity
  _atom_site_fract_x
  _atom_site_fract_y
  _atom_site_fract_z
  _atom_site_occupancy
  Sm  Sm1       1.0  0.76370  0.56758  0.13690  1.0000
  Sm  Sm2       1.0  0.23632  0.93242  0.63690  1.0000
  Sm  Sm3       1.0  0.23630  0.43242  0.86309  1.0000
  Sm  Sm4       1.0  0.76368  0.06758  0.36309  1.0000
  H   H1        1.0  0.12792  0.16470  0.02694  1.0000
  H   H2        1.0  0.87209  0.33529  0.52696  1.0000
  H   H3        1.0  0.87210  0.83529  0.97305  1.0000
  H   H4        1.0  0.12789  0.66470  0.47306  1.0000
  H   H5        1.0  0.14799  0.96372  0.01651  1.0000
  H   H6        1.0  0.85201  0.53629  0.51652  1.0000
  H   H7        1.0  0.85205  0.03630  0.98348  1.0000
  H   H8        1.0  0.14796  0.46370  0.48349  1.0000
  H   H9        1.0  0.29982  0.78885  0.03481  1.0000
  H   H10       1.0  0.70021  0.71117  0.53482  1.0000
  H   H11       1.0  0.70023  0.21116  0.96518  1.0000
  H   H12       1.0  0.29980  0.28883  0.46519  1.0000
  H   H13       1.0  0.37194  0.72071  0.20132  1.0000
  H   H14       1.0  0.62810  0.77929  0.70134  1.0000
  H   H15       1.0  0.62807  0.27930  0.79867  1.0000
  H   H16       1.0  0.37191  0.22073  0.29868  1.0000
  H   H17       1.0  0.29629  0.83054  0.35083  1.0000
  H   H18       1.0  0.70375  0.66942  0.85085  1.0000
  H   H19       1.0  0.70370  0.16946  0.64915  1.0000
  H   H20       1.0  0.29625  0.33058  0.14916  1.0000
  H   H21       1.0  0.14415  0.00476  0.33354  1.0000
  H   H22       1.0  0.85588  0.49520  0.83355  1.0000
  H   H23       1.0  0.85584  0.99523  0.66645  1.0000
  H   H24       1.0  0.14410  0.50480  0.16647  1.0000
  H   H25       1.0  0.55218  0.51635  0.30476  1.0000
  H   H26       1.0  0.44779  0.98362  0.80480  1.0000
  H   H27       1.0  0.44784  0.48365  0.69524  1.0000
  H   H28       1.0  0.55218  0.01637  0.19523  1.0000
  H   H29       1.0  0.56619  0.64710  0.31907  1.0000
  H   H30       1.0  0.43381  0.85285  0.81904  1.0000
  H   H31       1.0  0.43382  0.35290  0.68095  1.0000
  H   H32       1.0  0.56617  0.14712  0.18095  1.0000
  C   C1        1.0  0.80196  0.31480  0.25645  1.0000
  C   C2        1.0  0.19808  0.18519  0.75647  1.0000
  C   C3        1.0  0.19805  0.68519  0.74354  1.0000
  C   C4        1.0  0.80193  0.81481  0.24353  1.0000
  C   C5        1.0  0.90173  0.24451  0.19284  1.0000
  C   C6        1.0  0.09830  0.25548  0.69285  1.0000
  C   C7        1.0  0.09828  0.75548  0.80715  1.0000
  C   C8        1.0  0.90169  0.74452  0.30715  1.0000
  C   C9        1.0  0.96957  0.26364  0.10209  1.0000
  C   C10       1.0  0.03044  0.23636  0.60211  1.0000
  C   C11       1.0  0.03045  0.73636  0.89790  1.0000
  C   C12       1.0  0.96954  0.76364  0.39790  1.0000
  C   C13       1.0  0.96425  0.35144  0.02481  1.0000
  C   C14       1.0  0.03574  0.14857  0.52482  1.0000
  C   C15       1.0  0.03575  0.64856  0.97519  1.0000
  C   C16       1.0  0.96426  0.85143  0.47518  1.0000
  C   C17       1.0  0.04713  0.09887  0.16433  1.0000
  C   C18       1.0  0.95290  0.40111  0.66435  1.0000
  C   C19       1.0  0.95288  0.90113  0.83565  1.0000
  C   C20       1.0  0.04709  0.59888  0.33567  1.0000
  C   C21       1.0  0.13438  0.99515  0.17413  1.0000
  C   C22       1.0  0.86565  0.50484  0.67414  1.0000
  C   C23       1.0  0.86564  0.00486  0.82586  1.0000
  C   C24       1.0  0.13433  0.49515  0.32587  1.0000
  C   C25       1.0  0.18096  0.93491  0.08994  1.0000
  C   C26       1.0  0.81906  0.56509  0.58995  1.0000
  C   C27       1.0  0.81907  0.06510  0.91005  1.0000
  C   C28       1.0  0.18093  0.43490  0.41006  1.0000
  C   C29       1.0  0.26574  0.83650  0.09998  1.0000
  C   C30       1.0  0.73429  0.66350  0.60000  1.0000
  C   C31       1.0  0.73430  0.16350  0.90001  1.0000
  C   C32       1.0  0.26570  0.33650  0.40001  1.0000
  C   C33       1.0  0.30580  0.79776  0.19385  1.0000
  C   C34       1.0  0.69424  0.70223  0.69386  1.0000
  C   C35       1.0  0.69422  0.20225  0.80614  1.0000
  C   C36       1.0  0.30576  0.29777  0.30615  1.0000
  C   C37       1.0  0.26175  0.85832  0.27757  1.0000
  C   C38       1.0  0.73829  0.64165  0.77759  1.0000
  C   C39       1.0  0.73826  0.14168  0.72241  1.0000
  C   C40       1.0  0.26170  0.35835  0.22242  1.0000
  C   C41       1.0  0.17619  0.95639  0.26822  1.0000
  C   C42       1.0  0.82384  0.54359  0.76823  1.0000
  C   C43       1.0  0.82382  0.04361  0.73177  1.0000
  C   C44       1.0  0.17614  0.45641  0.23178  1.0000
  C   C45       1.0  0.50864  0.55659  0.97160  1.0000
  C   C46       1.0  0.49135  0.94342  0.47160  1.0000
  C   C47       1.0  0.49133  0.44343  0.02841  1.0000
  C   C48       1.0  0.50865  0.05658  0.52839  1.0000
  N   N1        1.0  0.94816  0.14140  0.22892  1.0000
  N   N2        1.0  0.05187  0.35858  0.72893  1.0000
  N   N3        1.0  0.05184  0.85859  0.77106  1.0000
  N   N4        1.0  0.94813  0.64141  0.27107  1.0000
  N   N5        1.0  0.05973  0.17085  0.08681  1.0000
  N   N6        1.0  0.94027  0.32914  0.58683  1.0000
  N   N7        1.0  0.94028  0.82915  0.91318  1.0000
  N   N8        1.0  0.05970  0.67085  0.41319  1.0000
  O   O1        1.0  0.72582  0.26314  0.32047  1.0000
  O   O2        1.0  0.27418  0.23685  0.82051  1.0000
  O   O3        1.0  0.27419  0.73686  0.67952  1.0000
  O   O4        1.0  0.72583  0.76314  0.17948  1.0000
  O   O5        1.0  0.80277  0.42086  0.24763  1.0000
  O   O6        1.0  0.19732  0.07913  0.74764  1.0000
  O   O7        1.0  0.19724  0.57914  0.75236  1.0000
  O   O8        1.0  0.80269  0.92086  0.25237  1.0000
  O   O9        1.0  0.87176  0.43212  0.03110  1.0000
  O   O10       1.0  0.12821  0.06788  0.53111  1.0000
  O   O11       1.0  0.12823  0.56787  0.96890  1.0000
  O   O12       1.0  0.87179  0.93214  0.46889  1.0000
  O   O13       1.0  0.05573  0.33562  0.95428  1.0000
  O   O14       1.0  0.94424  0.16440  0.45429  1.0000
  O   O15       1.0  0.94426  0.66439  0.04571  1.0000
  O   O16       1.0  0.05575  0.83560  0.54571  1.0000
  O   O17       1.0  0.60205  0.62542  0.00623  1.0000
  O   O18       1.0  0.39796  0.87459  0.50624  1.0000
  O   O19       1.0  0.39793  0.37461  0.99378  1.0000
  O   O20       1.0  0.60204  0.12541  0.49375  1.0000
  O   O21       1.0  0.42946  0.57134  0.89582  1.0000
  O   O22       1.0  0.57051  0.92866  0.39582  1.0000
  O   O23       1.0  0.57051  0.42867  0.10419  1.0000
  O   O24       1.0  0.42948  0.07134  0.60417  1.0000
  O   O25       1.0  0.56214  0.58757  0.26990  1.0000
  O   O26       1.0  0.43791  0.91242  0.76990  1.0000
  O   O27       1.0  0.43787  0.41243  0.73011  1.0000
  O   O28       1.0  0.56207  0.08758  0.23011  1.0000
