data_image0
_chemical_formula_structural       Nd4H32C48N8O28
_chemical_formula_sum              "Nd4 H32 C48 N8 O28"
_cell_length_a       8.97713
_cell_length_b       11.9232
_cell_length_c       13.8933
_cell_angle_alpha    90
_cell_angle_beta     90
_cell_angle_gamma    90.7722

_space_group_name_H-M_alt    "P 1"
_space_group_IT_number       1

loop_
  _space_group_symop_operation_xyz
  'x, y, z'

loop_
  _atom_site_type_symbol
  _atom_site_label
  _atom_site_symmetry_multiplicity
  _atom_site_fract_x
  _atom_site_fract_y
  _atom_site_fract_z
  _atom_site_occupancy
  Nd  Nd1       1.0  0.73123  0.93716  0.86246  1.0000
  Nd  Nd2       1.0  0.26879  0.56284  0.36246  1.0000
  Nd  Nd3       1.0  0.26875  0.06283  0.13753  1.0000
  Nd  Nd4       1.0  0.73127  0.43717  0.63753  1.0000
  H   H1        1.0  0.63160  0.66286  0.02686  1.0000
  H   H2        1.0  0.36841  0.83712  0.52686  1.0000
  H   H3        1.0  0.36840  0.33714  0.97314  1.0000
  H   H4        1.0  0.63159  0.16286  0.47314  1.0000
  H   H5        1.0  0.64694  0.50287  0.32755  1.0000
  H   H6        1.0  0.35306  0.99712  0.82755  1.0000
  H   H7        1.0  0.35308  0.49714  0.67245  1.0000
  H   H8        1.0  0.64690  0.00285  0.17245  1.0000
  H   H9        1.0  0.80155  0.33357  0.34455  1.0000
  H   H10       1.0  0.19846  0.16643  0.84455  1.0000
  H   H11       1.0  0.19847  0.66645  0.65545  1.0000
  H   H12       1.0  0.80153  0.83355  0.15546  1.0000
  H   H13       1.0  0.88594  0.22961  0.19854  1.0000
  H   H14       1.0  0.11406  0.27038  0.69854  1.0000
  H   H15       1.0  0.11406  0.77039  0.80147  1.0000
  H   H16       1.0  0.88595  0.72962  0.30148  1.0000
  H   H17       1.0  0.81405  0.29633  0.03599  1.0000
  H   H18       1.0  0.18595  0.20366  0.53599  1.0000
  H   H19       1.0  0.18595  0.70367  0.96402  1.0000
  H   H20       1.0  0.81404  0.79634  0.46403  1.0000
  H   H21       1.0  0.65839  0.46535  0.01814  1.0000
  H   H22       1.0  0.34161  0.03464  0.51814  1.0000
  H   H23       1.0  0.34161  0.53465  0.98186  1.0000
  H   H24       1.0  0.65836  0.96535  0.48186  1.0000
  H   H25       1.0  0.93766  0.87524  0.68005  1.0000
  H   H26       1.0  0.06234  0.62477  0.18006  1.0000
  H   H27       1.0  0.06235  0.12477  0.31995  1.0000
  H   H28       1.0  0.93765  0.37524  0.81995  1.0000
  H   H29       1.0  0.97157  0.00046  0.70874  1.0000
  H   H30       1.0  0.02843  0.49956  0.20875  1.0000
  H   H31       1.0  0.02844  0.99955  0.29126  1.0000
  H   H32       1.0  0.97157  0.50045  0.79126  1.0000
  C   C1        1.0  0.68149  0.45658  0.26373  1.0000
  C   C2        1.0  0.31852  0.04341  0.76373  1.0000
  C   C3        1.0  0.31853  0.54343  0.73628  1.0000
  C   C4        1.0  0.68145  0.95657  0.23628  1.0000
  C   C5        1.0  0.76883  0.36137  0.27298  1.0000
  C   C6        1.0  0.23117  0.13862  0.77298  1.0000
  C   C7        1.0  0.23119  0.63864  0.72703  1.0000
  C   C8        1.0  0.76881  0.86136  0.22704  1.0000
  C   C9        1.0  0.81731  0.30385  0.19124  1.0000
  C   C10       1.0  0.18270  0.19614  0.69124  1.0000
  C   C11       1.0  0.18269  0.69615  0.80876  1.0000
  C   C12       1.0  0.81730  0.80385  0.30877  1.0000
  C   C13       1.0  0.77791  0.34203  0.09966  1.0000
  C   C14       1.0  0.22209  0.15796  0.59966  1.0000
  C   C15       1.0  0.22209  0.65798  0.90034  1.0000
  C   C16       1.0  0.77790  0.84203  0.40035  1.0000
  C   C17       1.0  0.69096  0.43738  0.08986  1.0000
  C   C18       1.0  0.30903  0.06261  0.58986  1.0000
  C   C19       1.0  0.30904  0.56262  0.91014  1.0000
  C   C20       1.0  0.69094  0.93738  0.41015  1.0000
  C   C21       1.0  0.64153  0.49542  0.17189  1.0000
  C   C22       1.0  0.35847  0.00457  0.67189  1.0000
  C   C23       1.0  0.35847  0.50459  0.82812  1.0000
  C   C24       1.0  0.64151  0.99541  0.32812  1.0000
  C   C25       1.0  0.55354  0.59691  0.16218  1.0000
  C   C26       1.0  0.44645  0.90308  0.66218  1.0000
  C   C27       1.0  0.44645  0.40310  0.83782  1.0000
  C   C28       1.0  0.55353  0.09690  0.33782  1.0000
  C   C29       1.0  0.46583  0.84606  0.02470  1.0000
  C   C30       1.0  0.53419  0.65394  0.52471  1.0000
  C   C31       1.0  0.53416  0.15394  0.97529  1.0000
  C   C32       1.0  0.46584  0.34606  0.47529  1.0000
  C   C33       1.0  0.47408  0.75897  0.10058  1.0000
  C   C34       1.0  0.52593  0.74102  0.60058  1.0000
  C   C35       1.0  0.52591  0.24102  0.89941  1.0000
  C   C36       1.0  0.47408  0.25898  0.39941  1.0000
  C   C37       1.0  0.40846  0.73927  0.18998  1.0000
  C   C38       1.0  0.59155  0.76073  0.68998  1.0000
  C   C39       1.0  0.59154  0.26074  0.81001  1.0000
  C   C40       1.0  0.40845  0.23926  0.31002  1.0000
  C   C41       1.0  0.30814  0.80784  0.25123  1.0000
  C   C42       1.0  0.69186  0.69216  0.75123  1.0000
  C   C43       1.0  0.69185  0.19216  0.74876  1.0000
  C   C44       1.0  0.30815  0.30784  0.24876  1.0000
  C   C45       1.0  0.98813  0.94318  0.02733  1.0000
  C   C46       1.0  0.01187  0.55683  0.52732  1.0000
  C   C47       1.0  0.01184  0.05682  0.97267  1.0000
  C   C48       1.0  0.98817  0.44319  0.47268  1.0000
  N   N1        1.0  0.45610  0.63806  0.22592  1.0000
  N   N2        1.0  0.54390  0.86194  0.72592  1.0000
  N   N3        1.0  0.54390  0.36195  0.77408  1.0000
  N   N4        1.0  0.45609  0.13805  0.27408  1.0000
  N   N5        1.0  0.56405  0.66800  0.08557  1.0000
  N   N6        1.0  0.43596  0.83199  0.58558  1.0000
  N   N7        1.0  0.43594  0.33200  0.91442  1.0000
  N   N8        1.0  0.56404  0.16800  0.41442  1.0000
  O   O1        1.0  0.55250  0.83057  0.95344  1.0000
  O   O2        1.0  0.44752  0.66943  0.45345  1.0000
  O   O3        1.0  0.44750  0.16943  0.04655  1.0000
  O   O4        1.0  0.55251  0.33058  0.54654  1.0000
  O   O5        1.0  0.37587  0.92605  0.03284  1.0000
  O   O6        1.0  0.62415  0.57395  0.53284  1.0000
  O   O7        1.0  0.62413  0.07394  0.96715  1.0000
  O   O8        1.0  0.37587  0.42606  0.46715  1.0000
  O   O9        1.0  0.31232  0.91361  0.24312  1.0000
  O   O10       1.0  0.68769  0.58639  0.74311  1.0000
  O   O11       1.0  0.68767  0.08640  0.75688  1.0000
  O   O12       1.0  0.31233  0.41360  0.25688  1.0000
  O   O13       1.0  0.22799  0.75553  0.31214  1.0000
  O   O14       1.0  0.77202  0.74447  0.81215  1.0000
  O   O15       1.0  0.77201  0.24448  0.68785  1.0000
  O   O16       1.0  0.22799  0.25552  0.18784  1.0000
  O   O17       1.0  0.94279  0.92696  0.73411  1.0000
  O   O18       1.0  0.05720  0.57305  0.23412  1.0000
  O   O19       1.0  0.05720  0.07305  0.26588  1.0000
  O   O20       1.0  0.94281  0.42696  0.76589  1.0000
  O   O21       1.0  0.88882  0.87674  0.99434  1.0000
  O   O22       1.0  0.11120  0.62327  0.49435  1.0000
  O   O23       1.0  0.11115  0.12326  0.00565  1.0000
  O   O24       1.0  0.88887  0.37675  0.50565  1.0000
  O   O25       1.0  0.06854  0.92588  0.10017  1.0000
  O   O26       1.0  0.93148  0.57412  0.60016  1.0000
  O   O27       1.0  0.93143  0.07411  0.89982  1.0000
  O   O28       1.0  0.06857  0.42589  0.39982  1.0000
