data_image0
_chemical_formula_structural       Tb4H32C48N8O28
_chemical_formula_sum              "Tb4 H32 C48 N8 O28"
_cell_length_a       8.73767
_cell_length_b       11.6926
_cell_length_c       13.808
_cell_angle_alpha    90
_cell_angle_beta     90
_cell_angle_gamma    91.3508

_space_group_name_H-M_alt    "P 1"
_space_group_IT_number       1

loop_
  _space_group_symop_operation_xyz
  'x, y, z'

loop_
  _atom_site_type_symbol
  _atom_site_label
  _atom_site_symmetry_multiplicity
  _atom_site_fract_x
  _atom_site_fract_y
  _atom_site_fract_z
  _atom_site_occupancy
  Tb  Tb1       1.0  0.76714  0.06894  0.63559  1.0000
  Tb  Tb2       1.0  0.23287  0.43107  0.13559  1.0000
  Tb  Tb3       1.0  0.23286  0.93106  0.36441  1.0000
  Tb  Tb4       1.0  0.76715  0.56894  0.86441  1.0000
  H   H1        1.0  0.12624  0.66690  0.52741  1.0000
  H   H2        1.0  0.87375  0.83310  0.02741  1.0000
  H   H3        1.0  0.87375  0.33309  0.47259  1.0000
  H   H4        1.0  0.12625  0.16690  0.97259  1.0000
  H   H5        1.0  0.15510  0.46824  0.51939  1.0000
  H   H6        1.0  0.84489  0.03175  0.01940  1.0000
  H   H7        1.0  0.84489  0.53174  0.48061  1.0000
  H   H8        1.0  0.15511  0.96824  0.98060  1.0000
  H   H9        1.0  0.31165  0.29508  0.53670  1.0000
  H   H10       1.0  0.68835  0.20492  0.03670  1.0000
  H   H11       1.0  0.68835  0.70491  0.46331  1.0000
  H   H12       1.0  0.31164  0.79508  0.96329  1.0000
  H   H13       1.0  0.38176  0.22503  0.69997  1.0000
  H   H14       1.0  0.61824  0.27498  0.19997  1.0000
  H   H15       1.0  0.61824  0.77498  0.30004  1.0000
  H   H16       1.0  0.38174  0.72501  0.80002  1.0000
  H   H17       1.0  0.29949  0.33149  0.84707  1.0000
  H   H18       1.0  0.70051  0.16851  0.34707  1.0000
  H   H19       1.0  0.70052  0.66851  0.15294  1.0000
  H   H20       1.0  0.29947  0.83148  0.65293  1.0000
  H   H21       1.0  0.14529  0.50553  0.83070  1.0000
  H   H22       1.0  0.85470  0.99447  0.33070  1.0000
  H   H23       1.0  0.85471  0.49448  0.16931  1.0000
  H   H24       1.0  0.14529  0.00553  0.66930  1.0000
  H   H25       1.0  0.57553  0.14103  0.81553  1.0000
  H   H26       1.0  0.42449  0.35896  0.31552  1.0000
  H   H27       1.0  0.42448  0.85895  0.18448  1.0000
  H   H28       1.0  0.57553  0.64103  0.68447  1.0000
  H   H29       1.0  0.56079  0.00880  0.79629  1.0000
  H   H30       1.0  0.43922  0.49120  0.29629  1.0000
  H   H31       1.0  0.43920  0.99119  0.20371  1.0000
  H   H32       1.0  0.56079  0.50880  0.70372  1.0000
  C   C1        1.0  0.80232  0.81595  0.75627  1.0000
  C   C2        1.0  0.19767  0.68406  0.25627  1.0000
  C   C3        1.0  0.19768  0.18406  0.24373  1.0000
  C   C4        1.0  0.80233  0.31595  0.74373  1.0000
  C   C5        1.0  0.90086  0.74573  0.69270  1.0000
  C   C6        1.0  0.09914  0.75427  0.19270  1.0000
  C   C7        1.0  0.09914  0.25426  0.30730  1.0000
  C   C8        1.0  0.90086  0.24574  0.80730  1.0000
  C   C9        1.0  0.96622  0.76456  0.60177  1.0000
  C   C10       1.0  0.03378  0.73543  0.10178  1.0000
  C   C11       1.0  0.03378  0.23543  0.39823  1.0000
  C   C12       1.0  0.96622  0.26457  0.89823  1.0000
  C   C13       1.0  0.95809  0.85211  0.52462  1.0000
  C   C14       1.0  0.04190  0.64790  0.02462  1.0000
  C   C15       1.0  0.04190  0.14789  0.47537  1.0000
  C   C16       1.0  0.95810  0.35211  0.97537  1.0000
  C   C17       1.0  0.04865  0.60090  0.66474  1.0000
  C   C18       1.0  0.95135  0.89911  0.16475  1.0000
  C   C19       1.0  0.95135  0.39910  0.33525  1.0000
  C   C20       1.0  0.04865  0.10089  0.83525  1.0000
  C   C21       1.0  0.13821  0.49795  0.67418  1.0000
  C   C22       1.0  0.86178  0.00206  0.17419  1.0000
  C   C23       1.0  0.86178  0.50206  0.32582  1.0000
  C   C24       1.0  0.13822  0.99794  0.82581  1.0000
  C   C25       1.0  0.18779  0.43911  0.59142  1.0000
  C   C26       1.0  0.81221  0.06089  0.09142  1.0000
  C   C27       1.0  0.81220  0.56088  0.40859  1.0000
  C   C28       1.0  0.18780  0.93911  0.90857  1.0000
  C   C29       1.0  0.27512  0.34152  0.60087  1.0000
  C   C30       1.0  0.72488  0.15847  0.10087  1.0000
  C   C31       1.0  0.72489  0.65847  0.39914  1.0000
  C   C32       1.0  0.27511  0.84152  0.89912  1.0000
  C   C33       1.0  0.31416  0.30167  0.69283  1.0000
  C   C34       1.0  0.68585  0.19833  0.19282  1.0000
  C   C35       1.0  0.68585  0.69833  0.30718  1.0000
  C   C36       1.0  0.31414  0.80167  0.80717  1.0000
  C   C37       1.0  0.26652  0.36048  0.77521  1.0000
  C   C38       1.0  0.73347  0.13952  0.27520  1.0000
  C   C39       1.0  0.73349  0.63951  0.22480  1.0000
  C   C40       1.0  0.26651  0.86048  0.72478  1.0000
  C   C41       1.0  0.17932  0.45821  0.76635  1.0000
  C   C42       1.0  0.82068  0.04180  0.26635  1.0000
  C   C43       1.0  0.82069  0.54180  0.23365  1.0000
  C   C44       1.0  0.17931  0.95820  0.73364  1.0000
  C   C45       1.0  0.51302  0.05704  0.47203  1.0000
  C   C46       1.0  0.48699  0.44298  0.97203  1.0000
  C   C47       1.0  0.48697  0.94297  0.52796  1.0000
  C   C48       1.0  0.51302  0.55704  0.02798  1.0000
  N   N1        1.0  0.05792  0.67228  0.58693  1.0000
  N   N2        1.0  0.94206  0.82772  0.08693  1.0000
  N   N3        1.0  0.94207  0.32771  0.41306  1.0000
  N   N4        1.0  0.05793  0.17228  0.91307  1.0000
  N   N5        1.0  0.95007  0.64317  0.72929  1.0000
  N   N6        1.0  0.04992  0.85683  0.22930  1.0000
  N   N7        1.0  0.04994  0.35683  0.27071  1.0000
  N   N8        1.0  0.95007  0.14317  0.77070  1.0000
  O   O1        1.0  0.79742  0.92309  0.74342  1.0000
  O   O2        1.0  0.20257  0.57691  0.24343  1.0000
  O   O3        1.0  0.20259  0.07692  0.25657  1.0000
  O   O4        1.0  0.79742  0.42308  0.75657  1.0000
  O   O5        1.0  0.73263  0.76340  0.82438  1.0000
  O   O6        1.0  0.26737  0.73659  0.32437  1.0000
  O   O7        1.0  0.26739  0.23660  0.17563  1.0000
  O   O8        1.0  0.73262  0.26341  0.67563  1.0000
  O   O9        1.0  0.86802  0.93437  0.53330  1.0000
  O   O10       1.0  0.13197  0.56563  0.03331  1.0000
  O   O11       1.0  0.13196  0.06563  0.46669  1.0000
  O   O12       1.0  0.86804  0.43437  0.96669  1.0000
  O   O13       1.0  0.04432  0.83480  0.45196  1.0000
  O   O14       1.0  0.95569  0.66520  0.95196  1.0000
  O   O15       1.0  0.95568  0.16520  0.54804  1.0000
  O   O16       1.0  0.04434  0.33480  0.04804  1.0000
  O   O17       1.0  0.61243  0.12698  0.50678  1.0000
  O   O18       1.0  0.38758  0.37303  0.00679  1.0000
  O   O19       1.0  0.38758  0.87304  0.49322  1.0000
  O   O20       1.0  0.61244  0.62698  0.99322  1.0000
  O   O21       1.0  0.43445  0.07123  0.39666  1.0000
  O   O22       1.0  0.56556  0.42878  0.89667  1.0000
  O   O23       1.0  0.56556  0.92877  0.60334  1.0000
  O   O24       1.0  0.43445  0.57124  0.10333  1.0000
  O   O25       1.0  0.56505  0.08364  0.76476  1.0000
  O   O26       1.0  0.43496  0.41636  0.26476  1.0000
  O   O27       1.0  0.43495  0.91635  0.23524  1.0000
  O   O28       1.0  0.56505  0.58364  0.73524  1.0000
