data_image0
_chemical_formula_structural       Zn2H8C8O12
_chemical_formula_sum              "Zn2 H8 C8 O12"
_cell_length_a       7.21217
_cell_length_b       7.45088
_cell_length_c       7.90268
_cell_angle_alpha    119.472
_cell_angle_beta     90.028
_cell_angle_gamma    118.911

_space_group_name_H-M_alt    "P 1"
_space_group_IT_number       1

loop_
  _space_group_symop_operation_xyz
  'x, y, z'

loop_
  _atom_site_type_symbol
  _atom_site_label
  _atom_site_symmetry_multiplicity
  _atom_site_fract_x
  _atom_site_fract_y
  _atom_site_fract_z
  _atom_site_occupancy
  Zn  Zn1       1.0  0.49999  0.49999  0.49999  1.0000
  Zn  Zn2       1.0  1.00000  0.50000  1.00000  1.0000
  H   H1        1.0  0.78710  0.94890  0.55743  1.0000
  H   H2        1.0  0.83774  0.05102  0.94274  1.0000
  H   H3        1.0  0.21290  0.05110  0.44258  1.0000
  H   H4        1.0  0.16225  0.94897  0.05725  1.0000
  H   H5        1.0  0.77613  0.71359  0.36200  1.0000
  H   H6        1.0  0.06236  0.28613  0.13801  1.0000
  H   H7        1.0  0.22387  0.28641  0.63800  1.0000
  H   H8        1.0  0.93763  0.71387  0.86198  1.0000
  C   C1        1.0  0.24094  0.72374  0.44407  1.0000
  C   C2        1.0  0.51701  0.27637  0.05565  1.0000
  C   C3        1.0  0.75905  0.27626  0.55594  1.0000
  C   C4        1.0  0.48300  0.72364  0.94435  1.0000
  C   C5        1.0  0.32841  0.91753  0.65922  1.0000
  C   C6        1.0  0.41065  0.08274  0.84044  1.0000
  C   C7        1.0  0.67160  0.08247  0.34078  1.0000
  C   C8        1.0  0.58936  0.91726  0.15956  1.0000
  O   O1        1.0  0.24505  0.53494  0.38935  1.0000
  O   O2        1.0  0.70971  0.46534  0.11036  1.0000
  O   O3        1.0  0.75495  0.46505  0.61065  1.0000
  O   O4        1.0  0.29030  0.53467  0.88965  1.0000
  O   O5        1.0  0.16595  0.75878  0.32445  1.0000
  O   O6        1.0  0.40742  0.24102  0.17531  1.0000
  O   O7        1.0  0.83405  0.24122  0.67555  1.0000
  O   O8        1.0  0.59259  0.75898  0.82470  1.0000
  O   O9        1.0  0.76385  0.78472  0.50222  1.0000
  O   O10       1.0  0.97869  0.21512  0.99793  1.0000
  O   O11       1.0  0.23614  0.21527  0.49778  1.0000
  O   O12       1.0  0.02130  0.78488  0.00207  1.0000
