data_image0
_chemical_formula_structural       Cd2H16C12S4Br4N8O4
_chemical_formula_sum              "Cd2 H16 C12 S4 Br4 N8 O4"
_cell_length_a       7.771
_cell_length_b       7.87523
_cell_length_c       10.8941
_cell_angle_alpha    92.9044
_cell_angle_beta     90.0007
_cell_angle_gamma    90.0007

_space_group_name_H-M_alt    "P 1"
_space_group_IT_number       1

loop_
  _space_group_symop_operation_xyz
  'x, y, z'

loop_
  _atom_site_type_symbol
  _atom_site_label
  _atom_site_symmetry_multiplicity
  _atom_site_fract_x
  _atom_site_fract_y
  _atom_site_fract_z
  _atom_site_occupancy
  Cd  Cd1       1.0  1.00000  0.99999  0.00000  1.0000
  Cd  Cd2       1.0  0.50001  0.49999  0.00000  1.0000
  H   H1        1.0  0.36678  0.08737  0.86807  1.0000
  H   H2        1.0  0.86677  0.41265  0.13194  1.0000
  H   H3        1.0  0.63324  0.91263  0.13194  1.0000
  H   H4        1.0  0.13323  0.58736  0.86807  1.0000
  H   H5        1.0  0.61819  0.89055  0.78346  1.0000
  H   H6        1.0  0.11817  0.60947  0.21654  1.0000
  H   H7        1.0  0.38182  0.10943  0.21653  1.0000
  H   H8        1.0  0.88182  0.39056  0.78346  1.0000
  H   H9        1.0  0.61216  0.08280  0.70230  1.0000
  H   H10       1.0  0.11216  0.41722  0.29770  1.0000
  H   H11       1.0  0.38785  0.91719  0.29770  1.0000
  H   H12       1.0  0.88785  0.58279  0.70229  1.0000
  H   H13       1.0  0.21825  0.80905  0.55554  1.0000
  H   H14       1.0  0.71826  0.69096  0.44447  1.0000
  H   H15       1.0  0.78173  0.19097  0.44447  1.0000
  H   H16       1.0  0.28174  0.30905  0.55552  1.0000
  C   C1        1.0  0.53737  0.97050  0.72610  1.0000
  C   C2        1.0  0.03737  0.52952  0.27391  1.0000
  C   C3        1.0  0.46263  0.02949  0.27389  1.0000
  C   C4        1.0  0.96263  0.47049  0.72609  1.0000
  C   C5        1.0  0.24009  0.95773  0.72378  1.0000
  C   C6        1.0  0.74009  0.54228  0.27621  1.0000
  C   C7        1.0  0.75990  0.04228  0.27622  1.0000
  C   C8        1.0  0.25990  0.45772  0.72379  1.0000
  C   C9        1.0  0.47578  0.87157  0.61170  1.0000
  C   C10       1.0  0.97576  0.62845  0.38830  1.0000
  C   C11       1.0  0.52422  0.12844  0.38828  1.0000
  C   C12       1.0  0.02423  0.37156  0.61171  1.0000
  S   S1        1.0  0.02943  0.97624  0.75695  1.0000
  S   S2        1.0  0.52943  0.52377  0.24306  1.0000
  S   S3        1.0  0.97055  0.02378  0.24307  1.0000
  S   S4        1.0  0.47057  0.47623  0.75695  1.0000
  Br  Br1       1.0  0.23074  0.26985  0.03673  1.0000
  Br  Br2       1.0  0.73071  0.23011  0.96326  1.0000
  Br  Br3       1.0  0.76929  0.73012  0.96326  1.0000
  Br  Br4       1.0  0.26927  0.76984  0.03672  1.0000
  N   N1        1.0  0.37655  0.01765  0.78640  1.0000
  N   N2        1.0  0.87656  0.48236  0.21361  1.0000
  N   N3        1.0  0.62345  0.98235  0.21361  1.0000
  N   N4        1.0  0.12345  0.51764  0.78639  1.0000
  N   N5        1.0  0.29898  0.87112  0.61832  1.0000
  N   N6        1.0  0.79897  0.62887  0.38168  1.0000
  N   N7        1.0  0.70101  0.12888  0.38168  1.0000
  N   N8        1.0  0.20102  0.37114  0.61832  1.0000
  O   O1        1.0  0.56190  0.80479  0.52778  1.0000
  O   O2        1.0  0.06191  0.69521  0.47223  1.0000
  O   O3        1.0  0.43808  0.19520  0.47222  1.0000
  O   O4        1.0  0.93808  0.30478  0.52778  1.0000
