data_image0
_chemical_formula_structural       Zn2H32C28N8O12
_chemical_formula_sum              "Zn2 H32 C28 N8 O12"
_cell_length_a       8.13123
_cell_length_b       9.86544
_cell_length_c       10.729
_cell_angle_alpha    105.642
_cell_angle_beta     89.9998
_cell_angle_gamma    90

_space_group_name_H-M_alt    "P 1"
_space_group_IT_number       1

loop_
  _space_group_symop_operation_xyz
  'x, y, z'

loop_
  _atom_site_type_symbol
  _atom_site_label
  _atom_site_symmetry_multiplicity
  _atom_site_fract_x
  _atom_site_fract_y
  _atom_site_fract_z
  _atom_site_occupancy
  Zn  Zn1       1.0  0.00000  0.00000  0.00000  1.0000
  Zn  Zn2       1.0  0.50000  0.50000  0.50000  1.0000
  H   H1        1.0  0.97731  0.77807  0.77627  1.0000
  H   H2        1.0  0.47731  0.72193  0.72373  1.0000
  H   H3        1.0  0.02269  0.22193  0.22373  1.0000
  H   H4        1.0  0.52269  0.27807  0.27627  1.0000
  H   H5        1.0  0.80281  0.85847  0.80669  1.0000
  H   H6        1.0  0.30281  0.64153  0.69331  1.0000
  H   H7        1.0  0.19719  0.14153  0.19331  1.0000
  H   H8        1.0  0.69719  0.35847  0.30669  1.0000
  H   H9        1.0  0.81139  0.30035  0.10350  1.0000
  H   H10       1.0  0.31139  0.19965  0.39650  1.0000
  H   H11       1.0  0.18861  0.69965  0.89650  1.0000
  H   H12       1.0  0.68861  0.80035  0.60350  1.0000
  H   H13       1.0  0.02976  0.12456  0.73961  1.0000
  H   H14       1.0  0.52976  0.37544  0.76039  1.0000
  H   H15       1.0  0.97024  0.87544  0.26039  1.0000
  H   H16       1.0  0.47024  0.62456  0.23961  1.0000
  H   H17       1.0  0.90107  0.38878  0.74495  1.0000
  H   H18       1.0  0.40107  0.11122  0.75505  1.0000
  H   H19       1.0  0.09893  0.61122  0.25505  1.0000
  H   H20       1.0  0.59893  0.88878  0.24495  1.0000
  H   H21       1.0  0.72027  0.52924  0.09198  1.0000
  H   H22       1.0  0.22027  0.97076  0.40802  1.0000
  H   H23       1.0  0.27972  0.47076  0.90802  1.0000
  H   H24       1.0  0.77973  0.02924  0.59198  1.0000
  H   H25       1.0  0.74211  0.58962  0.82175  1.0000
  H   H26       1.0  0.24211  0.91038  0.67825  1.0000
  H   H27       1.0  0.25789  0.41038  0.17825  1.0000
  H   H28       1.0  0.75789  0.08962  0.32175  1.0000
  H   H29       1.0  0.65456  0.70299  0.97504  1.0000
  H   H30       1.0  0.15456  0.79701  0.52496  1.0000
  H   H31       1.0  0.34544  0.29701  0.02496  1.0000
  H   H32       1.0  0.84544  0.20299  0.47503  1.0000
  C   C1        1.0  0.85311  0.28454  0.00487  1.0000
  C   C2        1.0  0.35311  0.21546  0.49513  1.0000
  C   C3        1.0  0.14689  0.71546  0.99513  1.0000
  C   C4        1.0  0.64689  0.78454  0.50487  1.0000
  C   C5        1.0  0.96478  0.20024  0.81575  1.0000
  C   C6        1.0  0.46478  0.29976  0.68425  1.0000
  C   C7        1.0  0.03522  0.79976  0.18425  1.0000
  C   C8        1.0  0.53522  0.70024  0.31575  1.0000
  C   C9        1.0  0.38177  0.99475  0.95986  1.0000
  C   C10       1.0  0.88177  0.50525  0.54014  1.0000
  C   C11       1.0  0.61823  0.00525  0.04014  1.0000
  C   C12       1.0  0.11823  0.49475  0.45986  1.0000
  C   C13       1.0  0.90251  0.32992  0.81673  1.0000
  C   C14       1.0  0.40251  0.17008  0.68327  1.0000
  C   C15       1.0  0.09749  0.67008  0.18327  1.0000
  C   C16       1.0  0.59749  0.82992  0.31673  1.0000
  C   C17       1.0  0.45430  0.05838  0.08899  1.0000
  C   C18       1.0  0.95431  0.44162  0.41101  1.0000
  C   C19       1.0  0.54570  0.94162  0.91100  1.0000
  C   C20       1.0  0.04570  0.55838  0.58900  1.0000
  C   C21       1.0  0.75098  0.51244  0.99004  1.0000
  C   C22       1.0  0.25098  0.98756  0.50996  1.0000
  C   C23       1.0  0.24902  0.48756  0.00996  1.0000
  C   C24       1.0  0.74902  0.01244  0.49004  1.0000
  C   C25       1.0  0.71518  0.60559  0.92427  1.0000
  C   C26       1.0  0.21519  0.89441  0.57573  1.0000
  C   C27       1.0  0.28482  0.39441  0.07573  1.0000
  C   C28       1.0  0.78482  0.10559  0.42427  1.0000
  N   N1        1.0  0.93310  0.17343  0.93368  1.0000
  N   N2        1.0  0.43310  0.32657  0.56632  1.0000
  N   N3        1.0  0.06690  0.82657  0.06632  1.0000
  N   N4        1.0  0.56690  0.67343  0.43368  1.0000
  N   N5        1.0  0.83144  0.38272  0.93798  1.0000
  N   N6        1.0  0.33145  0.11728  0.56202  1.0000
  N   N7        1.0  0.16856  0.61728  0.06202  1.0000
  N   N8        1.0  0.66856  0.88272  0.43798  1.0000
  O   O1        1.0  0.24235  0.98766  0.90745  1.0000
  O   O2        1.0  0.74235  0.51234  0.59255  1.0000
  O   O3        1.0  0.75765  0.01234  0.09255  1.0000
  O   O4        1.0  0.25765  0.48766  0.40745  1.0000
  O   O5        1.0  0.92494  0.87119  0.81165  1.0000
  O   O6        1.0  0.42494  0.62881  0.68835  1.0000
  O   O7        1.0  0.07506  0.12881  0.18835  1.0000
  O   O8        1.0  0.57506  0.37119  0.31165  1.0000
  O   O9        1.0  0.40165  0.13080  0.19732  1.0000
  O   O10       1.0  0.90165  0.36920  0.30268  1.0000
  O   O11       1.0  0.59835  0.86920  0.80268  1.0000
  O   O12       1.0  0.09835  0.63080  0.69732  1.0000
