data_image0
_chemical_formula_structural       Zn4H36C56N4Cl8O20
_chemical_formula_sum              "Zn4 H36 C56 N4 Cl8 O20"
_cell_length_a       7.98623
_cell_length_b       13.0844
_cell_length_c       14.4153
_cell_angle_alpha    90
_cell_angle_beta     90
_cell_angle_gamma    92.923

_space_group_name_H-M_alt    "P 1"
_space_group_IT_number       1

loop_
  _space_group_symop_operation_xyz
  'x, y, z'

loop_
  _atom_site_type_symbol
  _atom_site_label
  _atom_site_symmetry_multiplicity
  _atom_site_fract_x
  _atom_site_fract_y
  _atom_site_fract_z
  _atom_site_occupancy
  Zn  Zn1       1.0  0.93568  0.93048  0.07268  1.0000
  Zn  Zn2       1.0  0.56432  0.56952  0.57268  1.0000
  Zn  Zn3       1.0  0.06432  0.06952  0.92732  1.0000
  Zn  Zn4       1.0  0.43568  0.43048  0.42732  1.0000
  H   H1        1.0  0.10893  0.45654  0.91331  1.0000
  H   H2        1.0  0.39107  0.04346  0.41331  1.0000
  H   H3        1.0  0.89107  0.54346  0.08669  1.0000
  H   H4        1.0  0.60893  0.95654  0.58669  1.0000
  H   H5        1.0  0.16821  0.70655  0.71893  1.0000
  H   H6        1.0  0.33179  0.79345  0.21893  1.0000
  H   H7        1.0  0.83179  0.29345  0.28107  1.0000
  H   H8        1.0  0.66821  0.20655  0.78107  1.0000
  H   H9        1.0  0.32805  0.80836  0.83536  1.0000
  H   H10       1.0  0.17195  0.69164  0.33536  1.0000
  H   H11       1.0  0.67195  0.19164  0.16464  1.0000
  H   H12       1.0  0.82805  0.30836  0.66464  1.0000
  H   H13       1.0  0.50785  0.86582  0.93138  1.0000
  H   H14       1.0  0.99215  0.63418  0.43138  1.0000
  H   H15       1.0  0.49215  0.13418  0.06862  1.0000
  H   H16       1.0  0.00785  0.36582  0.56862  1.0000
  H   H17       1.0  0.51984  0.87364  0.05394  1.0000
  H   H18       1.0  0.98016  0.62636  0.55394  1.0000
  H   H19       1.0  0.48015  0.12636  0.94606  1.0000
  H   H20       1.0  0.01985  0.37364  0.44606  1.0000
  H   H21       1.0  0.73105  0.73515  0.06627  1.0000
  H   H22       1.0  0.76895  0.76485  0.56627  1.0000
  H   H23       1.0  0.26894  0.26485  0.93374  1.0000
  H   H24       1.0  0.23106  0.23515  0.43373  1.0000
  H   H25       1.0  0.59106  0.61274  0.18020  1.0000
  H   H26       1.0  0.90894  0.88726  0.68019  1.0000
  H   H27       1.0  0.40894  0.38726  0.81981  1.0000
  H   H28       1.0  0.09106  0.11274  0.31981  1.0000
  H   H29       1.0  0.80287  0.80192  0.39961  1.0000
  H   H30       1.0  0.69713  0.69808  0.89961  1.0000
  H   H31       1.0  0.19712  0.19807  0.60039  1.0000
  H   H32       1.0  0.30288  0.30193  0.10039  1.0000
  H   H33       1.0  0.93395  0.91725  0.27675  1.0000
  H   H34       1.0  0.56605  0.58275  0.77675  1.0000
  H   H35       1.0  0.06604  0.08275  0.72325  1.0000
  H   H36       1.0  0.43396  0.41725  0.22325  1.0000
  C   C1        1.0  0.31731  0.68979  0.94038  1.0000
  C   C2        1.0  0.18269  0.81021  0.44038  1.0000
  C   C3        1.0  0.68269  0.31021  0.05961  1.0000
  C   C4        1.0  0.81731  0.18979  0.55961  1.0000
  C   C5        1.0  0.25456  0.58965  0.96047  1.0000
  C   C6        1.0  0.24544  0.91035  0.46047  1.0000
  C   C7        1.0  0.74545  0.41035  0.03953  1.0000
  C   C8        1.0  0.75456  0.08965  0.53953  1.0000
  C   C9        1.0  0.15968  0.53281  0.89563  1.0000
  C   C10       1.0  0.34032  0.96719  0.39563  1.0000
  C   C11       1.0  0.84032  0.46719  0.10436  1.0000
  C   C12       1.0  0.65968  0.03281  0.60437  1.0000
  C   C13       1.0  0.12876  0.57559  0.80893  1.0000
  C   C14       1.0  0.37124  0.92442  0.30893  1.0000
  C   C15       1.0  0.87124  0.42441  0.19107  1.0000
  C   C16       1.0  0.62876  0.07559  0.69107  1.0000
  C   C17       1.0  0.19046  0.67420  0.78713  1.0000
  C   C18       1.0  0.30954  0.82580  0.28713  1.0000
  C   C19       1.0  0.80954  0.32580  0.21287  1.0000
  C   C20       1.0  0.69047  0.17420  0.71287  1.0000
  C   C21       1.0  0.28263  0.73102  0.85312  1.0000
  C   C22       1.0  0.21737  0.76898  0.35312  1.0000
  C   C23       1.0  0.71738  0.26898  0.14688  1.0000
  C   C24       1.0  0.78263  0.23102  0.64688  1.0000
  C   C25       1.0  0.43976  0.84766  0.99592  1.0000
  C   C26       1.0  0.06024  0.65234  0.49592  1.0000
  C   C27       1.0  0.56024  0.15234  0.00408  1.0000
  C   C28       1.0  0.93976  0.34766  0.50408  1.0000
  C   C29       1.0  0.27772  0.90495  0.00044  1.0000
  C   C30       1.0  0.22228  0.59505  0.50044  1.0000
  C   C31       1.0  0.72227  0.09504  0.99956  1.0000
  C   C32       1.0  0.77773  0.40496  0.49956  1.0000
  C   C33       1.0  0.74306  0.74653  0.14083  1.0000
  C   C34       1.0  0.75694  0.75347  0.64083  1.0000
  C   C35       1.0  0.25693  0.25347  0.85917  1.0000
  C   C36       1.0  0.24307  0.24653  0.35917  1.0000
  C   C37       1.0  0.66663  0.67911  0.20399  1.0000
  C   C38       1.0  0.83337  0.82089  0.70399  1.0000
  C   C39       1.0  0.33336  0.32089  0.79601  1.0000
  C   C40       1.0  0.16663  0.17911  0.29601  1.0000
  C   C41       1.0  0.68852  0.69799  0.29870  1.0000
  C   C42       1.0  0.81148  0.80201  0.79870  1.0000
  C   C43       1.0  0.31148  0.30201  0.70130  1.0000
  C   C44       1.0  0.18852  0.19799  0.20130  1.0000
  C   C45       1.0  0.78464  0.78485  0.32637  1.0000
  C   C46       1.0  0.71537  0.71515  0.82637  1.0000
  C   C47       1.0  0.21536  0.21515  0.67363  1.0000
  C   C48       1.0  0.28464  0.28485  0.17363  1.0000
  C   C49       1.0  0.85681  0.84893  0.25906  1.0000
  C   C50       1.0  0.64319  0.65107  0.75906  1.0000
  C   C51       1.0  0.14318  0.15107  0.74094  1.0000
  C   C52       1.0  0.35682  0.34893  0.24094  1.0000
  C   C53       1.0  0.61324  0.62529  0.37012  1.0000
  C   C54       1.0  0.88676  0.87471  0.87012  1.0000
  C   C55       1.0  0.38676  0.37472  0.62989  1.0000
  C   C56       1.0  0.11323  0.12528  0.12989  1.0000
  N   N1        1.0  0.83642  0.82998  0.16788  1.0000
  N   N2        1.0  0.66358  0.67002  0.66788  1.0000
  N   N3        1.0  0.16357  0.17002  0.83212  1.0000
  N   N4        1.0  0.33643  0.32998  0.33212  1.0000
  Cl  Cl1       1.0  0.29230  0.53747  0.06821  1.0000
  Cl  Cl2       1.0  0.20770  0.96253  0.56821  1.0000
  Cl  Cl3       1.0  0.70770  0.46253  0.93179  1.0000
  Cl  Cl4       1.0  0.79230  0.03747  0.43179  1.0000
  Cl  Cl5       1.0  0.00819  0.50693  0.72813  1.0000
  Cl  Cl6       1.0  0.49182  0.99307  0.22813  1.0000
  Cl  Cl7       1.0  0.99182  0.49307  0.27187  1.0000
  Cl  Cl8       1.0  0.50818  0.00694  0.77187  1.0000
  O   O1        1.0  0.16773  0.87213  0.05777  1.0000
  O   O2        1.0  0.33227  0.62787  0.55777  1.0000
  O   O3        1.0  0.83227  0.12786  0.94222  1.0000
  O   O4        1.0  0.66773  0.37214  0.44222  1.0000
  O   O5        1.0  0.27043  0.98179  0.94697  1.0000
  O   O6        1.0  0.22956  0.51821  0.44697  1.0000
  O   O7        1.0  0.72956  0.01822  0.05303  1.0000
  O   O8        1.0  0.77044  0.48178  0.55303  1.0000
  O   O9        1.0  0.41065  0.73949  0.00757  1.0000
  O   O10       1.0  0.08935  0.76051  0.50757  1.0000
  O   O11       1.0  0.58935  0.26051  0.99243  1.0000
  O   O12       1.0  0.91064  0.23949  0.49242  1.0000
  O   O13       1.0  0.63780  0.65039  0.45424  1.0000
  O   O14       1.0  0.86220  0.84960  0.95425  1.0000
  O   O15       1.0  0.36220  0.34960  0.54575  1.0000
  O   O16       1.0  0.13780  0.15040  0.04575  1.0000
  O   O17       1.0  0.53428  0.54518  0.34031  1.0000
  O   O18       1.0  0.96572  0.95482  0.84031  1.0000
  O   O19       1.0  0.46571  0.45482  0.65970  1.0000
  O   O20       1.0  0.03429  0.04518  0.15969  1.0000
