data_image0
_chemical_formula_structural       Cd2H24C16N8Cl4
_chemical_formula_sum              "Cd2 H24 C16 N8 Cl4"
_cell_length_a       3.96181
_cell_length_b       9.79806
_cell_length_c       14.5519
_cell_angle_alpha    90
_cell_angle_beta     90.0002
_cell_angle_gamma    93.7679

_space_group_name_H-M_alt    "P 1"
_space_group_IT_number       1

loop_
  _space_group_symop_operation_xyz
  'x, y, z'

loop_
  _atom_site_type_symbol
  _atom_site_label
  _atom_site_symmetry_multiplicity
  _atom_site_fract_x
  _atom_site_fract_y
  _atom_site_fract_z
  _atom_site_occupancy
  Cd  Cd1       1.0  0.50000  0.50000  0.50000  1.0000
  Cd  Cd2       1.0  0.50000  0.00000  0.00000  1.0000
  H   H1        1.0  0.20979  0.71361  0.33526  1.0000
  H   H2        1.0  0.79021  0.78639  0.83526  1.0000
  H   H3        1.0  0.79021  0.28639  0.66474  1.0000
  H   H4        1.0  0.20979  0.21361  0.16474  1.0000
  H   H5        1.0  0.33369  0.68390  0.14672  1.0000
  H   H6        1.0  0.66631  0.81610  0.64672  1.0000
  H   H7        1.0  0.66631  0.31610  0.85328  1.0000
  H   H8        1.0  0.33369  0.18390  0.35328  1.0000
  H   H9        1.0  0.79425  0.37535  0.29730  1.0000
  H   H10       1.0  0.20575  0.12465  0.79730  1.0000
  H   H11       1.0  0.20575  0.62465  0.70270  1.0000
  H   H12       1.0  0.79425  0.87535  0.20270  1.0000
  H   H13       1.0  0.90822  0.38459  0.12641  1.0000
  H   H14       1.0  0.09178  0.11541  0.62641  1.0000
  H   H15       1.0  0.09177  0.61541  0.87359  1.0000
  H   H16       1.0  0.90822  0.88459  0.37359  1.0000
  H   H17       1.0  0.82683  0.54083  0.06912  1.0000
  H   H18       1.0  0.17317  0.95917  0.56912  1.0000
  H   H19       1.0  0.17317  0.45917  0.93088  1.0000
  H   H20       1.0  0.82683  0.04083  0.43088  1.0000
  H   H21       1.0  0.51051  0.40090  0.07365  1.0000
  H   H22       1.0  0.48949  0.09910  0.57365  1.0000
  H   H23       1.0  0.48949  0.59910  0.92635  1.0000
  H   H24       1.0  0.51051  0.90090  0.42635  1.0000
  C   C1        1.0  0.35162  0.64016  0.29851  1.0000
  C   C2        1.0  0.64838  0.85984  0.79851  1.0000
  C   C3        1.0  0.64838  0.35984  0.70149  1.0000
  C   C4        1.0  0.35162  0.14016  0.20149  1.0000
  C   C5        1.0  0.40885  0.62577  0.20594  1.0000
  C   C6        1.0  0.59116  0.87423  0.70594  1.0000
  C   C7        1.0  0.59116  0.37424  0.79406  1.0000
  C   C8        1.0  0.40884  0.12577  0.29406  1.0000
  C   C9        1.0  0.64884  0.46264  0.28258  1.0000
  C   C10       1.0  0.35117  0.03736  0.78258  1.0000
  C   C11       1.0  0.35116  0.53737  0.71742  1.0000
  C   C12       1.0  0.64883  0.96264  0.21742  1.0000
  C   C13       1.0  0.71628  0.45660  0.11141  1.0000
  C   C14       1.0  0.28372  0.04340  0.61141  1.0000
  C   C15       1.0  0.28372  0.54340  0.88859  1.0000
  C   C16       1.0  0.71628  0.95660  0.38859  1.0000
  N   N1        1.0  0.50284  0.53808  0.34534  1.0000
  N   N2        1.0  0.49716  0.96192  0.84534  1.0000
  N   N3        1.0  0.49716  0.46192  0.65466  1.0000
  N   N4        1.0  0.50284  0.03808  0.15466  1.0000
  N   N5        1.0  0.59488  0.51193  0.19709  1.0000
  N   N6        1.0  0.40511  0.98807  0.69709  1.0000
  N   N7        1.0  0.40511  0.48807  0.80291  1.0000
  N   N8        1.0  0.59489  0.01193  0.30291  1.0000
  Cl  Cl1       1.0  0.04040  0.69013  0.52225  1.0000
  Cl  Cl2       1.0  0.95959  0.80987  0.02225  1.0000
  Cl  Cl3       1.0  0.95959  0.30987  0.47775  1.0000
  Cl  Cl4       1.0  0.04041  0.19013  0.97775  1.0000
