data_image0
_chemical_formula_structural       Cd4H48C24N12Cl12
_chemical_formula_sum              "Cd4 H48 C24 N12 Cl12"
_cell_length_a       7.77244
_cell_length_b       8.60485
_cell_length_c       16.6519
_cell_angle_alpha    90.0002
_cell_angle_beta     97.8643
_cell_angle_gamma    90.0001

_space_group_name_H-M_alt    "P 1"
_space_group_IT_number       1

loop_
  _space_group_symop_operation_xyz
  'x, y, z'

loop_
  _atom_site_type_symbol
  _atom_site_label
  _atom_site_symmetry_multiplicity
  _atom_site_fract_x
  _atom_site_fract_y
  _atom_site_fract_z
  _atom_site_occupancy
  Cd  Cd1       1.0  0.21202  0.50637  0.30838  1.0000
  Cd  Cd2       1.0  0.78798  0.50637  0.19162  1.0000
  Cd  Cd3       1.0  0.78798  0.49363  0.69162  1.0000
  Cd  Cd4       1.0  0.21202  0.49363  0.80837  1.0000
  H   H1        1.0  0.82806  0.44965  0.40735  1.0000
  H   H2        1.0  0.17194  0.44965  0.09264  1.0000
  H   H3        1.0  0.17194  0.55035  0.59264  1.0000
  H   H4        1.0  0.82806  0.55035  0.90736  1.0000
  H   H5        1.0  0.69575  0.42929  0.47723  1.0000
  H   H6        1.0  0.30425  0.42928  0.02277  1.0000
  H   H7        1.0  0.30424  0.57072  0.52277  1.0000
  H   H8        1.0  0.69576  0.57072  0.97723  1.0000
  H   H9        1.0  0.64601  0.34928  0.38492  1.0000
  H   H10       1.0  0.35399  0.34927  0.11508  1.0000
  H   H11       1.0  0.35399  0.65072  0.61508  1.0000
  H   H12       1.0  0.64601  0.65073  0.88492  1.0000
  H   H13       1.0  0.09620  0.88745  0.31709  1.0000
  H   H14       1.0  0.90380  0.88744  0.18291  1.0000
  H   H15       1.0  0.90380  0.11255  0.68292  1.0000
  H   H16       1.0  0.09620  0.11255  0.81709  1.0000
  H   H17       1.0  0.33226  0.13182  0.34245  1.0000
  H   H18       1.0  0.66774  0.13182  0.15755  1.0000
  H   H19       1.0  0.66774  0.86817  0.65755  1.0000
  H   H20       1.0  0.33226  0.86817  0.84245  1.0000
  H   H21       1.0  0.60552  0.70510  0.35545  1.0000
  H   H22       1.0  0.39447  0.70510  0.14455  1.0000
  H   H23       1.0  0.39448  0.29490  0.64455  1.0000
  H   H24       1.0  0.60553  0.29490  0.85545  1.0000
  H   H25       1.0  0.66855  0.12346  0.32406  1.0000
  H   H26       1.0  0.33145  0.12346  0.17594  1.0000
  H   H27       1.0  0.33145  0.87654  0.67594  1.0000
  H   H28       1.0  0.66855  0.87654  0.82406  1.0000
  H   H29       1.0  0.78158  0.94993  0.35302  1.0000
  H   H30       1.0  0.21842  0.94993  0.14698  1.0000
  H   H31       1.0  0.21842  0.05007  0.64698  1.0000
  H   H32       1.0  0.78158  0.05007  0.85302  1.0000
  H   H33       1.0  0.59618  0.12116  0.47752  1.0000
  H   H34       1.0  0.40382  0.12116  0.02247  1.0000
  H   H35       1.0  0.40381  0.87884  0.52247  1.0000
  H   H36       1.0  0.59619  0.87884  0.97753  1.0000
  H   H37       1.0  0.77380  0.99242  0.49516  1.0000
  H   H38       1.0  0.22620  0.99241  0.00484  1.0000
  H   H39       1.0  0.22620  0.00759  0.50485  1.0000
  H   H40       1.0  0.77380  0.00759  0.99515  1.0000
  H   H41       1.0  0.89991  0.24663  0.52371  1.0000
  H   H42       1.0  0.10009  0.24662  0.97629  1.0000
  H   H43       1.0  0.10009  0.75337  0.47629  1.0000
  H   H44       1.0  0.89991  0.75338  0.02371  1.0000
  H   H45       1.0  0.94659  0.20750  0.42425  1.0000
  H   H46       1.0  0.05341  0.20749  0.07575  1.0000
  H   H47       1.0  0.05341  0.79251  0.57575  1.0000
  H   H48       1.0  0.94660  0.79251  0.92425  1.0000
  C   C1        1.0  0.23662  0.88566  0.32900  1.0000
  C   C2        1.0  0.76338  0.88566  0.17100  1.0000
  C   C3        1.0  0.76339  0.11433  0.67100  1.0000
  C   C4        1.0  0.23662  0.11433  0.82900  1.0000
  C   C5        1.0  0.35146  0.00717  0.34062  1.0000
  C   C6        1.0  0.64855  0.00716  0.15938  1.0000
  C   C7        1.0  0.64855  0.99283  0.65938  1.0000
  C   C8        1.0  0.35146  0.99283  0.84062  1.0000
  C   C9        1.0  0.49617  0.78445  0.34932  1.0000
  C   C10       1.0  0.50382  0.78446  0.15068  1.0000
  C   C11       1.0  0.50383  0.21555  0.65068  1.0000
  C   C12       1.0  0.49617  0.21554  0.84932  1.0000
  C   C13       1.0  0.67805  0.02712  0.36783  1.0000
  C   C14       1.0  0.32195  0.02712  0.13216  1.0000
  C   C15       1.0  0.32196  0.97288  0.63216  1.0000
  C   C16       1.0  0.67805  0.97288  0.86783  1.0000
  C   C17       1.0  0.71749  0.08634  0.45527  1.0000
  C   C18       1.0  0.28251  0.08634  0.04473  1.0000
  C   C19       1.0  0.28251  0.91366  0.54473  1.0000
  C   C20       1.0  0.71749  0.91366  0.95527  1.0000
  C   C21       1.0  0.84111  0.22437  0.46109  1.0000
  C   C22       1.0  0.15889  0.22436  0.03890  1.0000
  C   C23       1.0  0.15889  0.77563  0.53891  1.0000
  C   C24       1.0  0.84111  0.77564  0.96109  1.0000
  N   N1        1.0  0.32846  0.74739  0.33474  1.0000
  N   N2        1.0  0.67154  0.74739  0.16526  1.0000
  N   N3        1.0  0.67155  0.25261  0.66526  1.0000
  N   N4        1.0  0.32845  0.25261  0.83474  1.0000
  N   N5        1.0  0.51520  0.94112  0.35299  1.0000
  N   N6        1.0  0.48480  0.94112  0.14701  1.0000
  N   N7        1.0  0.48481  0.05888  0.64701  1.0000
  N   N8        1.0  0.51520  0.05888  0.85299  1.0000
  N   N9        1.0  0.74687  0.36945  0.43122  1.0000
  N   N10       1.0  0.25313  0.36944  0.06878  1.0000
  N   N11       1.0  0.25313  0.63055  0.56878  1.0000
  N   N12       1.0  0.74688  0.63056  0.93122  1.0000
  Cl  Cl1       1.0  0.31234  0.37055  0.44328  1.0000
  Cl  Cl2       1.0  0.68766  0.37055  0.05672  1.0000
  Cl  Cl3       1.0  0.68766  0.62945  0.55672  1.0000
  Cl  Cl4       1.0  0.31234  0.62945  0.94328  1.0000
  Cl  Cl5       1.0  0.08778  0.63491  0.15535  1.0000
  Cl  Cl6       1.0  0.91221  0.63491  0.34464  1.0000
  Cl  Cl7       1.0  0.91221  0.36509  0.84465  1.0000
  Cl  Cl8       1.0  0.08778  0.36509  0.65535  1.0000
  Cl  Cl9       1.0  0.50000  0.39066  0.25000  1.0000
  Cl  Cl10      1.0  0.50000  0.60934  0.75000  1.0000
  Cl  Cl11      1.0  1.00000  0.27950  0.25000  1.0000
  Cl  Cl12      1.0  0.00000  0.72050  0.75000  1.0000
