data_image0
_chemical_formula_structural       Cd2H28C32N12
_chemical_formula_sum              "Cd2 H28 C32 N12"
_cell_length_a       7.94978
_cell_length_b       9.23166
_cell_length_c       10.2371
_cell_angle_alpha    89.9476
_cell_angle_beta     90
_cell_angle_gamma    90

_space_group_name_H-M_alt    "P 1"
_space_group_IT_number       1

loop_
  _space_group_symop_operation_xyz
  'x, y, z'

loop_
  _atom_site_type_symbol
  _atom_site_label
  _atom_site_symmetry_multiplicity
  _atom_site_fract_x
  _atom_site_fract_y
  _atom_site_fract_z
  _atom_site_occupancy
  Cd  Cd1       1.0  1.00000  1.00000  0.50000  1.0000
  Cd  Cd2       1.0  0.50000  0.00000  1.00000  1.0000
  H   H1        1.0  0.73856  0.28684  0.43128  1.0000
  H   H2        1.0  0.23856  0.71316  0.06872  1.0000
  H   H3        1.0  0.26144  0.71316  0.56872  1.0000
  H   H4        1.0  0.76144  0.28684  0.93128  1.0000
  H   H5        1.0  0.51986  0.28962  0.21820  1.0000
  H   H6        1.0  0.01986  0.71038  0.28180  1.0000
  H   H7        1.0  0.48014  0.71038  0.78180  1.0000
  H   H8        1.0  0.98014  0.28962  0.71820  1.0000
  H   H9        1.0  0.87375  0.95464  0.17207  1.0000
  H   H10       1.0  0.37375  0.04536  0.32793  1.0000
  H   H11       1.0  0.12625  0.04536  0.82793  1.0000
  H   H12       1.0  0.62626  0.95464  0.67207  1.0000
  H   H13       1.0  0.64608  0.88517  0.35555  1.0000
  H   H14       1.0  0.14608  0.11483  0.14445  1.0000
  H   H15       1.0  0.35392  0.11483  0.64445  1.0000
  H   H16       1.0  0.85392  0.88517  0.85555  1.0000
  H   H17       1.0  0.43256  0.69332  0.35452  1.0000
  H   H18       1.0  0.93256  0.30668  0.14548  1.0000
  H   H19       1.0  0.56744  0.30668  0.64548  1.0000
  H   H20       1.0  0.06744  0.69332  0.85452  1.0000
  H   H21       1.0  0.73917  0.46390  0.63845  1.0000
  H   H22       1.0  0.23917  0.53610  0.86155  1.0000
  H   H23       1.0  0.26083  0.53610  0.36155  1.0000
  H   H24       1.0  0.76083  0.46390  0.13845  1.0000
  H   H25       1.0  0.93979  0.66811  0.62576  1.0000
  H   H26       1.0  0.43979  0.33189  0.87424  1.0000
  H   H27       1.0  0.06021  0.33189  0.37424  1.0000
  H   H28       1.0  0.56021  0.66811  0.12576  1.0000
  C   C1        1.0  0.73607  0.21972  0.34457  1.0000
  C   C2        1.0  0.23607  0.78028  0.15543  1.0000
  C   C3        1.0  0.26393  0.78028  0.65543  1.0000
  C   C4        1.0  0.76393  0.21972  0.84457  1.0000
  C   C5        1.0  0.62726  0.22065  0.23880  1.0000
  C   C6        1.0  0.12726  0.77935  0.26120  1.0000
  C   C7        1.0  0.37275  0.77935  0.76120  1.0000
  C   C8        1.0  0.87275  0.22065  0.73880  1.0000
  C   C9        1.0  0.80714  0.04675  0.21306  1.0000
  C   C10       1.0  0.30714  0.95325  0.28694  1.0000
  C   C11       1.0  0.19286  0.95324  0.78694  1.0000
  C   C12       1.0  0.69286  0.04676  0.71306  1.0000
  C   C13       1.0  0.66265  0.78967  0.41689  1.0000
  C   C14       1.0  0.16265  0.21033  0.08311  1.0000
  C   C15       1.0  0.33735  0.21033  0.58311  1.0000
  C   C16       1.0  0.83735  0.78967  0.91689  1.0000
  C   C17       1.0  0.54252  0.68015  0.41679  1.0000
  C   C18       1.0  0.04252  0.31985  0.08321  1.0000
  C   C19       1.0  0.45748  0.31985  0.58321  1.0000
  C   C20       1.0  0.95748  0.68015  0.91679  1.0000
  C   C21       1.0  0.56379  0.55846  0.49734  1.0000
  C   C22       1.0  0.06379  0.44154  0.00266  1.0000
  C   C23       1.0  0.43621  0.44154  0.50266  1.0000
  C   C24       1.0  0.93621  0.55846  0.99734  1.0000
  C   C25       1.0  0.71123  0.55438  0.57350  1.0000
  C   C26       1.0  0.21123  0.44561  0.92650  1.0000
  C   C27       1.0  0.28877  0.44562  0.42650  1.0000
  C   C28       1.0  0.78877  0.55439  0.07350  1.0000
  C   C29       1.0  0.82529  0.66847  0.56689  1.0000
  C   C30       1.0  0.32529  0.33153  0.93311  1.0000
  C   C31       1.0  0.17471  0.33153  0.43311  1.0000
  C   C32       1.0  0.67471  0.66847  0.06689  1.0000
  N   N1        1.0  0.85024  0.10897  0.32778  1.0000
  N   N2        1.0  0.35025  0.89103  0.17223  1.0000
  N   N3        1.0  0.14976  0.89103  0.67222  1.0000
  N   N4        1.0  0.64976  0.10897  0.82778  1.0000
  N   N5        1.0  0.67327  0.11005  0.15543  1.0000
  N   N6        1.0  0.17327  0.88995  0.34457  1.0000
  N   N7        1.0  0.32673  0.88995  0.84457  1.0000
  N   N8        1.0  0.82673  0.11005  0.65543  1.0000
  N   N9        1.0  0.80248  0.78540  0.49046  1.0000
  N   N10       1.0  0.30248  0.21460  0.00954  1.0000
  N   N11       1.0  0.19752  0.21460  0.50954  1.0000
  N   N12       1.0  0.69752  0.78540  0.99046  1.0000
