data_image0
_chemical_formula_structural       Cd4H40C28S4N8O20
_chemical_formula_sum              "Cd4 H40 C28 S4 N8 O20"
_cell_length_a       8.34646
_cell_length_b       8.73568
_cell_length_c       14.928
_cell_angle_alpha    90
_cell_angle_beta     90
_cell_angle_gamma    90

_space_group_name_H-M_alt    "P 1"
_space_group_IT_number       1

loop_
  _space_group_symop_operation_xyz
  'x, y, z'

loop_
  _atom_site_type_symbol
  _atom_site_label
  _atom_site_symmetry_multiplicity
  _atom_site_fract_x
  _atom_site_fract_y
  _atom_site_fract_z
  _atom_site_occupancy
  Cd  Cd1       1.0  0.60279  0.23341  0.56128  1.0000
  Cd  Cd2       1.0  0.39721  0.73341  0.43872  1.0000
  Cd  Cd3       1.0  0.60279  0.73341  0.93872  1.0000
  Cd  Cd4       1.0  0.39722  0.23341  0.06128  1.0000
  H   H1        1.0  0.22374  0.23519  0.85211  1.0000
  H   H2        1.0  0.77625  0.73519  0.14789  1.0000
  H   H3        1.0  0.22374  0.73519  0.64789  1.0000
  H   H4        1.0  0.77625  0.23520  0.35211  1.0000
  H   H5        1.0  0.81056  0.98018  0.60932  1.0000
  H   H6        1.0  0.18944  0.48018  0.39068  1.0000
  H   H7        1.0  0.81056  0.48018  0.89068  1.0000
  H   H8        1.0  0.18944  0.98018  0.10932  1.0000
  H   H9        1.0  0.63770  0.91631  0.60252  1.0000
  H   H10       1.0  0.36230  0.41631  0.39748  1.0000
  H   H11       1.0  0.63770  0.41631  0.89748  1.0000
  H   H12       1.0  0.36230  0.91631  0.10252  1.0000
  H   H13       1.0  0.67650  0.59123  0.71930  1.0000
  H   H14       1.0  0.32350  0.09123  0.28070  1.0000
  H   H15       1.0  0.67650  0.09124  0.78070  1.0000
  H   H16       1.0  0.32350  0.59123  0.21930  1.0000
  H   H17       1.0  0.82518  0.67606  0.65106  1.0000
  H   H18       1.0  0.17482  0.17606  0.34894  1.0000
  H   H19       1.0  0.82518  0.17606  0.84894  1.0000
  H   H20       1.0  0.17482  0.67606  0.15106  1.0000
  H   H21       1.0  0.02044  0.53130  0.55852  1.0000
  H   H22       1.0  0.97956  0.03131  0.44148  1.0000
  H   H23       1.0  0.02044  0.03131  0.94148  1.0000
  H   H24       1.0  0.97956  0.53131  0.05852  1.0000
  H   H25       1.0  0.08403  0.34614  0.58846  1.0000
  H   H26       1.0  0.91597  0.84614  0.41154  1.0000
  H   H27       1.0  0.08403  0.84614  0.91154  1.0000
  H   H28       1.0  0.91597  0.34614  0.08846  1.0000
  H   H29       1.0  0.47008  0.35161  0.77495  1.0000
  H   H30       1.0  0.52992  0.85161  0.22505  1.0000
  H   H31       1.0  0.47008  0.85161  0.72505  1.0000
  H   H32       1.0  0.52992  0.35161  0.27495  1.0000
  H   H33       1.0  0.06932  0.05867  0.74439  1.0000
  H   H34       1.0  0.93068  0.55867  0.25561  1.0000
  H   H35       1.0  0.06932  0.55867  0.75561  1.0000
  H   H36       1.0  0.93068  0.05867  0.24439  1.0000
  H   H37       1.0  0.24625  0.06214  0.58687  1.0000
  H   H38       1.0  0.75375  0.56215  0.41313  1.0000
  H   H39       1.0  0.24625  0.56215  0.91313  1.0000
  H   H40       1.0  0.75375  0.06214  0.08687  1.0000
  C   C1        1.0  0.61194  0.60742  0.58003  1.0000
  C   C2        1.0  0.38806  0.10743  0.41997  1.0000
  C   C3        1.0  0.61194  0.10743  0.91997  1.0000
  C   C4        1.0  0.38806  0.60742  0.08003  1.0000
  C   C5        1.0  0.73620  0.58314  0.65357  1.0000
  C   C6        1.0  0.26380  0.08314  0.34643  1.0000
  C   C7        1.0  0.73620  0.08314  0.84643  1.0000
  C   C8        1.0  0.26380  0.58314  0.15357  1.0000
  C   C9        1.0  0.97929  0.41251  0.56571  1.0000
  C   C10       1.0  0.02071  0.91251  0.43429  1.0000
  C   C11       1.0  0.97928  0.91252  0.93429  1.0000
  C   C12       1.0  0.02072  0.41251  0.06571  1.0000
  C   C13       1.0  0.93460  0.34773  0.47368  1.0000
  C   C14       1.0  0.06539  0.84774  0.52632  1.0000
  C   C15       1.0  0.93460  0.84774  0.02632  1.0000
  C   C16       1.0  0.06540  0.34773  0.97368  1.0000
  C   C17       1.0  0.38642  0.27337  0.74362  1.0000
  C   C18       1.0  0.61358  0.77337  0.25637  1.0000
  C   C19       1.0  0.38642  0.77337  0.75638  1.0000
  C   C20       1.0  0.61358  0.27337  0.24363  1.0000
  C   C21       1.0  0.17699  0.12123  0.72661  1.0000
  C   C22       1.0  0.82301  0.62123  0.27339  1.0000
  C   C23       1.0  0.17699  0.62123  0.77339  1.0000
  C   C24       1.0  0.82301  0.12123  0.22661  1.0000
  C   C25       1.0  0.26462  0.12431  0.64859  1.0000
  C   C26       1.0  0.73538  0.62431  0.35142  1.0000
  C   C27       1.0  0.26462  0.62431  0.85142  1.0000
  C   C28       1.0  0.73538  0.12431  0.14859  1.0000
  S   S1        1.0  0.83715  0.39989  0.65747  1.0000
  S   S2        1.0  0.16285  0.89990  0.34253  1.0000
  S   S3        1.0  0.83715  0.89990  0.84253  1.0000
  S   S4        1.0  0.16285  0.39989  0.15747  1.0000
  N   N1        1.0  0.39515  0.21978  0.65998  1.0000
  N   N2        1.0  0.60485  0.71978  0.34002  1.0000
  N   N3        1.0  0.39515  0.71978  0.84002  1.0000
  N   N4        1.0  0.60485  0.21978  0.15998  1.0000
  N   N5        1.0  0.25634  0.21554  0.78561  1.0000
  N   N6        1.0  0.74366  0.71554  0.21439  1.0000
  N   N7        1.0  0.25634  0.71554  0.71439  1.0000
  N   N8        1.0  0.74366  0.21554  0.28561  1.0000
  O   O1        1.0  0.55908  0.49788  0.53352  1.0000
  O   O2        1.0  0.44092  0.99788  0.46648  1.0000
  O   O3        1.0  0.55908  0.99788  0.96648  1.0000
  O   O4        1.0  0.44092  0.49788  0.03352  1.0000
  O   O5        1.0  0.56368  0.74480  0.56803  1.0000
  O   O6        1.0  0.43633  0.24480  0.43197  1.0000
  O   O7        1.0  0.56368  0.24480  0.93197  1.0000
  O   O8        1.0  0.43632  0.74480  0.06803  1.0000
  O   O9        1.0  0.81978  0.25086  0.46577  1.0000
  O   O10       1.0  0.18022  0.75086  0.53423  1.0000
  O   O11       1.0  0.81978  0.75086  0.03423  1.0000
  O   O12       1.0  0.18022  0.25085  0.96577  1.0000
  O   O13       1.0  0.01985  0.38773  0.40832  1.0000
  O   O14       1.0  0.98015  0.88773  0.59168  1.0000
  O   O15       1.0  0.01985  0.88773  0.09168  1.0000
  O   O16       1.0  0.98015  0.38772  0.90832  1.0000
  O   O17       1.0  0.69736  0.00776  0.62475  1.0000
  O   O18       1.0  0.30264  0.50776  0.37525  1.0000
  O   O19       1.0  0.69736  0.50776  0.87525  1.0000
  O   O20       1.0  0.30264  0.00776  0.12475  1.0000
