data_image0
_chemical_formula_structural       Hg2H22C18S2Br4
_chemical_formula_sum              "Hg2 H22 C18 S2 Br4"
_cell_length_a       7.8112
_cell_length_b       8.74765
_cell_length_c       9.62284
_cell_angle_alpha    68.984
_cell_angle_beta     74.2143
_cell_angle_gamma    89.4887

_space_group_name_H-M_alt    "P 1"
_space_group_IT_number       1

loop_
  _space_group_symop_operation_xyz
  'x, y, z'

loop_
  _atom_site_type_symbol
  _atom_site_label
  _atom_site_symmetry_multiplicity
  _atom_site_fract_x
  _atom_site_fract_y
  _atom_site_fract_z
  _atom_site_occupancy
  Hg  Hg1       1.0  0.72502  0.98334  0.55424  1.0000
  Hg  Hg2       1.0  0.27498  0.01666  0.44575  1.0000
  H   H1        1.0  0.45293  0.32887  0.56244  1.0000
  H   H2        1.0  0.54706  0.67112  0.43757  1.0000
  H   H3        1.0  0.14423  0.40393  0.63649  1.0000
  H   H4        1.0  0.85577  0.59605  0.36353  1.0000
  H   H5        1.0  0.02556  0.44918  0.88548  1.0000
  H   H6        1.0  0.97444  0.55083  0.11453  1.0000
  H   H7        1.0  0.21694  0.41055  0.06374  1.0000
  H   H8        1.0  0.78307  0.58947  0.93625  1.0000
  H   H9        1.0  0.52624  0.33813  0.98795  1.0000
  H   H10       1.0  0.47376  0.66187  0.01207  1.0000
  H   H11       1.0  0.78081  0.32127  0.78643  1.0000
  H   H12       1.0  0.21920  0.67873  0.21357  1.0000
  H   H13       1.0  0.76353  0.33204  0.60214  1.0000
  H   H14       1.0  0.23646  0.66796  0.39785  1.0000
  H   H15       1.0  0.93018  0.89693  0.82398  1.0000
  H   H16       1.0  0.06981  0.10307  0.17601  1.0000
  H   H17       1.0  0.00702  0.10928  0.73122  1.0000
  H   H18       1.0  0.99297  0.89071  0.26877  1.0000
  H   H19       1.0  0.80126  0.93587  0.07892  1.0000
  H   H20       1.0  0.19874  0.06413  0.92106  1.0000
  H   H21       1.0  0.88587  0.14495  0.98959  1.0000
  H   H22       1.0  0.11414  0.85505  0.01039  1.0000
  C   C1        1.0  0.40148  0.34749  0.67209  1.0000
  C   C2        1.0  0.59851  0.65250  0.32793  1.0000
  C   C3        1.0  0.22724  0.38971  0.71418  1.0000
  C   C4        1.0  0.77275  0.61028  0.28583  1.0000
  C   C5        1.0  0.16064  0.41369  0.85419  1.0000
  C   C6        1.0  0.83937  0.58631  0.14581  1.0000
  C   C7        1.0  0.26809  0.39447  0.95295  1.0000
  C   C8        1.0  0.73191  0.60554  0.04706  1.0000
  C   C9        1.0  0.44227  0.35302  0.91071  1.0000
  C   C10       1.0  0.55772  0.64698  0.08929  1.0000
  C   C11       1.0  0.51088  0.33032  0.76959  1.0000
  C   C12       1.0  0.48912  0.66968  0.23041  1.0000
  C   C13       1.0  0.69720  0.28246  0.72764  1.0000
  C   C14       1.0  0.30280  0.71754  0.27236  1.0000
  C   C15       1.0  0.90659  0.01893  0.82954  1.0000
  C   C16       1.0  0.09341  0.98106  0.17045  1.0000
  C   C17       1.0  0.90986  0.02226  0.98557  1.0000
  C   C18       1.0  0.09014  0.97774  0.01441  1.0000
  S   S1        1.0  0.68859  0.05642  0.79824  1.0000
  S   S2        1.0  0.31141  0.94357  0.20176  1.0000
  Br  Br1       1.0  0.64778  0.17263  0.30691  1.0000
  Br  Br2       1.0  0.35219  0.82738  0.69311  1.0000
  Br  Br3       1.0  0.91119  0.73037  0.59564  1.0000
  Br  Br4       1.0  0.08883  0.26965  0.40436  1.0000
