data_image0
_chemical_formula_structural       Cu3H30C36S6N12
_chemical_formula_sum              "Cu3 H30 C36 S6 N12"
_cell_length_a       8.45022
_cell_length_b       8.83059
_cell_length_c       15.263
_cell_angle_alpha    92.2143
_cell_angle_beta     97.0666
_cell_angle_gamma    115.238

_space_group_name_H-M_alt    "P 1"
_space_group_IT_number       1

loop_
  _space_group_symop_operation_xyz
  'x, y, z'

loop_
  _atom_site_type_symbol
  _atom_site_label
  _atom_site_symmetry_multiplicity
  _atom_site_fract_x
  _atom_site_fract_y
  _atom_site_fract_z
  _atom_site_occupancy
  Cu  Cu1       1.0  0.17007  0.17655  0.16212  1.0000
  Cu  Cu2       1.0  0.82994  0.82347  0.83789  1.0000
  Cu  Cu3       1.0  0.49999  0.49997  0.49999  1.0000
  H   H1        1.0  0.00522  0.90926  0.28462  1.0000
  H   H2        1.0  0.99478  0.09075  0.71537  1.0000
  H   H3        1.0  0.72096  0.78161  0.34760  1.0000
  H   H4        1.0  0.27905  0.21840  0.65241  1.0000
  H   H5        1.0  0.49347  0.88979  0.30938  1.0000
  H   H6        1.0  0.50652  0.11020  0.69063  1.0000
  H   H7        1.0  0.55982  0.12289  0.21052  1.0000
  H   H8        1.0  0.44015  0.87709  0.78948  1.0000
  H   H9        1.0  0.85176  0.23866  0.15423  1.0000
  H   H10       1.0  0.14820  0.76133  0.84576  1.0000
  H   H11       1.0  0.53037  0.45427  0.21124  1.0000
  H   H12       1.0  0.46966  0.54574  0.78876  1.0000
  H   H13       1.0  0.81451  0.58514  0.14729  1.0000
  H   H14       1.0  0.18551  0.41485  0.85272  1.0000
  H   H15       1.0  0.82490  0.46541  0.99737  1.0000
  H   H16       1.0  0.17511  0.53458  0.00262  1.0000
  H   H17       1.0  0.55364  0.22250  0.91750  1.0000
  H   H18       1.0  0.44636  0.77750  0.08250  1.0000
  H   H19       1.0  0.27984  0.10909  0.98989  1.0000
  H   H20       1.0  0.72016  0.89091  0.01012  1.0000
  H   H21       1.0  0.34025  0.58002  0.64459  1.0000
  H   H22       1.0  0.65979  0.41993  0.35538  1.0000
  H   H23       1.0  0.03883  0.48259  0.69112  1.0000
  H   H24       1.0  0.96122  0.51745  0.30887  1.0000
  H   H25       1.0  0.77884  0.25428  0.59360  1.0000
  H   H26       1.0  0.22118  0.74576  0.40641  1.0000
  H   H27       1.0  0.82778  0.13550  0.45357  1.0000
  H   H28       1.0  0.17217  0.86448  0.54643  1.0000
  H   H29       1.0  0.13619  0.25018  0.41547  1.0000
  H   H30       1.0  0.86375  0.74975  0.58451  1.0000
  C   C1        1.0  0.64410  0.84704  0.65559  1.0000
  C   C2        1.0  0.35593  0.15305  0.34444  1.0000
  C   C3        1.0  0.03266  0.82077  0.01902  1.0000
  C   C4        1.0  0.96735  0.17922  0.98098  1.0000
  C   C5        1.0  0.90316  0.95311  0.27042  1.0000
  C   C6        1.0  0.09683  0.04690  0.72957  1.0000
  C   C7        1.0  0.74502  0.88259  0.30491  1.0000
  C   C8        1.0  0.25498  0.11741  0.69509  1.0000
  C   C9        1.0  0.61848  0.94287  0.28362  1.0000
  C   C10       1.0  0.38151  0.05712  0.71638  1.0000
  C   C11       1.0  0.65534  0.07279  0.22886  1.0000
  C   C12       1.0  0.34463  0.92720  0.77113  1.0000
  C   C13       1.0  0.81676  0.13763  0.19735  1.0000
  C   C14       1.0  0.18321  0.86236  0.80265  1.0000
  C   C15       1.0  0.54248  0.40748  0.14655  1.0000
  C   C16       1.0  0.45753  0.59252  0.85346  1.0000
  C   C17       1.0  0.69900  0.47876  0.11079  1.0000
  C   C18       1.0  0.30101  0.52123  0.88921  1.0000
  C   C19       1.0  0.70473  0.41233  0.02743  1.0000
  C   C20       1.0  0.29528  0.58765  0.97256  1.0000
  C   C21       1.0  0.55347  0.27740  0.98260  1.0000
  C   C22       1.0  0.44653  0.72259  0.01740  1.0000
  C   C23       1.0  0.40166  0.21329  0.02257  1.0000
  C   C24       1.0  0.59835  0.78670  0.97744  1.0000
  C   C25       1.0  0.33502  0.53126  0.31452  1.0000
  C   C26       1.0  0.66498  0.46879  0.68549  1.0000
  C   C27       1.0  0.22253  0.48249  0.60449  1.0000
  C   C28       1.0  0.77749  0.51747  0.39549  1.0000
  C   C29       1.0  0.05589  0.42748  0.62989  1.0000
  C   C30       1.0  0.94413  0.57253  0.37009  1.0000
  C   C31       1.0  0.91110  0.30090  0.57559  1.0000
  C   C32       1.0  0.08890  0.69911  0.42441  1.0000
  C   C33       1.0  0.93783  0.23446  0.49742  1.0000
  C   C34       1.0  0.06215  0.76552  0.50257  1.0000
  C   C35       1.0  0.10824  0.29686  0.47597  1.0000
  C   C36       1.0  0.89173  0.70309  0.52401  1.0000
  S   S1        1.0  0.56925  0.86271  0.55561  1.0000
  S   S2        1.0  0.43078  0.13749  0.44444  1.0000
  S   S3        1.0  0.13334  0.83752  0.11836  1.0000
  S   S4        1.0  0.86665  0.16243  0.88165  1.0000
  S   S5        1.0  0.22463  0.52904  0.22002  1.0000
  S   S6        1.0  0.77536  0.47080  0.77996  1.0000
  N   N1        1.0  0.69312  0.83168  0.72965  1.0000
  N   N2        1.0  0.30686  0.16827  0.27037  1.0000
  N   N3        1.0  0.96184  0.80543  0.94491  1.0000
  N   N4        1.0  0.03818  0.19459  0.05510  1.0000
  N   N5        1.0  0.93812  0.07836  0.21753  1.0000
  N   N6        1.0  0.06186  0.92165  0.78246  1.0000
  N   N7        1.0  0.39718  0.27700  0.10321  1.0000
  N   N8        1.0  0.60284  0.72299  0.89679  1.0000
  N   N9        1.0  0.42250  0.53724  0.38288  1.0000
  N   N10       1.0  0.57752  0.46305  0.61718  1.0000
  N   N11       1.0  0.24751  0.41798  0.52899  1.0000
  N   N12       1.0  0.75248  0.58195  0.47099  1.0000
