data_image0
_chemical_formula_structural       Cu2H16C20N16
_chemical_formula_sum              "Cu2 H16 C20 N16"
_cell_length_a       6.4927
_cell_length_b       8.44113
_cell_length_c       10.8109
_cell_angle_alpha    87.7685
_cell_angle_beta     88.58
_cell_angle_gamma    76.9606

_space_group_name_H-M_alt    "P 1"
_space_group_IT_number       1

loop_
  _space_group_symop_operation_xyz
  'x, y, z'

loop_
  _atom_site_type_symbol
  _atom_site_label
  _atom_site_symmetry_multiplicity
  _atom_site_fract_x
  _atom_site_fract_y
  _atom_site_fract_z
  _atom_site_occupancy
  Cu  Cu1       1.0  0.24518  0.50163  0.55168  1.0000
  Cu  Cu2       1.0  0.75482  0.49837  0.44832  1.0000
  H   H1        1.0  0.13947  0.74225  0.97389  1.0000
  H   H2        1.0  0.86053  0.25775  0.02611  1.0000
  H   H3        1.0  0.97726  0.02944  0.90037  1.0000
  H   H4        1.0  0.02273  0.97055  0.09964  1.0000
  H   H5        1.0  0.91079  0.08715  0.67513  1.0000
  H   H6        1.0  0.08920  0.91285  0.32487  1.0000
  H   H7        1.0  0.00971  0.85474  0.52900  1.0000
  H   H8        1.0  0.99029  0.14526  0.47100  1.0000
  H   H9        1.0  0.25308  0.48935  0.01898  1.0000
  H   H10       1.0  0.74692  0.51066  0.98101  1.0000
  H   H11       1.0  0.41135  0.19768  0.04839  1.0000
  H   H12       1.0  0.58865  0.80233  0.95162  1.0000
  H   H13       1.0  0.51312  0.02449  0.85721  1.0000
  H   H14       1.0  0.48686  0.97551  0.14279  1.0000
  H   H15       1.0  0.45621  0.16389  0.64888  1.0000
  H   H16       1.0  0.54380  0.83611  0.35113  1.0000
  C   C1        1.0  0.16458  0.65215  0.78842  1.0000
  C   C2        1.0  0.83541  0.34785  0.21157  1.0000
  C   C3        1.0  0.10949  0.77297  0.87611  1.0000
  C   C4        1.0  0.89050  0.22702  0.12389  1.0000
  C   C5        1.0  0.01963  0.93135  0.83553  1.0000
  C   C6        1.0  0.98037  0.06864  0.16446  1.0000
  C   C7        1.0  0.98286  0.96511  0.70968  1.0000
  C   C8        1.0  0.01714  0.03489  0.29031  1.0000
  C   C9        1.0  0.03811  0.83862  0.62817  1.0000
  C   C10       1.0  0.96189  0.16138  0.37183  1.0000
  C   C11       1.0  0.26668  0.48115  0.81826  1.0000
  C   C12       1.0  0.73332  0.51884  0.18174  1.0000
  C   C13       1.0  0.29893  0.41465  0.93848  1.0000
  C   C14       1.0  0.70106  0.58535  0.06152  1.0000
  C   C15       1.0  0.38806  0.24908  0.95450  1.0000
  C   C16       1.0  0.61194  0.75092  0.04550  1.0000
  C   C17       1.0  0.44415  0.15448  0.85083  1.0000
  C   C18       1.0  0.55585  0.84552  0.14918  1.0000
  C   C19       1.0  0.41208  0.22973  0.73388  1.0000
  C   C20       1.0  0.58792  0.77028  0.26613  1.0000
  N   N1        1.0  0.12772  0.68664  0.66661  1.0000
  N   N2        1.0  0.87226  0.31335  0.33339  1.0000
  N   N3        1.0  0.32588  0.38863  0.71832  1.0000
  N   N4        1.0  0.67412  0.61137  0.28168  1.0000
  N   N5        1.0  0.43045  0.32410  0.46415  1.0000
  N   N6        1.0  0.56957  0.67590  0.53585  1.0000
  N   N7        1.0  0.41050  0.28017  0.36131  1.0000
  N   N8        1.0  0.58950  0.71983  0.63869  1.0000
  N   N9        1.0  0.40289  0.23129  0.26223  1.0000
  N   N10       1.0  0.59711  0.76871  0.73777  1.0000
  N   N11       1.0  0.09625  0.62161  0.40873  1.0000
  N   N12       1.0  0.90377  0.37839  0.59128  1.0000
  N   N13       1.0  0.14412  0.62051  0.30041  1.0000
  N   N14       1.0  0.85589  0.37948  0.69960  1.0000
  N   N15       1.0  0.17667  0.62869  0.19371  1.0000
  N   N16       1.0  0.82334  0.37131  0.80629  1.0000
