data_image0
_chemical_formula_structural       Cu4H20C24N4Cl4O8
_chemical_formula_sum              "Cu4 H20 C24 N4 Cl4 O8"
_cell_length_a       3.69285
_cell_length_b       5.98491
_cell_length_c       30.6304
_cell_angle_alpha    90.0009
_cell_angle_beta     89.9998
_cell_angle_gamma    93.1301

_space_group_name_H-M_alt    "P 1"
_space_group_IT_number       1

loop_
  _space_group_symop_operation_xyz
  'x, y, z'

loop_
  _atom_site_type_symbol
  _atom_site_label
  _atom_site_symmetry_multiplicity
  _atom_site_fract_x
  _atom_site_fract_y
  _atom_site_fract_z
  _atom_site_occupancy
  Cu  Cu1       1.0  0.94058  0.85269  0.78026  1.0000
  Cu  Cu2       1.0  0.55941  0.64734  0.28026  1.0000
  Cu  Cu3       1.0  0.05945  0.14732  0.21974  1.0000
  Cu  Cu4       1.0  0.44055  0.35267  0.71975  1.0000
  H   H1        1.0  0.62510  0.85326  0.01517  1.0000
  H   H2        1.0  0.87490  0.64680  0.51517  1.0000
  H   H3        1.0  0.37497  0.14680  0.98482  1.0000
  H   H4        1.0  0.12510  0.35318  0.48483  1.0000
  H   H5        1.0  0.65541  0.96301  0.86684  1.0000
  H   H6        1.0  0.84460  0.53695  0.36684  1.0000
  H   H7        1.0  0.34456  0.03697  0.13315  1.0000
  H   H8        1.0  0.15537  0.46303  0.63316  1.0000
  H   H9        1.0  0.97121  0.43359  0.95223  1.0000
  H   H10       1.0  0.52880  0.06638  0.45223  1.0000
  H   H11       1.0  0.02888  0.56643  0.04777  1.0000
  H   H12       1.0  0.47116  0.93361  0.54777  1.0000
  H   H13       1.0  0.17222  0.22909  0.88531  1.0000
  H   H14       1.0  0.32780  0.27089  0.38531  1.0000
  H   H15       1.0  0.82790  0.77093  0.11469  1.0000
  H   H16       1.0  0.67214  0.72910  0.61470  1.0000
  H   H17       1.0  0.09962  0.40497  0.81219  1.0000
  H   H18       1.0  0.40043  0.09498  0.31219  1.0000
  H   H19       1.0  0.90040  0.59501  0.18781  1.0000
  H   H20       1.0  0.59954  0.90500  0.68781  1.0000
  C   C1        1.0  0.76973  0.80105  0.87218  1.0000
  C   C2        1.0  0.73027  0.69892  0.37219  1.0000
  C   C3        1.0  0.23024  0.19894  0.12781  1.0000
  C   C4        1.0  0.26971  0.30106  0.62782  1.0000
  C   C5        1.0  0.79677  0.71298  0.91425  1.0000
  C   C6        1.0  0.70324  0.78698  0.41425  1.0000
  C   C7        1.0  0.20324  0.28702  0.08575  1.0000
  C   C8        1.0  0.29676  0.21301  0.58575  1.0000
  C   C9        1.0  0.94495  0.50405  0.91972  1.0000
  C   C10       1.0  0.55506  0.99594  0.41972  1.0000
  C   C11       1.0  0.05507  0.49597  0.08028  1.0000
  C   C12       1.0  0.44492  0.00404  0.58028  1.0000
  C   C13       1.0  0.05398  0.39115  0.88267  1.0000
  C   C14       1.0  0.44607  0.10881  0.38267  1.0000
  C   C15       1.0  0.94605  0.60882  0.11733  1.0000
  C   C16       1.0  0.55388  0.89119  0.61733  1.0000
  C   C17       1.0  0.01721  0.48925  0.84184  1.0000
  C   C18       1.0  0.48282  0.01074  0.34184  1.0000
  C   C19       1.0  0.98280  0.51073  0.15816  1.0000
  C   C20       1.0  0.51713  0.98926  0.65816  1.0000
  C   C21       1.0  0.66912  0.84304  0.95159  1.0000
  C   C22       1.0  0.83085  0.65695  0.45160  1.0000
  C   C23       1.0  0.33092  0.15698  0.04840  1.0000
  C   C24       1.0  0.16913  0.34303  0.54841  1.0000
  N   N1        1.0  0.88270  0.69378  0.83648  1.0000
  N   N2        1.0  0.61732  0.80618  0.33648  1.0000
  N   N3        1.0  0.11730  0.30619  0.16351  1.0000
  N   N4        1.0  0.38264  0.19381  0.66352  1.0000
  Cl  Cl1       1.0  0.95288  0.59462  0.72315  1.0000
  Cl  Cl2       1.0  0.54709  0.90544  0.22315  1.0000
  Cl  Cl3       1.0  0.04708  0.40544  0.27684  1.0000
  Cl  Cl4       1.0  0.45291  0.09463  0.77686  1.0000
  O   O1        1.0  0.73279  0.75759  0.99037  1.0000
  O   O2        1.0  0.76718  0.74243  0.49037  1.0000
  O   O3        1.0  0.26724  0.24244  0.00962  1.0000
  O   O4        1.0  0.23281  0.25755  0.50964  1.0000
  O   O5        1.0  0.51205  0.02131  0.94620  1.0000
  O   O6        1.0  0.98794  0.47868  0.44621  1.0000
  O   O7        1.0  0.48804  0.97873  0.05379  1.0000
  O   O8        1.0  0.01205  0.52130  0.55379  1.0000
