data_image0
_chemical_formula_structural       Zn2H16C24S4N8
_chemical_formula_sum              "Zn2 H16 C24 S4 N8"
_cell_length_a       4.64196
_cell_length_b       9.31035
_cell_length_c       16.8238
_cell_angle_alpha    84.0825
_cell_angle_beta     83.0864
_cell_angle_gamma    76.9927

_space_group_name_H-M_alt    "P 1"
_space_group_IT_number       1

loop_
  _space_group_symop_operation_xyz
  'x, y, z'

loop_
  _atom_site_type_symbol
  _atom_site_label
  _atom_site_symmetry_multiplicity
  _atom_site_fract_x
  _atom_site_fract_y
  _atom_site_fract_z
  _atom_site_occupancy
  Zn  Zn1       1.0  0.68593  0.25090  0.75099  1.0000
  Zn  Zn2       1.0  0.31409  0.74910  0.24901  1.0000
  H   H1        1.0  0.67690  0.45230  0.29508  1.0000
  H   H2        1.0  0.42486  0.05137  0.19930  1.0000
  H   H3        1.0  0.32310  0.54769  0.70492  1.0000
  H   H4        1.0  0.57514  0.94863  0.80071  1.0000
  H   H5        1.0  0.98950  0.33457  0.40072  1.0000
  H   H6        1.0  0.71550  0.17061  0.09188  1.0000
  H   H7        1.0  0.01052  0.66543  0.59927  1.0000
  H   H8        1.0  0.28446  0.82940  0.90812  1.0000
  H   H9        1.0  0.75250  0.75250  0.51178  1.0000
  H   H10       1.0  0.01972  0.74246  0.99321  1.0000
  H   H11       1.0  0.24752  0.24750  0.48822  1.0000
  H   H12       1.0  0.98029  0.25756  0.00679  1.0000
  H   H13       1.0  0.44795  0.85227  0.40088  1.0000
  H   H14       1.0  0.70504  0.64306  0.10356  1.0000
  H   H15       1.0  0.55205  0.14771  0.59912  1.0000
  H   H16       1.0  0.29498  0.35695  0.89643  1.0000
  C   C1        1.0  0.70090  0.51534  0.34417  1.0000
  C   C2        1.0  0.55978  0.98686  0.15225  1.0000
  C   C3        1.0  0.29908  0.48465  0.65584  1.0000
  C   C4        1.0  0.44022  0.01314  0.84775  1.0000
  C   C5        1.0  0.87806  0.45009  0.40452  1.0000
  C   C6        1.0  0.72752  0.05267  0.09133  1.0000
  C   C7        1.0  0.12194  0.54990  0.59548  1.0000
  C   C8        1.0  0.27245  0.94735  0.90867  1.0000
  C   C9        1.0  0.90609  0.53263  0.46736  1.0000
  C   C10       1.0  0.90524  0.96732  0.03219  1.0000
  C   C11       1.0  0.09390  0.46735  0.53265  1.0000
  C   C12       1.0  0.09474  0.03270  0.96781  1.0000
  C   C13       1.0  0.74607  0.68009  0.46558  1.0000
  C   C14       1.0  0.89417  0.81699  0.03695  1.0000
  C   C15       1.0  0.25393  0.31989  0.53442  1.0000
  C   C16       1.0  0.10583  0.18303  0.96304  1.0000
  C   C17       1.0  0.57274  0.73791  0.40344  1.0000
  C   C18       1.0  0.71741  0.75930  0.09880  1.0000
  C   C19       1.0  0.42724  0.26208  0.59657  1.0000
  C   C20       1.0  0.28259  0.24071  0.90119  1.0000
  C   C21       1.0  0.83663  0.52182  0.81756  1.0000
  C   C22       1.0  0.15404  0.98908  0.68072  1.0000
  C   C23       1.0  0.16338  0.47819  0.18244  1.0000
  C   C24       1.0  0.84596  0.01092  0.31928  1.0000
  S   S1        1.0  0.93358  0.66106  0.84667  1.0000
  S   S2        1.0  0.39797  0.85694  0.64265  1.0000
  S   S3        1.0  0.06640  0.33895  0.15334  1.0000
  S   S4        1.0  0.60206  0.14306  0.35735  1.0000
  N   N1        1.0  0.55204  0.65749  0.34296  1.0000
  N   N2        1.0  0.55522  0.84211  0.15638  1.0000
  N   N3        1.0  0.44794  0.34249  0.65704  1.0000
  N   N4        1.0  0.44478  0.15789  0.84362  1.0000
  N   N5        1.0  0.77438  0.41670  0.79514  1.0000
  N   N6        1.0  0.97968  0.08879  0.70965  1.0000
  N   N7        1.0  0.22565  0.58329  0.20486  1.0000
  N   N8        1.0  0.02033  0.91120  0.29035  1.0000
