data_image0
_chemical_formula_structural       Cu2P4H72C32O8
_chemical_formula_sum              "Cu2 P4 H72 C32 O8"
_cell_length_a       9.67783
_cell_length_b       9.71584
_cell_length_c       12.245
_cell_angle_alpha    93.8272
_cell_angle_beta     106.016
_cell_angle_gamma    101.127

_space_group_name_H-M_alt    "P 1"
_space_group_IT_number       1

loop_
  _space_group_symop_operation_xyz
  'x, y, z'

loop_
  _atom_site_type_symbol
  _atom_site_label
  _atom_site_symmetry_multiplicity
  _atom_site_fract_x
  _atom_site_fract_y
  _atom_site_fract_z
  _atom_site_occupancy
  Cu  Cu1       1.0  0.74065  0.97262  0.98859  1.0000
  Cu  Cu2       1.0  0.25935  0.02738  0.01142  1.0000
  P   P1        1.0  0.47581  0.09070  0.85692  1.0000
  P   P2        1.0  0.52417  0.90930  0.14309  1.0000
  P   P3        1.0  0.96238  0.04740  0.84018  1.0000
  P   P4        1.0  0.03763  0.95260  0.15982  1.0000
  H   H1        1.0  0.33601  0.24154  0.75339  1.0000
  H   H2        1.0  0.66400  0.75847  0.24661  1.0000
  H   H3        1.0  0.48180  0.21931  0.69665  1.0000
  H   H4        1.0  0.51820  0.78069  0.30335  1.0000
  H   H5        1.0  0.66564  0.37104  0.87179  1.0000
  H   H6        1.0  0.33436  0.62896  0.12822  1.0000
  H   H7        1.0  0.51996  0.39803  0.92461  1.0000
  H   H8        1.0  0.48004  0.60197  0.07539  1.0000
  H   H9        1.0  0.56178  0.48457  0.69704  1.0000
  H   H10       1.0  0.43823  0.51544  0.30297  1.0000
  H   H11       1.0  0.41795  0.51316  0.75156  1.0000
  H   H12       1.0  0.58206  0.48685  0.24845  1.0000
  H   H13       1.0  0.60389  0.66631  0.92561  1.0000
  H   H14       1.0  0.39611  0.33369  0.07440  1.0000
  H   H15       1.0  0.74873  0.63974  0.86932  1.0000
  H   H16       1.0  0.25127  0.36026  0.13069  1.0000
  H   H17       1.0  0.61884  0.73331  0.79759  1.0000
  H   H18       1.0  0.38117  0.26670  0.20242  1.0000
  H   H19       1.0  0.37270  0.84620  0.81906  1.0000
  H   H20       1.0  0.62729  0.15380  0.18094  1.0000
  H   H21       1.0  0.24820  0.94274  0.74288  1.0000
  H   H22       1.0  0.75180  0.05726  0.25712  1.0000
  H   H23       1.0  0.41359  0.99110  0.60941  1.0000
  H   H24       1.0  0.58642  0.00891  0.39060  1.0000
  H   H25       1.0  0.52424  0.88354  0.68451  1.0000
  H   H26       1.0  0.47576  0.11646  0.31550  1.0000
  H   H27       1.0  0.30128  0.67841  0.62606  1.0000
  H   H28       1.0  0.69871  0.32159  0.37394  1.0000
  H   H29       1.0  0.19605  0.78917  0.54959  1.0000
  H   H30       1.0  0.80395  0.21084  0.45040  1.0000
  H   H31       1.0  0.46769  0.70768  0.49995  1.0000
  H   H32       1.0  0.53231  0.29233  0.50006  1.0000
  H   H33       1.0  0.36879  0.82576  0.42510  1.0000
  H   H34       1.0  0.63123  0.17425  0.57490  1.0000
  H   H35       1.0  0.28147  0.64538  0.41492  1.0000
  H   H36       1.0  0.71855  0.35462  0.58508  1.0000
  H   H37       1.0  0.76987  0.02370  0.66348  1.0000
  H   H38       1.0  0.23014  0.97631  0.33651  1.0000
  H   H39       1.0  0.94686  0.07848  0.64414  1.0000
  H   H40       1.0  0.05315  0.92153  0.35587  1.0000
  H   H41       1.0  0.99282  0.83232  0.68048  1.0000
  H   H42       1.0  0.00719  0.16768  0.31952  1.0000
  H   H43       1.0  0.81054  0.78004  0.68540  1.0000
  H   H44       1.0  0.18947  0.21996  0.31460  1.0000
  H   H45       1.0  0.71687  0.82973  0.48203  1.0000
  H   H46       1.0  0.28313  0.17028  0.51797  1.0000
  H   H47       1.0  0.89919  0.88542  0.47785  1.0000
  H   H48       1.0  0.10081  0.11459  0.52215  1.0000
  H   H49       1.0  0.75984  0.58569  0.51605  1.0000
  H   H50       1.0  0.24016  0.41432  0.48394  1.0000
  H   H51       1.0  0.94433  0.64117  0.51310  1.0000
  H   H52       1.0  0.05568  0.35883  0.48689  1.0000
  H   H53       1.0  0.79591  0.63259  0.38748  1.0000
  H   H54       1.0  0.20409  0.36742  0.61251  1.0000
  H   H55       1.0  0.00278  0.24585  0.97467  1.0000
  H   H56       1.0  0.99721  0.75415  0.02533  1.0000
  H   H57       1.0  0.84577  0.23951  0.85702  1.0000
  H   H58       1.0  0.15422  0.76049  0.14298  1.0000
  H   H59       1.0  0.17028  0.32224  0.85479  1.0000
  H   H60       1.0  0.82972  0.67775  0.14521  1.0000
  H   H61       1.0  0.01689  0.31649  0.73486  1.0000
  H   H62       1.0  0.98311  0.68350  0.26514  1.0000
  H   H63       1.0  0.09499  0.51023  0.96089  1.0000
  H   H64       1.0  0.90500  0.48977  0.03910  1.0000
  H   H65       1.0  0.93992  0.50301  0.84263  1.0000
  H   H66       1.0  0.06007  0.49698  0.15736  1.0000
  H   H67       1.0  0.11026  0.58148  0.72242  1.0000
  H   H68       1.0  0.88973  0.41851  0.27757  1.0000
  H   H69       1.0  0.26434  0.59265  0.84480  1.0000
  H   H70       1.0  0.73565  0.40735  0.15520  1.0000
  H   H71       1.0  0.14134  0.70661  0.84397  1.0000
  H   H72       1.0  0.85865  0.29338  0.15603  1.0000
  C   C1        1.0  0.45386  0.23931  0.77661  1.0000
  C   C2        1.0  0.54614  0.76069  0.22340  1.0000
  C   C3        1.0  0.54932  0.37916  0.84494  1.0000
  C   C4        1.0  0.45068  0.62083  0.15506  1.0000
  C   C5        1.0  0.53425  0.50484  0.77744  1.0000
  C   C6        1.0  0.46575  0.49516  0.22256  1.0000
  C   C7        1.0  0.63135  0.64311  0.84594  1.0000
  C   C8        1.0  0.36865  0.35689  0.15406  1.0000
  C   C9        1.0  0.36335  0.93182  0.76473  1.0000
  C   C10       1.0  0.63665  0.06818  0.23526  1.0000
  C   C11       1.0  0.41066  0.89954  0.65801  1.0000
  C   C12       1.0  0.58934  0.10046  0.34199  1.0000
  C   C13       1.0  0.30843  0.77008  0.57796  1.0000
  C   C14       1.0  0.69157  0.22993  0.42204  1.0000
  C   C15       1.0  0.35908  0.73505  0.47386  1.0000
  C   C16       1.0  0.64093  0.26496  0.52614  1.0000
  C   C17       1.0  0.88231  0.00472  0.68565  1.0000
  C   C18       1.0  0.11769  0.99527  0.31435  1.0000
  C   C19       1.0  0.88119  0.85135  0.64657  1.0000
  C   C20       1.0  0.11882  0.14865  0.35343  1.0000
  C   C21       1.0  0.82931  0.81266  0.51653  1.0000
  C   C22       1.0  0.17069  0.18734  0.48346  1.0000
  C   C23       1.0  0.83240  0.65989  0.48095  1.0000
  C   C24       1.0  0.16760  0.34011  0.51904  1.0000
  C   C25       1.0  0.96143  0.22996  0.88033  1.0000
  C   C26       1.0  0.03857  0.77003  0.11967  1.0000
  C   C27       1.0  0.05615  0.33693  0.82924  1.0000
  C   C28       1.0  0.94384  0.66306  0.17075  1.0000
  C   C29       1.0  0.05479  0.48980  0.86678  1.0000
  C   C30       1.0  0.94520  0.51018  0.13321  1.0000
  C   C31       1.0  0.14761  0.59855  0.81670  1.0000
  C   C32       1.0  0.85238  0.40144  0.18330  1.0000
  O   O1        1.0  0.63919  0.08411  0.88137  1.0000
  O   O2        1.0  0.36082  0.91589  0.11863  1.0000
  O   O3        1.0  0.57316  0.88355  0.03598  1.0000
  O   O4        1.0  0.42684  0.11645  0.96401  1.0000
  O   O5        1.0  0.87003  0.94593  0.89698  1.0000
  O   O6        1.0  0.12996  0.05406  0.10303  1.0000
  O   O7        1.0  0.87686  0.96779  0.13682  1.0000
  O   O8        1.0  0.12313  0.03221  0.86319  1.0000
