data_image0
_chemical_formula_structural       Ag2H56C40N10O6
_chemical_formula_sum              "Ag2 H56 C40 N10 O6"
_cell_length_a       9.30565
_cell_length_b       10.1052
_cell_length_c       11.3678
_cell_angle_alpha    90
_cell_angle_beta     90
_cell_angle_gamma    94.5381

_space_group_name_H-M_alt    "P 1"
_space_group_IT_number       1

loop_
  _space_group_symop_operation_xyz
  'x, y, z'

loop_
  _atom_site_type_symbol
  _atom_site_label
  _atom_site_symmetry_multiplicity
  _atom_site_fract_x
  _atom_site_fract_y
  _atom_site_fract_z
  _atom_site_occupancy
  Ag  Ag1       1.0  0.25605  0.15462  0.71989  1.0000
  Ag  Ag2       1.0  0.74395  0.84538  0.21989  1.0000
  H   H1        1.0  0.97087  0.29283  0.66682  1.0000
  H   H2        1.0  0.02913  0.70717  0.16682  1.0000
  H   H3        1.0  0.77959  0.39902  0.60022  1.0000
  H   H4        1.0  0.22041  0.60098  0.10022  1.0000
  H   H5        1.0  0.73661  0.31789  0.40954  1.0000
  H   H6        1.0  0.26340  0.68212  0.90954  1.0000
  H   H7        1.0  0.85076  0.44458  0.34196  1.0000
  H   H8        1.0  0.14924  0.55542  0.84196  1.0000
  H   H9        1.0  0.65636  0.57262  0.31518  1.0000
  H   H10       1.0  0.34364  0.42738  0.81518  1.0000
  H   H11       1.0  0.53883  0.45296  0.38774  1.0000
  H   H12       1.0  0.46117  0.54704  0.88774  1.0000
  H   H13       1.0  0.62030  0.70294  0.48535  1.0000
  H   H14       1.0  0.37970  0.29706  0.98535  1.0000
  H   H15       1.0  0.57113  0.55950  0.57272  1.0000
  H   H16       1.0  0.42887  0.44050  0.07272  1.0000
  H   H17       1.0  0.92441  0.64721  0.69656  1.0000
  H   H18       1.0  0.07559  0.35278  0.19656  1.0000
  H   H19       1.0  0.74286  0.58852  0.73014  1.0000
  H   H20       1.0  0.25714  0.41148  0.23014  1.0000
  H   H21       1.0  0.78311  0.75254  0.67271  1.0000
  H   H22       1.0  0.21690  0.24746  0.17271  1.0000
  H   H23       1.0  0.05698  0.60729  0.41640  1.0000
  H   H24       1.0  0.94302  0.39271  0.91640  1.0000
  H   H25       1.0  0.31940  0.57376  0.43458  1.0000
  H   H26       1.0  0.68060  0.42624  0.93458  1.0000
  H   H27       1.0  0.39509  0.39261  0.56913  1.0000
  H   H28       1.0  0.60491  0.60739  0.06913  1.0000
  H   H29       1.0  0.96274  0.17269  0.86067  1.0000
  H   H30       1.0  0.03725  0.82731  0.36067  1.0000
  H   H31       1.0  0.77241  0.17920  0.98263  1.0000
  H   H32       1.0  0.22759  0.82080  0.48263  1.0000
  H   H33       1.0  0.82908  0.29908  0.16161  1.0000
  H   H34       1.0  0.17092  0.70091  0.66160  1.0000
  H   H35       1.0  0.85505  0.15249  0.24181  1.0000
  H   H36       1.0  0.14495  0.84751  0.74181  1.0000
  H   H37       1.0  0.60997  0.13837  0.29077  1.0000
  H   H38       1.0  0.39003  0.86163  0.79077  1.0000
  H   H39       1.0  0.57458  0.26713  0.19228  1.0000
  H   H40       1.0  0.42542  0.73287  0.69228  1.0000
  H   H41       1.0  0.48591  0.99849  0.14558  1.0000
  H   H42       1.0  0.51409  0.00151  0.64558  1.0000
  H   H43       1.0  0.52164  0.12170  0.03414  1.0000
  H   H44       1.0  0.47836  0.87830  0.53414  1.0000
  H   H45       1.0  0.58314  0.85067  0.97482  1.0000
  H   H46       1.0  0.41686  0.14932  0.47482  1.0000
  H   H47       1.0  0.76567  0.88739  0.93118  1.0000
  H   H48       1.0  0.23432  0.11261  0.43118  1.0000
  H   H49       1.0  0.63205  0.99762  0.88984  1.0000
  H   H50       1.0  0.36795  0.00238  0.38984  1.0000
  H   H51       1.0  0.98508  0.97100  0.19216  1.0000
  H   H52       1.0  0.01492  0.02900  0.69217  1.0000
  H   H53       1.0  0.22918  0.90541  0.13277  1.0000
  H   H54       1.0  0.77082  0.09460  0.63277  1.0000
  H   H55       1.0  0.33157  0.98525  0.93939  1.0000
  H   H56       1.0  0.66843  0.01476  0.43939  1.0000
  C   C1        1.0  0.04629  0.35546  0.61340  1.0000
  C   C2        1.0  0.95371  0.64454  0.11340  1.0000
  C   C3        1.0  0.99348  0.45137  0.54032  1.0000
  C   C4        1.0  0.00652  0.54863  0.04032  1.0000
  C   C5        1.0  0.83387  0.46404  0.53244  1.0000
  C   C6        1.0  0.16613  0.53596  0.03244  1.0000
  C   C7        1.0  0.76964  0.42444  0.41126  1.0000
  C   C8        1.0  0.23036  0.57556  0.91126  1.0000
  C   C9        1.0  0.64247  0.51231  0.39520  1.0000
  C   C10       1.0  0.35753  0.48769  0.89520  1.0000
  C   C11       1.0  0.64767  0.60152  0.50464  1.0000
  C   C12       1.0  0.35234  0.39848  0.00464  1.0000
  C   C13       1.0  0.81202  0.64942  0.66756  1.0000
  C   C14       1.0  0.18798  0.35058  0.16756  1.0000
  C   C15       1.0  0.09366  0.53072  0.47420  1.0000
  C   C16       1.0  0.90635  0.46928  0.97420  1.0000
  C   C17       1.0  0.23973  0.51176  0.48422  1.0000
  C   C18       1.0  0.76027  0.48824  0.98422  1.0000
  C   C19       1.0  0.28229  0.41243  0.55861  1.0000
  C   C20       1.0  0.71771  0.58757  0.05861  1.0000
  C   C21       1.0  0.02006  0.11439  0.92359  1.0000
  C   C22       1.0  0.97994  0.88562  0.42359  1.0000
  C   C23       1.0  0.95419  0.07676  0.03013  1.0000
  C   C24       1.0  0.04581  0.92325  0.53013  1.0000
  C   C25       1.0  0.80598  0.11793  0.05699  1.0000
  C   C26       1.0  0.19402  0.88207  0.55699  1.0000
  C   C27       1.0  0.79068  0.19454  0.17215  1.0000
  C   C28       1.0  0.20931  0.80546  0.67215  1.0000
  C   C29       1.0  0.62779  0.17446  0.20051  1.0000
  C   C30       1.0  0.37221  0.82555  0.70051  1.0000
  C   C31       1.0  0.56758  0.07166  0.11017  1.0000
  C   C32       1.0  0.43242  0.92834  0.61017  1.0000
  C   C33       1.0  0.66712  0.93123  0.95962  1.0000
  C   C34       1.0  0.33287  0.06877  0.45962  1.0000
  C   C35       1.0  0.03193  0.00201  0.10755  1.0000
  C   C36       1.0  0.96807  0.99800  0.60755  1.0000
  C   C37       1.0  0.16808  0.96654  0.07549  1.0000
  C   C38       1.0  0.83192  0.03346  0.57549  1.0000
  C   C39       1.0  0.22471  0.00917  0.96741  1.0000
  C   C40       1.0  0.77529  0.99083  0.46741  1.0000
  N   N1        1.0  0.18713  0.33473  0.62223  1.0000
  N   N2        1.0  0.81288  0.66527  0.12223  1.0000
  N   N3        1.0  0.79620  0.60192  0.54722  1.0000
  N   N4        1.0  0.20380  0.39808  0.04722  1.0000
  N   N5        1.0  0.15244  0.08240  0.89215  1.0000
  N   N6        1.0  0.84756  0.91761  0.39215  1.0000
  N   N7        1.0  0.69480  0.00407  0.07030  1.0000
  N   N8        1.0  0.30519  0.99593  0.57030  1.0000
  N   N9        1.0  0.59618  0.23115  0.74637  1.0000
  N   N10       1.0  0.40382  0.76885  0.24637  1.0000
  O   O1        1.0  0.72534  0.25321  0.78100  1.0000
  O   O2        1.0  0.27466  0.74679  0.28100  1.0000
  O   O3        1.0  0.49930  0.18760  0.81960  1.0000
  O   O4        1.0  0.50070  0.81240  0.31960  1.0000
  O   O5        1.0  0.56290  0.24995  0.63996  1.0000
  O   O6        1.0  0.43710  0.75005  0.13996  1.0000
