data_image0
_chemical_formula_structural       Zn2H36C30N12Cl4O2
_chemical_formula_sum              "Zn2 H36 C30 N12 Cl4 O2"
_cell_length_a       7.86969
_cell_length_b       8.88471
_cell_length_c       13.8564
_cell_angle_alpha    104.286
_cell_angle_beta     100.113
_cell_angle_gamma    106.756

_space_group_name_H-M_alt    "P 1"
_space_group_IT_number       1

loop_
  _space_group_symop_operation_xyz
  'x, y, z'

loop_
  _atom_site_type_symbol
  _atom_site_label
  _atom_site_symmetry_multiplicity
  _atom_site_fract_x
  _atom_site_fract_y
  _atom_site_fract_z
  _atom_site_occupancy
  Zn  Zn1       1.0  0.34757  0.45489  0.21031  1.0000
  Zn  Zn2       1.0  0.65244  0.54511  0.78969  1.0000
  H   H1        1.0  0.28998  0.24396  0.32848  1.0000
  H   H2        1.0  0.71002  0.75604  0.67152  1.0000
  H   H3        1.0  0.86060  0.52126  0.00264  1.0000
  H   H4        1.0  0.13940  0.47874  0.99736  1.0000
  H   H5        1.0  0.41252  0.28616  0.99499  1.0000
  H   H6        1.0  0.58748  0.71384  0.00501  1.0000
  H   H7        1.0  0.26415  0.13769  0.46582  1.0000
  H   H8        1.0  0.73585  0.86231  0.53418  1.0000
  H   H9        1.0  0.13074  0.93667  0.37857  1.0000
  H   H10       1.0  0.86927  0.06332  0.62143  1.0000
  H   H11       1.0  0.79272  0.85731  0.31740  1.0000
  H   H12       1.0  0.20728  0.14268  0.68260  1.0000
  H   H13       1.0  0.51127  0.91686  0.34051  1.0000
  H   H14       1.0  0.48873  0.08313  0.65949  1.0000
  H   H15       1.0  0.53905  0.19874  0.45036  1.0000
  H   H16       1.0  0.46095  0.80125  0.54965  1.0000
  H   H17       1.0  0.84441  0.41272  0.53534  1.0000
  H   H18       1.0  0.15558  0.58728  0.46466  1.0000
  H   H19       1.0  0.12869  0.35131  0.51280  1.0000
  H   H20       1.0  0.87131  0.64869  0.48719  1.0000
  H   H21       1.0  0.34403  0.05094  0.84057  1.0000
  H   H22       1.0  0.65597  0.94906  0.15943  1.0000
  H   H23       1.0  0.13314  0.88599  0.81888  1.0000
  H   H24       1.0  0.86686  0.11402  0.18112  1.0000
  H   H25       1.0  0.34777  0.86660  0.86967  1.0000
  H   H26       1.0  0.65222  0.13340  0.13033  1.0000
  H   H27       1.0  0.72833  0.41969  0.11347  1.0000
  H   H28       1.0  0.27168  0.58032  0.88653  1.0000
  H   H29       1.0  0.78720  0.62267  0.19877  1.0000
  H   H30       1.0  0.21280  0.37734  0.80123  1.0000
  H   H31       1.0  0.09571  0.62553  0.27676  1.0000
  H   H32       1.0  0.90429  0.37447  0.72324  1.0000
  H   H33       1.0  0.91670  0.45801  0.28683  1.0000
  H   H34       1.0  0.08330  0.54199  0.71317  1.0000
  H   H35       1.0  0.99774  0.32999  0.10710  1.0000
  H   H36       1.0  0.00227  0.67002  0.89290  1.0000
  C   C1        1.0  0.02680  0.75409  0.09530  1.0000
  C   C2        1.0  0.97320  0.24591  0.90470  1.0000
  C   C3        1.0  0.18743  0.95067  0.03806  1.0000
  C   C4        1.0  0.81257  0.04933  0.96194  1.0000
  C   C5        1.0  0.22995  0.07355  0.13300  1.0000
  C   C6        1.0  0.77006  0.92645  0.86700  1.0000
  C   C7        1.0  0.16996  0.02010  0.21425  1.0000
  C   C8        1.0  0.83005  0.97990  0.78575  1.0000
  C   C9        1.0  0.34689  0.19456  0.02897  1.0000
  C   C10       1.0  0.65311  0.80544  0.97103  1.0000
  C   C11       1.0  0.15133  0.06879  0.39532  1.0000
  C   C12       1.0  0.84867  0.93121  0.60468  1.0000
  C   C13       1.0  0.97864  0.10192  0.41125  1.0000
  C   C14       1.0  0.02135  0.89808  0.58875  1.0000
  C   C15       1.0  0.80436  0.98001  0.36415  1.0000
  C   C16       1.0  0.19564  0.01999  0.63585  1.0000
  C   C17       1.0  0.64571  0.01380  0.37746  1.0000
  C   C18       1.0  0.35428  0.98620  0.62254  1.0000
  C   C19       1.0  0.66077  0.17024  0.43848  1.0000
  C   C20       1.0  0.33923  0.82976  0.56153  1.0000
  C   C21       1.0  0.83419  0.29190  0.48672  1.0000
  C   C22       1.0  0.16581  0.70809  0.51327  1.0000
  C   C23       1.0  0.99249  0.25784  0.47352  1.0000
  C   C24       1.0  0.00751  0.74216  0.52648  1.0000
  C   C25       1.0  0.27269  0.95336  0.86941  1.0000
  C   C26       1.0  0.72730  0.04665  0.13059  1.0000
  C   C27       1.0  0.84336  0.53616  0.15527  1.0000
  C   C28       1.0  0.15664  0.46384  0.84473  1.0000
  C   C29       1.0  0.98442  0.50768  0.23247  1.0000
  C   C30       1.0  0.01558  0.49232  0.76753  1.0000
  N   N1        1.0  0.06711  0.85941  0.19122  1.0000
  N   N2        1.0  0.93289  0.14059  0.80878  1.0000
  N   N3        1.0  0.08607  0.78989  0.01374  1.0000
  N   N4        1.0  0.91393  0.21011  0.98626  1.0000
  N   N5        1.0  0.21090  0.12178  0.31097  1.0000
  N   N6        1.0  0.78910  0.87823  0.68903  1.0000
  N   N7        1.0  0.32795  0.22574  0.12475  1.0000
  N   N8        1.0  0.67205  0.77426  0.87525  1.0000
  N   N9        1.0  0.91559  0.59629  0.07732  1.0000
  N   N10       1.0  0.08441  0.40371  0.92268  1.0000
  N   N11       1.0  0.26696  0.02984  0.97414  1.0000
  N   N12       1.0  0.73304  0.97016  0.02586  1.0000
  Cl  Cl1       1.0  0.47331  0.51719  0.37641  1.0000
  Cl  Cl2       1.0  0.52669  0.48281  0.62359  1.0000
  Cl  Cl3       1.0  0.42257  0.64438  0.13026  1.0000
  Cl  Cl4       1.0  0.57743  0.35562  0.86974  1.0000
  O   O1        1.0  0.06600  0.39360  0.18365  1.0000
  O   O2        1.0  0.93401  0.60640  0.81635  1.0000
