data_image0
_chemical_formula_structural       Zn2H52C60N8O8
_chemical_formula_sum              "Zn2 H52 C60 N8 O8"
_cell_length_a       12.1352
_cell_length_b       12.117
_cell_length_c       12.2142
_cell_angle_alpha    61.2856
_cell_angle_beta     78.1818
_cell_angle_gamma    107.619

_space_group_name_H-M_alt    "P 1"
_space_group_IT_number       1

loop_
  _space_group_symop_operation_xyz
  'x, y, z'

loop_
  _atom_site_type_symbol
  _atom_site_label
  _atom_site_symmetry_multiplicity
  _atom_site_fract_x
  _atom_site_fract_y
  _atom_site_fract_z
  _atom_site_occupancy
  Zn  Zn1       1.0  0.45574  0.75137  0.29544  1.0000
  Zn  Zn2       1.0  0.04644  0.25113  0.20336  1.0000
  H   H1        1.0  0.74990  0.86175  0.25860  1.0000
  H   H2        1.0  0.75512  0.99575  0.38556  1.0000
  H   H3        1.0  0.12087  0.50812  0.24115  1.0000
  H   H4        1.0  0.38130  0.64054  0.11294  1.0000
  H   H5        1.0  0.35638  0.26514  0.68006  1.0000
  H   H6        1.0  0.14202  0.96276  0.59286  1.0000
  H   H7        1.0  0.94367  0.53709  0.82199  1.0000
  H   H8        1.0  0.55768  0.23508  0.90507  1.0000
  H   H9        1.0  0.01066  0.21587  0.98738  1.0000
  H   H10       1.0  0.48821  0.00309  0.29518  1.0000
  H   H11       1.0  0.20339  0.49949  0.51396  1.0000
  H   H12       1.0  0.29846  0.28313  0.20324  1.0000
  H   H13       1.0  0.97825  0.04423  0.12035  1.0000
  H   H14       1.0  0.52621  0.90402  0.43002  1.0000
  H   H15       1.0  0.16402  0.59877  0.38055  1.0000
  H   H16       1.0  0.33326  0.45503  0.06863  1.0000
  H   H17       1.0  0.04097  0.87640  0.81524  1.0000
  H   H18       1.0  0.46085  0.14430  0.66345  1.0000
  H   H19       1.0  0.69322  0.35613  0.68290  1.0000
  H   H20       1.0  0.80493  0.62348  0.83852  1.0000
  H   H21       1.0  0.58708  0.02516  0.98421  1.0000
  H   H22       1.0  0.90807  0.42856  0.06173  1.0000
  H   H23       1.0  0.00975  0.07246  0.51567  1.0000
  H   H24       1.0  0.49099  0.47136  0.43838  1.0000
  H   H25       1.0  0.21830  0.28367  0.84388  1.0000
  H   H26       1.0  0.28051  0.93774  0.43588  1.0000
  H   H27       1.0  0.12597  0.56303  0.65872  1.0000
  H   H28       1.0  0.37559  0.21620  0.06165  1.0000
  H   H29       1.0  0.90316  0.89886  0.97359  1.0000
  H   H30       1.0  0.59896  0.12405  0.50305  1.0000
  H   H31       1.0  0.87426  0.37707  0.52488  1.0000
  H   H32       1.0  0.62421  0.60085  0.99854  1.0000
  H   H33       1.0  0.34977  0.49573  0.75305  1.0000
  H   H34       1.0  0.15196  0.89269  0.35411  1.0000
  H   H35       1.0  0.25024  0.60218  0.74623  1.0000
  H   H36       1.0  0.24553  0.00528  0.14647  1.0000
  H   H37       1.0  0.50422  0.50868  0.72292  1.0000
  H   H38       1.0  0.99815  0.77249  0.49285  1.0000
  H   H39       1.0  0.23216  0.72592  0.77739  1.0000
  H   H40       1.0  0.26317  0.98914  0.00749  1.0000
  H   H41       1.0  0.85068  0.20200  0.85086  1.0000
  H   H42       1.0  0.64371  0.29806  0.14906  1.0000
  H   H43       1.0  0.05385  0.20343  0.64983  1.0000
  H   H44       1.0  0.44575  0.29250  0.35184  1.0000
  H   H45       1.0  0.69033  0.74711  0.62462  1.0000
  H   H46       1.0  0.81031  0.68251  0.44375  1.0000
  H   H47       1.0  0.37162  0.81458  0.87709  1.0000
  H   H48       1.0  0.12598  0.75245  0.05589  1.0000
  H   H49       1.0  0.76158  0.91914  0.68078  1.0000
  H   H50       1.0  0.73816  0.55586  0.34287  1.0000
  H   H51       1.0  0.59882  0.94309  0.82026  1.0000
  H   H52       1.0  0.89983  0.58052  0.15540  1.0000
  C   C1        1.0  0.74062  0.93092  0.16684  1.0000
  C   C2        1.0  0.76155  0.09556  0.30804  1.0000
  C   C3        1.0  0.09848  0.40766  0.33301  1.0000
  C   C4        1.0  0.40345  0.56967  0.19105  1.0000
  C   C5        1.0  0.20909  0.06923  0.73514  1.0000
  C   C6        1.0  0.29105  0.05579  0.64000  1.0000
  C   C7        1.0  0.80428  0.44435  0.76501  1.0000
  C   C8        1.0  0.69552  0.43080  0.86000  1.0000
  C   C9        1.0  0.05149  0.09372  0.91839  1.0000
  C   C10       1.0  0.44900  0.03070  0.45761  1.0000
  C   C11       1.0  0.01237  0.47073  0.58201  1.0000
  C   C12       1.0  0.48774  0.40591  0.04189  1.0000
  C   C13       1.0  0.48445  0.63490  0.53947  1.0000
  C   C14       1.0  0.01755  0.97651  0.34918  1.0000
  C   C15       1.0  0.17417  0.52303  0.96034  1.0000
  C   C16       1.0  0.32561  0.86704  0.15053  1.0000
  C   C17       1.0  0.49018  0.68195  0.71854  1.0000
  C   C18       1.0  0.00953  0.79022  0.30788  1.0000
  C   C19       1.0  0.40025  0.70703  0.78348  1.0000
  C   C20       1.0  0.09810  0.81664  0.19224  1.0000
  C   C21       1.0  0.25739  0.18338  0.74544  1.0000
  C   C22       1.0  0.24185  0.99675  0.57503  1.0000
  C   C23       1.0  0.92788  0.50330  0.75593  1.0000
  C   C24       1.0  0.57280  0.31678  0.92368  1.0000
  C   C25       1.0  0.97263  0.10459  0.02180  1.0000
  C   C26       1.0  0.52836  0.00727  0.36678  1.0000
  C   C27       1.0  0.12667  0.49534  0.47897  1.0000
  C   C28       1.0  0.37343  0.39435  0.13230  1.0000
  C   C29       1.0  0.08000  0.96825  0.81813  1.0000
  C   C30       1.0  0.42107  0.10211  0.61127  1.0000
  C   C31       1.0  0.78737  0.39833  0.68092  1.0000
  C   C32       1.0  0.71161  0.53165  0.88978  1.0000
  C   C33       1.0  0.66074  0.02049  0.02084  1.0000
  C   C34       1.0  0.83630  0.31912  0.14000  1.0000
  C   C35       1.0  0.04195  0.18256  0.47907  1.0000
  C   C36       1.0  0.45924  0.47719  0.36000  1.0000
  C   C37       1.0  0.17970  0.19539  0.83575  1.0000
  C   C38       1.0  0.31971  0.98444  0.48517  1.0000
  C   C39       1.0  0.03031  0.51622  0.66576  1.0000
  C   C40       1.0  0.47052  0.30460  0.01331  1.0000
  C   C41       1.0  0.00220  0.98042  0.90812  1.0000
  C   C42       1.0  0.49905  0.09013  0.52122  1.0000
  C   C43       1.0  0.88963  0.41081  0.59108  1.0000
  C   C44       1.0  0.60951  0.51940  0.97959  1.0000
  C   C45       1.0  0.45179  0.56933  0.69153  1.0000
  C   C46       1.0  0.04968  0.85507  0.38172  1.0000
  C   C47       1.0  0.26142  0.64211  0.80901  1.0000
  C   C48       1.0  0.23572  0.93040  0.11862  1.0000
  C   C49       1.0  0.78992  0.10660  0.95412  1.0000
  C   C50       1.0  0.70669  0.25654  0.18317  1.0000
  C   C51       1.0  0.06175  0.24542  0.54618  1.0000
  C   C52       1.0  0.43876  0.38980  0.31724  1.0000
  C   C53       1.0  0.61984  0.76173  0.68002  1.0000
  C   C54       1.0  0.88017  0.69841  0.35835  1.0000
  C   C55       1.0  0.44127  0.79902  0.82179  1.0000
  C   C56       1.0  0.05693  0.73747  0.14124  1.0000
  C   C57       1.0  0.66010  0.85794  0.71286  1.0000
  C   C58       1.0  0.83940  0.62567  0.30230  1.0000
  C   C59       1.0  0.56979  0.87282  0.78857  1.0000
  C   C60       1.0  0.92900  0.64123  0.19655  1.0000
  N   N1        1.0  0.63120  0.91163  0.15361  1.0000
  N   N2        1.0  0.86928  0.21743  0.21840  1.0000
  N   N3        1.0  0.06570  0.28505  0.34603  1.0000
  N   N4        1.0  0.43644  0.58863  0.28076  1.0000
  N   N5        1.0  0.83859  0.04877  0.04796  1.0000
  N   N6        1.0  0.66131  0.11545  0.28881  1.0000
  N   N7        1.0  0.09787  0.38746  0.45224  1.0000
  N   N8        1.0  0.40312  0.44954  0.21107  1.0000
  O   O1        1.0  0.40100  0.66610  0.49694  1.0000
  O   O2        1.0  0.09983  0.10052  0.23587  1.0000
  O   O3        1.0  0.16251  0.39714  0.00234  1.0000
  O   O4        1.0  0.33689  0.83637  0.26420  1.0000
  O   O5        1.0  0.58761  0.65866  0.46308  1.0000
  O   O6        1.0  0.91575  0.95293  0.42773  1.0000
  O   O7        1.0  0.12090  0.54985  0.03672  1.0000
  O   O8        1.0  0.38110  0.84466  0.07102  1.0000
