data_image0
_chemical_formula_structural       V8Co4H16C8N4O28
_chemical_formula_sum              "V8 Co4 H16 C8 N4 O28"
_cell_length_a       7.05903
_cell_length_b       9.58344
_cell_length_c       12.3665
_cell_angle_alpha    89.49
_cell_angle_beta     106.618
_cell_angle_gamma    90.836

_space_group_name_H-M_alt    "P 1"
_space_group_IT_number       1

loop_
  _space_group_symop_operation_xyz
  'x, y, z'

loop_
  _atom_site_type_symbol
  _atom_site_label
  _atom_site_symmetry_multiplicity
  _atom_site_fract_x
  _atom_site_fract_y
  _atom_site_fract_z
  _atom_site_occupancy
  V   V1        1.0  0.31418  0.46548  0.39860  1.0000
  V   V2        1.0  0.18571  0.96959  0.10399  1.0000
  V   V3        1.0  0.67425  0.53471  0.60440  1.0000
  V   V4        1.0  0.82794  0.03425  0.89484  1.0000
  V   V5        1.0  0.81051  0.46565  0.40261  1.0000
  V   V6        1.0  0.68863  0.96734  0.09973  1.0000
  V   V7        1.0  0.17692  0.52909  0.60168  1.0000
  V   V8        1.0  0.32515  0.02886  0.89866  1.0000
  Co  Co1       1.0  0.48122  0.69717  0.22768  1.0000
  Co  Co2       1.0  0.01615  0.19791  0.27688  1.0000
  Co  Co3       1.0  0.52122  0.30243  0.77366  1.0000
  Co  Co4       1.0  0.98336  0.80259  0.72394  1.0000
  H   H1        1.0  0.53151  0.38848  0.18519  1.0000
  H   H2        1.0  0.95942  0.89557  0.30869  1.0000
  H   H3        1.0  0.45532  0.60467  0.81773  1.0000
  H   H4        1.0  0.05281  0.10860  0.67647  1.0000
  H   H5        1.0  0.57515  0.25108  0.02379  1.0000
  H   H6        1.0  0.93382  0.75449  0.47295  1.0000
  H   H7        1.0  0.40852  0.74165  0.97879  1.0000
  H   H8        1.0  0.07900  0.25027  0.51224  1.0000
  H   H9        1.0  0.44860  0.80217  0.43182  1.0000
  H   H10       1.0  0.05607  0.28987  0.08810  1.0000
  H   H11       1.0  0.58243  0.21326  0.57375  1.0000
  H   H12       1.0  0.91336  0.70909  0.92110  1.0000
  H   H13       1.0  0.39039  0.91836  0.33723  1.0000
  H   H14       1.0  0.11516  0.41013  0.17964  1.0000
  H   H15       1.0  0.63231  0.09153  0.66439  1.0000
  H   H16       1.0  0.86736  0.58682  0.83190  1.0000
  C   C1        1.0  0.51213  0.43679  0.10289  1.0000
  C   C2        1.0  0.98148  0.94379  0.39057  1.0000
  C   C3        1.0  0.47338  0.55628  0.89983  1.0000
  C   C4        1.0  0.02940  0.06057  0.59423  1.0000
  C   C5        1.0  0.53713  0.36063  0.01320  1.0000
  C   C6        1.0  0.96704  0.86542  0.48275  1.0000
  C   C7        1.0  0.44760  0.63232  0.98927  1.0000
  C   C8        1.0  0.04394  0.14000  0.50284  1.0000
  N   N1        1.0  0.46906  0.57311  0.09076  1.0000
  N   N2        1.0  0.01688  0.08241  0.40027  1.0000
  N   N3        1.0  0.51786  0.42023  0.91214  1.0000
  N   N4        1.0  0.98972  0.92301  0.58428  1.0000
  O   O1        1.0  0.29561  0.54985  0.27758  1.0000
  O   O2        1.0  0.20373  0.05853  0.22165  1.0000
  O   O3        1.0  0.69300  0.45559  0.72795  1.0000
  O   O4        1.0  0.81109  0.95199  0.77376  1.0000
  O   O5        1.0  0.69903  0.60186  0.32337  1.0000
  O   O6        1.0  0.80524  0.10148  0.18022  1.0000
  O   O7        1.0  0.29231  0.39484  0.68125  1.0000
  O   O8        1.0  0.20897  0.89401  0.81944  1.0000
  O   O9        1.0  0.67457  0.82721  0.17638  1.0000
  O   O10       1.0  0.81718  0.32866  0.32355  1.0000
  O   O11       1.0  0.33790  0.16356  0.81624  1.0000
  O   O12       1.0  0.16618  0.66456  0.68175  1.0000
  O   O13       1.0  0.26543  0.80634  0.14206  1.0000
  O   O14       1.0  0.22607  0.30141  0.36737  1.0000
  O   O15       1.0  0.74722  0.19823  0.86288  1.0000
  O   O16       1.0  0.75805  0.69939  0.63218  1.0000
  O   O17       1.0  0.58467  0.42261  0.46035  1.0000
  O   O18       1.0  0.91298  0.92739  0.04225  1.0000
  O   O19       1.0  0.40135  0.57459  0.54363  1.0000
  O   O20       1.0  0.10225  0.07443  0.95560  1.0000
  O   O21       1.0  0.07921  0.52550  0.43541  1.0000
  O   O22       1.0  0.42265  0.02704  0.06548  1.0000
  O   O23       1.0  0.90750  0.46834  0.56902  1.0000
  O   O24       1.0  0.59261  0.97020  0.93233  1.0000
  O   O25       1.0  0.48631  0.84449  0.36873  1.0000
  O   O26       1.0  0.01752  0.33446  0.14932  1.0000
  O   O27       1.0  0.53646  0.16538  0.63193  1.0000
  O   O28       1.0  0.96281  0.66242  0.86485  1.0000
