data_image0
_chemical_formula_structural       CuH28C28N10O6
_chemical_formula_sum              "Cu1 H28 C28 N10 O6"
_cell_length_a       7.99984
_cell_length_b       9.37049
_cell_length_c       9.96502
_cell_angle_alpha    90.4248
_cell_angle_beta     103.947
_cell_angle_gamma    101.928

_space_group_name_H-M_alt    "P 1"
_space_group_IT_number       1

loop_
  _space_group_symop_operation_xyz
  'x, y, z'

loop_
  _atom_site_type_symbol
  _atom_site_label
  _atom_site_symmetry_multiplicity
  _atom_site_fract_x
  _atom_site_fract_y
  _atom_site_fract_z
  _atom_site_occupancy
  Cu  Cu1       1.0  0.00000  0.00000  1.00000  1.0000
  H   H1        1.0  0.81168  0.25392  0.88399  1.0000
  H   H2        1.0  0.18832  0.74608  0.11601  1.0000
  H   H3        1.0  0.31116  0.52056  0.89061  1.0000
  H   H4        1.0  0.68884  0.47944  0.10939  1.0000
  H   H5        1.0  0.35552  0.25195  0.99825  1.0000
  H   H6        1.0  0.64448  0.74805  0.00174  1.0000
  H   H7        1.0  0.01612  0.63473  0.82802  1.0000
  H   H8        1.0  0.98388  0.36527  0.17198  1.0000
  H   H9        1.0  0.81584  0.50098  0.78187  1.0000
  H   H10       1.0  0.18416  0.49901  0.21813  1.0000
  H   H11       1.0  0.60537  0.84557  0.80634  1.0000
  H   H12       1.0  0.39463  0.15443  0.19366  1.0000
  H   H13       1.0  0.81054  0.96972  0.46164  1.0000
  H   H14       1.0  0.18945  0.03028  0.53836  1.0000
  H   H15       1.0  0.07764  0.05594  0.70801  1.0000
  H   H16       1.0  0.92236  0.94406  0.29199  1.0000
  H   H17       1.0  0.48487  0.85755  0.41616  1.0000
  H   H18       1.0  0.51513  0.14245  0.58384  1.0000
  H   H19       1.0  0.39041  0.82912  0.56195  1.0000
  H   H20       1.0  0.60959  0.17089  0.43806  1.0000
  H   H21       1.0  0.40182  0.60524  0.68993  1.0000
  H   H22       1.0  0.59816  0.39476  0.31007  1.0000
  H   H23       1.0  0.58913  0.65924  0.31916  1.0000
  H   H24       1.0  0.41087  0.34077  0.68084  1.0000
  H   H25       1.0  0.03677  0.74443  0.61534  1.0000
  H   H26       1.0  0.96324  0.25556  0.38466  1.0000
  H   H27       1.0  0.92948  0.27496  0.62302  1.0000
  H   H28       1.0  0.07053  0.72503  0.37698  1.0000
  C   C1        1.0  0.95358  0.28847  0.90006  1.0000
  C   C2        1.0  0.04642  0.71153  0.09994  1.0000
  C   C3        1.0  0.21742  0.42441  0.90572  1.0000
  C   C4        1.0  0.78258  0.57559  0.09428  1.0000
  C   C5        1.0  0.23635  0.29282  0.96049  1.0000
  C   C6        1.0  0.76366  0.70718  0.03951  1.0000
  C   C7        1.0  0.95615  0.52397  0.78135  1.0000
  C   C8        1.0  0.04386  0.47603  0.21866  1.0000
  C   C9        1.0  0.97929  0.51128  0.63576  1.0000
  C   C10       1.0  0.02072  0.48872  0.36424  1.0000
  C   C11       1.0  0.01953  0.63682  0.56487  1.0000
  C   C12       1.0  0.98048  0.36318  0.43513  1.0000
  C   C13       1.0  0.96060  0.37460  0.56967  1.0000
  C   C14       1.0  0.03941  0.62540  0.43033  1.0000
  C   C15       1.0  0.70221  0.89017  0.74944  1.0000
  C   C16       1.0  0.29779  0.10983  0.25056  1.0000
  C   C17       1.0  0.81270  0.95647  0.56985  1.0000
  C   C18       1.0  0.18729  0.04353  0.43015  1.0000
  C   C19       1.0  0.94072  0.00011  0.69061  1.0000
  C   C20       1.0  0.05927  0.99990  0.30939  1.0000
  C   C21       1.0  0.49681  0.80949  0.51719  1.0000
  C   C22       1.0  0.50318  0.19051  0.48281  1.0000
  C   C23       1.0  0.49443  0.64845  0.50545  1.0000
  C   C24       1.0  0.50556  0.35155  0.49455  1.0000
  C   C25       1.0  0.44595  0.55850  0.60743  1.0000
  C   C26       1.0  0.55403  0.44150  0.39257  1.0000
  C   C27       1.0  0.54859  0.58912  0.39791  1.0000
  C   C28       1.0  0.45141  0.41088  0.60209  1.0000
  N   N1        1.0  0.07077  0.20982  0.95679  1.0000
  N   N2        1.0  0.92923  0.79018  0.04321  1.0000
  N   N3        1.0  0.03815  0.41981  0.86816  1.0000
  N   N4        1.0  0.96186  0.58019  0.13184  1.0000
  N   N5        1.0  0.86999  0.95716  0.80120  1.0000
  N   N6        1.0  0.13000  0.04283  0.19880  1.0000
  N   N7        1.0  0.66329  0.88825  0.60929  1.0000
  N   N8        1.0  0.33670  0.11176  0.39071  1.0000
  N   N9        1.0  0.67037  0.10043  0.13635  1.0000
  N   N10       1.0  0.32963  0.89958  0.86365  1.0000
  O   O1        1.0  0.71540  0.04894  0.03584  1.0000
  O   O2        1.0  0.28460  0.95107  0.96416  1.0000
  O   O3        1.0  0.63329  0.22673  0.13073  1.0000
  O   O4        1.0  0.36671  0.77328  0.86927  1.0000
  O   O5        1.0  0.66151  0.02787  0.24231  1.0000
  O   O6        1.0  0.33849  0.97214  0.75769  1.0000
