data_image0
_chemical_formula_structural       Zn4P4H28C36N8O12
_chemical_formula_sum              "Zn4 P4 H28 C36 N8 O12"
_cell_length_a       5.16591
_cell_length_b       11.2564
_cell_length_c       17.7424
_cell_angle_alpha    102.555
_cell_angle_beta     90
_cell_angle_gamma    90

_space_group_name_H-M_alt    "P 1"
_space_group_IT_number       1

loop_
  _space_group_symop_operation_xyz
  'x, y, z'

loop_
  _atom_site_type_symbol
  _atom_site_label
  _atom_site_symmetry_multiplicity
  _atom_site_fract_x
  _atom_site_fract_y
  _atom_site_fract_z
  _atom_site_occupancy
  Zn  Zn1       1.0  0.91126  0.17750  0.69598  1.0000
  Zn  Zn2       1.0  0.41126  0.32250  0.80402  1.0000
  Zn  Zn3       1.0  0.08874  0.82250  0.30401  1.0000
  Zn  Zn4       1.0  0.58874  0.67750  0.19598  1.0000
  P   P1        1.0  0.92301  0.46330  0.77447  1.0000
  P   P2        1.0  0.42301  0.03670  0.72553  1.0000
  P   P3        1.0  0.07699  0.53670  0.22553  1.0000
  P   P4        1.0  0.57699  0.96330  0.27447  1.0000
  H   H1        1.0  0.35045  0.89553  0.58346  1.0000
  H   H2        1.0  0.85045  0.60447  0.91654  1.0000
  H   H3        1.0  0.64955  0.10447  0.41654  1.0000
  H   H4        1.0  0.14955  0.39553  0.08346  1.0000
  H   H5        1.0  0.31930  0.63978  0.75303  1.0000
  H   H6        1.0  0.81931  0.86022  0.74697  1.0000
  H   H7        1.0  0.68069  0.36022  0.24697  1.0000
  H   H8        1.0  0.18069  0.13978  0.25303  1.0000
  H   H9        1.0  0.38015  0.75956  0.65343  1.0000
  H   H10       1.0  0.88015  0.74044  0.84657  1.0000
  H   H11       1.0  0.61985  0.24044  0.34657  1.0000
  H   H12       1.0  0.11985  0.25956  0.15343  1.0000
  H   H13       1.0  0.69467  0.59510  0.53522  1.0000
  H   H14       1.0  0.19468  0.90490  0.96478  1.0000
  H   H15       1.0  0.30532  0.40490  0.46478  1.0000
  H   H16       1.0  0.80533  0.09510  0.03522  1.0000
  H   H17       1.0  0.63533  0.47625  0.63596  1.0000
  H   H18       1.0  0.13533  0.02376  0.86404  1.0000
  H   H19       1.0  0.36467  0.52376  0.36404  1.0000
  H   H20       1.0  0.86467  0.97625  0.13596  1.0000
  H   H21       1.0  0.35972  0.96360  0.45346  1.0000
  H   H22       1.0  0.85972  0.53640  0.04654  1.0000
  H   H23       1.0  0.64028  0.03640  0.54654  1.0000
  H   H24       1.0  0.14028  0.46360  0.95346  1.0000
  H   H25       1.0  0.86362  0.66100  0.41977  1.0000
  H   H26       1.0  0.36362  0.83900  0.08023  1.0000
  H   H27       1.0  0.13638  0.33900  0.58023  1.0000
  H   H28       1.0  0.63638  0.16100  0.91977  1.0000
  C   C1        1.0  0.97591  0.54798  0.70043  1.0000
  C   C2        1.0  0.47591  0.95202  0.79957  1.0000
  C   C3        1.0  0.02409  0.45202  0.29957  1.0000
  C   C4        1.0  0.52410  0.04798  0.20043  1.0000
  C   C5        1.0  0.18314  0.62967  0.70510  1.0000
  C   C6        1.0  0.68314  0.87033  0.79490  1.0000
  C   C7        1.0  0.81686  0.37033  0.29490  1.0000
  C   C8        1.0  0.31686  0.12967  0.20510  1.0000
  C   C9        1.0  0.21624  0.69754  0.64887  1.0000
  C   C10       1.0  0.71624  0.80246  0.85113  1.0000
  C   C11       1.0  0.78376  0.30246  0.35113  1.0000
  C   C12       1.0  0.28376  0.19754  0.14887  1.0000
  C   C13       1.0  0.04335  0.68526  0.58628  1.0000
  C   C14       1.0  0.54335  0.81474  0.91372  1.0000
  C   C15       1.0  0.95665  0.31474  0.41372  1.0000
  C   C16       1.0  0.45665  0.18526  0.08628  1.0000
  C   C17       1.0  0.83466  0.60377  0.58212  1.0000
  C   C18       1.0  0.33466  0.89623  0.91788  1.0000
  C   C19       1.0  0.16534  0.39623  0.41788  1.0000
  C   C20       1.0  0.66534  0.10377  0.08212  1.0000
  C   C21       1.0  0.80143  0.53655  0.63848  1.0000
  C   C22       1.0  0.30143  0.96345  0.86152  1.0000
  C   C23       1.0  0.19857  0.46345  0.36152  1.0000
  C   C24       1.0  0.69857  0.03655  0.13848  1.0000
  C   C25       1.0  0.08188  0.75250  0.52569  1.0000
  C   C26       1.0  0.58188  0.74750  0.97431  1.0000
  C   C27       1.0  0.91812  0.24750  0.47431  1.0000
  C   C28       1.0  0.41812  0.25250  0.02569  1.0000
  C   C29       1.0  0.25051  0.88820  0.46619  1.0000
  C   C30       1.0  0.75051  0.61180  0.03381  1.0000
  C   C31       1.0  0.74949  0.11180  0.53381  1.0000
  C   C32       1.0  0.24949  0.38820  0.96619  1.0000
  C   C33       1.0  0.99033  0.73187  0.45044  1.0000
  C   C34       1.0  0.49033  0.76813  0.04956  1.0000
  C   C35       1.0  0.00967  0.26813  0.54956  1.0000
  C   C36       1.0  0.50967  0.23187  0.95044  1.0000
  N   N1        1.0  0.09909  0.81639  0.41409  1.0000
  N   N2        1.0  0.59909  0.68361  0.08591  1.0000
  N   N3        1.0  0.90091  0.18361  0.58591  1.0000
  N   N4        1.0  0.40091  0.31639  0.91409  1.0000
  N   N5        1.0  0.24524  0.85201  0.53343  1.0000
  N   N6        1.0  0.74524  0.64799  0.96657  1.0000
  N   N7        1.0  0.75476  0.14799  0.46657  1.0000
  N   N8        1.0  0.25476  0.35201  0.03343  1.0000
  O   O1        1.0  0.07303  0.33670  0.75111  1.0000
  O   O2        1.0  0.57303  0.16330  0.74889  1.0000
  O   O3        1.0  0.92697  0.66330  0.24889  1.0000
  O   O4        1.0  0.42697  0.83670  0.25111  1.0000
  O   O5        1.0  0.03238  0.53257  0.85074  1.0000
  O   O6        1.0  0.53238  0.96743  0.64926  1.0000
  O   O7        1.0  0.96762  0.46743  0.14926  1.0000
  O   O8        1.0  0.46762  0.03257  0.35074  1.0000
  O   O9        1.0  0.63121  0.43853  0.77062  1.0000
  O   O10       1.0  0.13121  0.06147  0.72938  1.0000
  O   O11       1.0  0.36878  0.56147  0.22938  1.0000
  O   O12       1.0  0.86879  0.93853  0.27062  1.0000
