data_image0
_chemical_formula_structural       Ag4H32C32N8O8F12
_chemical_formula_sum              "Ag4 H32 C32 N8 O8 F12"
_cell_length_a       9.32361
_cell_length_b       10.6643
_cell_length_c       11.5758
_cell_angle_alpha    96.2801
_cell_angle_beta     91.3985
_cell_angle_gamma    114.684

_space_group_name_H-M_alt    "P 1"
_space_group_IT_number       1

loop_
  _space_group_symop_operation_xyz
  'x, y, z'

loop_
  _atom_site_type_symbol
  _atom_site_label
  _atom_site_symmetry_multiplicity
  _atom_site_fract_x
  _atom_site_fract_y
  _atom_site_fract_z
  _atom_site_occupancy
  Ag  Ag1       1.0  0.46672  0.66740  0.62217  1.0000
  Ag  Ag2       1.0  0.53328  0.33260  0.37783  1.0000
  Ag  Ag3       1.0  0.88318  0.72203  0.95292  1.0000
  Ag  Ag4       1.0  0.11682  0.27797  0.04708  1.0000
  H   H1        1.0  0.72055  0.70962  0.52022  1.0000
  H   H2        1.0  0.27945  0.29038  0.47978  1.0000
  H   H3        1.0  0.78053  0.79299  0.65947  1.0000
  H   H4        1.0  0.21947  0.20701  0.34053  1.0000
  H   H5        1.0  0.27644  0.83084  0.55138  1.0000
  H   H6        1.0  0.72356  0.16916  0.44862  1.0000
  H   H7        1.0  0.00180  0.80788  0.55562  1.0000
  H   H8        1.0  0.99820  0.19212  0.44438  1.0000
  H   H9        1.0  0.88294  0.42724  0.70730  1.0000
  H   H10       1.0  0.11706  0.57276  0.29270  1.0000
  H   H11       1.0  0.16513  0.46564  0.69634  1.0000
  H   H12       1.0  0.83488  0.53436  0.30366  1.0000
  H   H13       1.0  0.67227  0.49278  0.58108  1.0000
  H   H14       1.0  0.32773  0.50722  0.41892  1.0000
  H   H15       1.0  0.71335  0.56931  0.72779  1.0000
  H   H16       1.0  0.28664  0.43069  0.27221  1.0000
  H   H17       1.0  0.56506  0.59056  0.90067  1.0000
  H   H18       1.0  0.43494  0.40944  0.09933  1.0000
  H   H19       1.0  0.61075  0.65711  0.04048  1.0000
  H   H20       1.0  0.38925  0.34289  0.95951  1.0000
  H   H21       1.0  0.08932  0.59031  0.05540  1.0000
  H   H22       1.0  0.91068  0.40969  0.94461  1.0000
  H   H23       1.0  0.36295  0.61113  0.05014  1.0000
  H   H24       1.0  0.63705  0.38887  0.94986  1.0000
  H   H25       1.0  0.45789  0.93809  0.83372  1.0000
  H   H26       1.0  0.54211  0.06191  0.16628  1.0000
  H   H27       1.0  0.17668  0.90250  0.84638  1.0000
  H   H28       1.0  0.82332  0.09750  0.15362  1.0000
  H   H29       1.0  0.64331  0.82454  0.84668  1.0000
  H   H30       1.0  0.35669  0.17547  0.15332  1.0000
  H   H31       1.0  0.68064  0.88759  0.99593  1.0000
  H   H32       1.0  0.31937  0.11241  0.00407  1.0000
  C   C1        1.0  0.18597  0.74287  0.58578  1.0000
  C   C2        1.0  0.81403  0.25713  0.41422  1.0000
  C   C3        1.0  0.03107  0.72885  0.58822  1.0000
  C   C4        1.0  0.96893  0.27115  0.41178  1.0000
  C   C5        1.0  0.91719  0.61476  0.63247  1.0000
  C   C6        1.0  0.08281  0.38524  0.36753  1.0000
  C   C7        1.0  0.96653  0.51888  0.67269  1.0000
  C   C8        1.0  0.03347  0.48112  0.32731  1.0000
  C   C9        1.0  0.12296  0.53909  0.66774  1.0000
  C   C10       1.0  0.87704  0.46091  0.33226  1.0000
  C   C11       1.0  0.74613  0.58941  0.63877  1.0000
  C   C12       1.0  0.25387  0.41059  0.36123  1.0000
  C   C13       1.0  0.39907  0.34492  0.71824  1.0000
  C   C14       1.0  0.60093  0.65507  0.28176  1.0000
  C   C15       1.0  0.41118  0.20276  0.68974  1.0000
  C   C16       1.0  0.58883  0.79724  0.31025  1.0000
  C   C17       1.0  0.17358  0.66478  0.00526  1.0000
  C   C18       1.0  0.82642  0.33522  0.99474  1.0000
  C   C19       1.0  0.32745  0.67694  0.00179  1.0000
  C   C20       1.0  0.67256  0.32306  0.99821  1.0000
  C   C21       1.0  0.43485  0.77580  0.93932  1.0000
  C   C22       1.0  0.56515  0.22420  0.06068  1.0000
  C   C23       1.0  0.37963  0.85875  0.88318  1.0000
  C   C24       1.0  0.62037  0.14125  0.11682  1.0000
  C   C25       1.0  0.22340  0.83982  0.88934  1.0000
  C   C26       1.0  0.77660  0.16018  0.11066  1.0000
  C   C27       1.0  0.60461  0.79730  0.93297  1.0000
  C   C28       1.0  0.39539  0.20270  0.06703  1.0000
  C   C29       1.0  0.01663  0.97342  0.19801  1.0000
  C   C30       1.0  0.98337  0.02658  0.80199  1.0000
  C   C31       1.0  0.10026  0.89996  0.26596  1.0000
  C   C32       1.0  0.89974  0.10004  0.73404  1.0000
  N   N1        1.0  0.23233  0.64990  0.62492  1.0000
  N   N2        1.0  0.76768  0.35010  0.37508  1.0000
  N   N3        1.0  0.70638  0.70158  0.60767  1.0000
  N   N4        1.0  0.29362  0.29842  0.39233  1.0000
  N   N5        1.0  0.12018  0.74317  0.94910  1.0000
  N   N6        1.0  0.87982  0.25683  0.05090  1.0000
  N   N7        1.0  0.63643  0.67819  0.95661  1.0000
  N   N8        1.0  0.36357  0.32181  0.04339  1.0000
  O   O1        1.0  0.34002  0.37984  0.63579  1.0000
  O   O2        1.0  0.65996  0.62014  0.36422  1.0000
  O   O3        1.0  0.45725  0.41082  0.81745  1.0000
  O   O4        1.0  0.54275  0.58917  0.18255  1.0000
  O   O5        1.0  0.89355  0.89685  0.13528  1.0000
  O   O6        1.0  0.10645  0.10315  0.86472  1.0000
  O   O7        1.0  0.08704  0.10476  0.21636  1.0000
  O   O8        1.0  0.91296  0.89524  0.78364  1.0000
  F   F1        1.0  0.28512  0.10557  0.62004  1.0000
  F   F2        1.0  0.71489  0.89442  0.37996  1.0000
  F   F3        1.0  0.54411  0.22353  0.62984  1.0000
  F   F4        1.0  0.45590  0.77648  0.37016  1.0000
  F   F5        1.0  0.42629  0.14486  0.78540  1.0000
  F   F6        1.0  0.57371  0.85513  0.21460  1.0000
  F   F7        1.0  0.11952  0.94484  0.38350  1.0000
  F   F8        1.0  0.88047  0.05516  0.61650  1.0000
  F   F9        1.0  0.02022  0.75869  0.25283  1.0000
  F   F10       1.0  0.97978  0.24132  0.74717  1.0000
  F   F11       1.0  0.24908  0.92892  0.23041  1.0000
  F   F12       1.0  0.75092  0.07108  0.76960  1.0000
