data_image0
_chemical_formula_structural       Sn2H42C42N2O6
_chemical_formula_sum              "Sn2 H42 C42 N2 O6"
_cell_length_a       7.36329
_cell_length_b       11.6956
_cell_length_c       11.4995
_cell_angle_alpha    104.266
_cell_angle_beta     97.8101
_cell_angle_gamma    105.772

_space_group_name_H-M_alt    "P 1"
_space_group_IT_number       1

loop_
  _space_group_symop_operation_xyz
  'x, y, z'

loop_
  _atom_site_type_symbol
  _atom_site_label
  _atom_site_symmetry_multiplicity
  _atom_site_fract_x
  _atom_site_fract_y
  _atom_site_fract_z
  _atom_site_occupancy
  Sn  Sn1       1.0  0.16111  0.80024  0.28930  1.0000
  Sn  Sn2       1.0  0.83889  0.19976  0.71070  1.0000
  H   H1        1.0  0.08802  0.48160  0.30750  1.0000
  H   H2        1.0  0.91197  0.51840  0.69250  1.0000
  H   H3        1.0  0.42224  0.84472  0.54457  1.0000
  H   H4        1.0  0.57777  0.15528  0.45544  1.0000
  H   H5        1.0  0.59177  0.86013  0.74987  1.0000
  H   H6        1.0  0.40824  0.13987  0.25014  1.0000
  H   H7        1.0  0.67495  0.76420  0.90770  1.0000
  H   H8        1.0  0.32505  0.23580  0.09231  1.0000
  H   H9        1.0  0.65434  0.57887  0.97658  1.0000
  H   H10       1.0  0.34566  0.42113  0.02342  1.0000
  H   H11       1.0  0.45443  0.36740  0.83503  1.0000
  H   H12       1.0  0.54558  0.63259  0.16496  1.0000
  H   H13       1.0  0.28749  0.34393  0.62926  1.0000
  H   H14       1.0  0.71252  0.65607  0.37073  1.0000
  H   H15       1.0  0.18569  0.33155  0.46177  1.0000
  H   H16       1.0  0.81431  0.66846  0.53823  1.0000
  H   H17       1.0  0.12412  0.17127  0.31843  1.0000
  H   H18       1.0  0.87588  0.82873  0.68157  1.0000
  H   H19       1.0  0.67783  0.96862  0.99512  1.0000
  H   H20       1.0  0.32216  0.03138  0.00487  1.0000
  H   H21       1.0  0.62946  0.16743  0.97618  1.0000
  H   H22       1.0  0.37055  0.83258  0.02382  1.0000
  H   H23       1.0  0.82232  0.36767  0.13230  1.0000
  H   H24       1.0  0.17769  0.63234  0.86770  1.0000
  H   H25       1.0  0.89256  0.58535  0.14758  1.0000
  H   H26       1.0  0.10743  0.41465  0.85242  1.0000
  H   H27       1.0  0.12567  0.58608  0.11765  1.0000
  H   H28       1.0  0.87432  0.41392  0.88235  1.0000
  H   H29       1.0  0.99458  0.67243  0.05131  1.0000
  H   H30       1.0  0.00541  0.32757  0.94869  1.0000
  H   H31       1.0  0.53833  0.80995  0.31209  1.0000
  H   H32       1.0  0.46166  0.19005  0.68791  1.0000
  H   H33       1.0  0.52731  0.95413  0.40365  1.0000
  H   H34       1.0  0.47268  0.04587  0.59635  1.0000
  H   H35       1.0  0.50089  0.92373  0.24148  1.0000
  H   H36       1.0  0.49911  0.07627  0.75852  1.0000
  H   H37       1.0  0.89342  0.85693  0.41618  1.0000
  H   H38       1.0  0.10658  0.14307  0.58383  1.0000
  H   H39       1.0  0.13046  0.94826  0.50260  1.0000
  H   H40       1.0  0.86954  0.05174  0.49740  1.0000
  H   H41       1.0  0.04018  0.79066  0.50080  1.0000
  H   H42       1.0  0.95984  0.20934  0.49920  1.0000
  C   C1        1.0  0.29700  0.64369  0.48586  1.0000
  C   C2        1.0  0.70301  0.35632  0.51415  1.0000
  C   C3        1.0  0.41207  0.76112  0.57228  1.0000
  C   C4        1.0  0.58793  0.23889  0.42771  1.0000
  C   C5        1.0  0.50499  0.76901  0.68668  1.0000
  C   C6        1.0  0.49502  0.23099  0.31333  1.0000
  C   C7        1.0  0.49410  0.66117  0.72626  1.0000
  C   C8        1.0  0.50589  0.33883  0.27373  1.0000
  C   C9        1.0  0.59092  0.67237  0.84538  1.0000
  C   C10       1.0  0.40908  0.32762  0.15463  1.0000
  C   C11       1.0  0.57919  0.56840  0.88444  1.0000
  C   C12       1.0  0.42080  0.43159  0.11554  1.0000
  C   C13       1.0  0.46860  0.45013  0.80461  1.0000
  C   C14       1.0  0.53141  0.54987  0.19540  1.0000
  C   C15       1.0  0.37267  0.43712  0.68732  1.0000
  C   C16       1.0  0.62733  0.56287  0.31267  1.0000
  C   C17       1.0  0.38286  0.54129  0.64406  1.0000
  C   C18       1.0  0.61715  0.45871  0.35594  1.0000
  C   C19       1.0  0.28562  0.53241  0.52176  1.0000
  C   C20       1.0  0.71438  0.46759  0.47824  1.0000
  C   C21       1.0  0.18438  0.41534  0.43708  1.0000
  C   C22       1.0  0.81562  0.58466  0.56292  1.0000
  C   C23       1.0  0.98235  0.28297  0.23739  1.0000
  C   C24       1.0  0.01765  0.71702  0.76261  1.0000
  C   C25       1.0  0.01378  0.17220  0.24575  1.0000
  C   C26       1.0  0.98622  0.82780  0.75425  1.0000
  C   C27       1.0  0.90400  0.05921  0.15868  1.0000
  C   C28       1.0  0.09600  0.94079  0.84132  1.0000
  C   C29       1.0  0.76353  0.05728  0.06216  1.0000
  C   C30       1.0  0.23647  0.94273  0.93784  1.0000
  C   C31       1.0  0.73729  0.16828  0.05171  1.0000
  C   C32       1.0  0.26271  0.83172  0.94829  1.0000
  C   C33       1.0  0.84590  0.28115  0.13874  1.0000
  C   C34       1.0  0.15410  0.71885  0.86126  1.0000
  C   C35       1.0  0.93462  0.94004  0.17063  1.0000
  C   C36       1.0  0.06537  0.05995  0.82937  1.0000
  C   C37       1.0  0.02708  0.64113  0.13145  1.0000
  C   C38       1.0  0.97291  0.35887  0.86855  1.0000
  C   C39       1.0  0.46863  0.88187  0.31477  1.0000
  C   C40       1.0  0.53136  0.11812  0.68523  1.0000
  C   C41       1.0  0.03997  0.85477  0.44590  1.0000
  C   C42       1.0  0.96003  0.14523  0.55410  1.0000
  N   N1        1.0  0.08379  0.39804  0.32576  1.0000
  N   N2        1.0  0.91620  0.60196  0.67424  1.0000
  O   O1        1.0  0.20644  0.63713  0.37838  1.0000
  O   O2        1.0  0.79356  0.36287  0.62162  1.0000
  O   O3        1.0  0.10948  0.95331  0.22645  1.0000
  O   O4        1.0  0.89052  0.04669  0.77355  1.0000
  O   O5        1.0  0.79865  0.84017  0.13070  1.0000
  O   O6        1.0  0.20135  0.15983  0.86930  1.0000
