data_image0
_chemical_formula_structural       Cu2P2H28C18S4N2O4
_chemical_formula_sum              "Cu2 P2 H28 C18 S4 N2 O4"
_cell_length_a       5.90414
_cell_length_b       7.91368
_cell_length_c       13.8628
_cell_angle_alpha    102.889
_cell_angle_beta     94.8141
_cell_angle_gamma    101.469

_space_group_name_H-M_alt    "P 1"
_space_group_IT_number       1

loop_
  _space_group_symop_operation_xyz
  'x, y, z'

loop_
  _atom_site_type_symbol
  _atom_site_label
  _atom_site_symmetry_multiplicity
  _atom_site_fract_x
  _atom_site_fract_y
  _atom_site_fract_z
  _atom_site_occupancy
  Cu  Cu1       1.0  0.09379  0.95531  0.68048  1.0000
  Cu  Cu2       1.0  0.90622  0.04467  0.31952  1.0000
  P   P1        1.0  0.59215  0.87793  0.77186  1.0000
  P   P2        1.0  0.40786  0.12207  0.22814  1.0000
  H   H1        1.0  0.34023  0.12564  0.54394  1.0000
  H   H2        1.0  0.65974  0.87434  0.45606  1.0000
  H   H3        1.0  0.31139  0.35756  0.45637  1.0000
  H   H4        1.0  0.68856  0.64241  0.54362  1.0000
  H   H5        1.0  0.72565  0.45288  0.61348  1.0000
  H   H6        1.0  0.27439  0.54713  0.38655  1.0000
  H   H7        1.0  0.77485  0.20989  0.69203  1.0000
  H   H8        1.0  0.22517  0.79011  0.30799  1.0000
  H   H9        1.0  0.16491  0.54287  0.80700  1.0000
  H   H10       1.0  0.83510  0.45711  0.19298  1.0000
  H   H11       1.0  0.35057  0.53883  0.71284  1.0000
  H   H12       1.0  0.64946  0.46117  0.28715  1.0000
  H   H13       1.0  0.41709  0.32555  0.81864  1.0000
  H   H14       1.0  0.58293  0.67445  0.18136  1.0000
  H   H15       1.0  0.67186  0.49642  0.83034  1.0000
  H   H16       1.0  0.32815  0.50359  0.16966  1.0000
  H   H17       1.0  0.48950  0.50676  0.92652  1.0000
  H   H18       1.0  0.51050  0.49325  0.07348  1.0000
  H   H19       1.0  0.74612  0.00092  0.96770  1.0000
  H   H20       1.0  0.25387  0.99910  0.03231  1.0000
  H   H21       1.0  0.62412  0.19116  0.98887  1.0000
  H   H22       1.0  0.37587  0.80886  0.01113  1.0000
  H   H23       1.0  0.05857  0.27671  0.02922  1.0000
  H   H24       1.0  0.94144  0.72330  0.97077  1.0000
  H   H25       1.0  0.96856  0.36041  0.92635  1.0000
  H   H26       1.0  0.03145  0.63959  0.07364  1.0000
  H   H27       1.0  0.08783  0.16675  0.90531  1.0000
  H   H28       1.0  0.91216  0.83324  0.09469  1.0000
  C   C1        1.0  0.20549  0.20110  0.55731  1.0000
  C   C2        1.0  0.79451  0.79888  0.44269  1.0000
  C   C3        1.0  0.18754  0.33369  0.50832  1.0000
  C   C4        1.0  0.81244  0.66628  0.49169  1.0000
  C   C5        1.0  0.01299  0.43008  0.52580  1.0000
  C   C6        1.0  0.98700  0.56992  0.47420  1.0000
  C   C7        1.0  0.86381  0.38393  0.59433  1.0000
  C   C8        1.0  0.13617  0.61608  0.40567  1.0000
  C   C9        1.0  0.89127  0.24863  0.63993  1.0000
  C   C10       1.0  0.10873  0.75139  0.36009  1.0000
  C   C11       1.0  0.34814  0.57088  0.79411  1.0000
  C   C12       1.0  0.65187  0.42912  0.20589  1.0000
  C   C13       1.0  0.49039  0.46914  0.84542  1.0000
  C   C14       1.0  0.50962  0.53086  0.15457  1.0000
  C   C15       1.0  0.73731  0.12260  0.94336  1.0000
  C   C16       1.0  0.26269  0.87741  0.05664  1.0000
  C   C17       1.0  0.97751  0.23893  0.95088  1.0000
  C   C18       1.0  0.02248  0.76108  0.04910  1.0000
  S   S1        1.0  0.89755  0.80146  0.77081  1.0000
  S   S2        1.0  0.10245  0.19854  0.22920  1.0000
  S   S3        1.0  0.42784  0.87067  0.63906  1.0000
  S   S4        1.0  0.57216  0.12932  0.36094  1.0000
  N   N1        1.0  0.05952  0.15602  0.62207  1.0000
  N   N2        1.0  0.94046  0.84399  0.37794  1.0000
  O   O1        1.0  0.43097  0.76228  0.83356  1.0000
  O   O2        1.0  0.56902  0.23773  0.16644  1.0000
  O   O3        1.0  0.61731  0.07444  0.84065  1.0000
  O   O4        1.0  0.38268  0.92554  0.15934  1.0000
