data_image0
_chemical_formula_structural       Cu4P4H40C28S8N4O8
_chemical_formula_sum              "Cu4 P4 H40 C28 S8 N4 O8"
_cell_length_a       5.67965
_cell_length_b       9.37617
_cell_length_c       20.3685
_cell_angle_alpha    101.939
_cell_angle_beta     89.9997
_cell_angle_gamma    90.0004

_space_group_name_H-M_alt    "P 1"
_space_group_IT_number       1

loop_
  _space_group_symop_operation_xyz
  'x, y, z'

loop_
  _atom_site_type_symbol
  _atom_site_label
  _atom_site_symmetry_multiplicity
  _atom_site_fract_x
  _atom_site_fract_y
  _atom_site_fract_z
  _atom_site_occupancy
  Cu  Cu1       1.0  0.04055  0.27550  0.81728  1.0000
  Cu  Cu2       1.0  0.54054  0.22449  0.68272  1.0000
  Cu  Cu3       1.0  0.95946  0.72451  0.18272  1.0000
  Cu  Cu4       1.0  0.45945  0.77550  0.31729  1.0000
  P   P1        1.0  0.55797  0.50417  0.82356  1.0000
  P   P2        1.0  0.05796  0.99583  0.67645  1.0000
  P   P3        1.0  0.44205  0.49583  0.17645  1.0000
  P   P4        1.0  0.94204  0.00417  0.32356  1.0000
  H   H1        1.0  0.96785  0.40441  0.68367  1.0000
  H   H2        1.0  0.46786  0.09559  0.81634  1.0000
  H   H3        1.0  0.03215  0.59559  0.31633  1.0000
  H   H4        1.0  0.53215  0.90440  0.18367  1.0000
  H   H5        1.0  0.18677  0.52455  0.60696  1.0000
  H   H6        1.0  0.68677  0.97545  0.89304  1.0000
  H   H7        1.0  0.81323  0.47545  0.39304  1.0000
  H   H8        1.0  0.31322  0.02453  0.10695  1.0000
  H   H9        1.0  0.64978  0.37277  0.45747  1.0000
  H   H10       1.0  0.14978  0.12721  0.04253  1.0000
  H   H11       1.0  0.35022  0.62722  0.54253  1.0000
  H   H12       1.0  0.85023  0.87277  0.95747  1.0000
  H   H13       1.0  0.45295  0.26001  0.54174  1.0000
  H   H14       1.0  0.95295  0.23999  0.95826  1.0000
  H   H15       1.0  0.54705  0.73998  0.45826  1.0000
  H   H16       1.0  0.04705  0.76002  0.04174  1.0000
  H   H17       1.0  0.92924  0.73554  0.75341  1.0000
  H   H18       1.0  0.42923  0.76444  0.74659  1.0000
  H   H19       1.0  0.07076  0.26445  0.24659  1.0000
  H   H20       1.0  0.57076  0.23555  0.25341  1.0000
  H   H21       1.0  0.03036  0.63649  0.81465  1.0000
  H   H22       1.0  0.53037  0.86352  0.68536  1.0000
  H   H23       1.0  0.96963  0.36352  0.18536  1.0000
  H   H24       1.0  0.46963  0.13649  0.31465  1.0000
  H   H25       1.0  0.80830  0.77606  0.83607  1.0000
  H   H26       1.0  0.30831  0.72393  0.66393  1.0000
  H   H27       1.0  0.19167  0.22394  0.16393  1.0000
  H   H28       1.0  0.69170  0.27607  0.33607  1.0000
  H   H29       1.0  0.25603  0.74606  0.95295  1.0000
  H   H30       1.0  0.75602  0.75394  0.54705  1.0000
  H   H31       1.0  0.74398  0.25396  0.04705  1.0000
  H   H32       1.0  0.24399  0.24606  0.45294  1.0000
  H   H33       1.0  0.45694  0.60699  0.96601  1.0000
  H   H34       1.0  0.95699  0.89300  0.53399  1.0000
  H   H35       1.0  0.54301  0.39300  0.03399  1.0000
  H   H36       1.0  0.04305  0.10700  0.46601  1.0000
  H   H37       1.0  0.17565  0.55772  0.92660  1.0000
  H   H38       1.0  0.67567  0.94229  0.57339  1.0000
  H   H39       1.0  0.82431  0.44231  0.07339  1.0000
  H   H40       1.0  0.32435  0.05772  0.42659  1.0000
  C   C1        1.0  0.90174  0.40104  0.63318  1.0000
  C   C2        1.0  0.40176  0.09896  0.86682  1.0000
  C   C3        1.0  0.09826  0.59897  0.36682  1.0000
  C   C4        1.0  0.59828  0.90103  0.13318  1.0000
  C   C5        1.0  0.02331  0.46934  0.58927  1.0000
  C   C6        1.0  0.52334  0.03067  0.91073  1.0000
  C   C7        1.0  0.97668  0.53066  0.41073  1.0000
  C   C8        1.0  0.47670  0.96934  0.08927  1.0000
  C   C9        1.0  0.93801  0.46429  0.52405  1.0000
  C   C10       1.0  0.43802  0.03570  0.97595  1.0000
  C   C11       1.0  0.06199  0.53572  0.47596  1.0000
  C   C12       1.0  0.56198  0.96427  0.02404  1.0000
  C   C13       1.0  0.72803  0.38543  0.50707  1.0000
  C   C14       1.0  0.22804  0.11458  0.99293  1.0000
  C   C15       1.0  0.27195  0.61456  0.49292  1.0000
  C   C16       1.0  0.77195  0.88544  0.00707  1.0000
  C   C17       1.0  0.61644  0.32065  0.55392  1.0000
  C   C18       1.0  0.11649  0.17933  0.94609  1.0000
  C   C19       1.0  0.38354  0.67933  0.44609  1.0000
  C   C20       1.0  0.88358  0.82066  0.05392  1.0000
  C   C21       1.0  0.87889  0.68924  0.79638  1.0000
  C   C22       1.0  0.37889  0.81075  0.70362  1.0000
  C   C23       1.0  0.12111  0.31076  0.20362  1.0000
  C   C24       1.0  0.62111  0.18924  0.29638  1.0000
  C   C25       1.0  0.32185  0.63609  0.93254  1.0000
  C   C26       1.0  0.82185  0.86391  0.56745  1.0000
  C   C27       1.0  0.67814  0.36392  0.06745  1.0000
  C   C28       1.0  0.17816  0.13610  0.43254  1.0000
  S   S1        1.0  0.32423  0.37990  0.76190  1.0000
  S   S2        1.0  0.82425  0.12011  0.73810  1.0000
  S   S3        1.0  0.67575  0.62011  0.23810  1.0000
  S   S4        1.0  0.17576  0.87990  0.26190  1.0000
  S   S5        1.0  0.76437  0.41868  0.88406  1.0000
  S   S6        1.0  0.26436  0.08131  0.61594  1.0000
  S   S7        1.0  0.23564  0.58133  0.11594  1.0000
  S   S8        1.0  0.73563  0.91868  0.38406  1.0000
  N   N1        1.0  0.69902  0.32765  0.61658  1.0000
  N   N2        1.0  0.19901  0.17235  0.88343  1.0000
  N   N3        1.0  0.30098  0.67237  0.38342  1.0000
  N   N4        1.0  0.80097  0.82764  0.11658  1.0000
  O   O1        1.0  0.69704  0.58305  0.77237  1.0000
  O   O2        1.0  0.19704  0.91693  0.72763  1.0000
  O   O3        1.0  0.30296  0.41694  0.22763  1.0000
  O   O4        1.0  0.80295  0.08305  0.27237  1.0000
  O   O5        1.0  0.42213  0.64305  0.86819  1.0000
  O   O6        1.0  0.92209  0.85695  0.63182  1.0000
  O   O7        1.0  0.57789  0.35695  0.13181  1.0000
  O   O8        1.0  0.07786  0.14306  0.36819  1.0000
