data_image0
_chemical_formula_structural       Zn2H50C60N10O12
_chemical_formula_sum              "Zn2 H50 C60 N10 O12"
_cell_length_a       9.0741
_cell_length_b       10.0131
_cell_length_c       16.2822
_cell_angle_alpha    103.115
_cell_angle_beta     91.988
_cell_angle_gamma    101.076

_space_group_name_H-M_alt    "P 1"
_space_group_IT_number       1

loop_
  _space_group_symop_operation_xyz
  'x, y, z'

loop_
  _atom_site_type_symbol
  _atom_site_label
  _atom_site_symmetry_multiplicity
  _atom_site_fract_x
  _atom_site_fract_y
  _atom_site_fract_z
  _atom_site_occupancy
  Zn  Zn1       1.0  0.09156  0.39935  0.22573  1.0000
  Zn  Zn2       1.0  0.90843  0.60065  0.77427  1.0000
  H   H1        1.0  0.65192  0.97737  0.39473  1.0000
  H   H2        1.0  0.34808  0.02263  0.60528  1.0000
  H   H3        1.0  0.05930  0.89284  0.22215  1.0000
  H   H4        1.0  0.94071  0.10716  0.77784  1.0000
  H   H5        1.0  0.40743  0.22342  0.36423  1.0000
  H   H6        1.0  0.59257  0.77658  0.63577  1.0000
  H   H7        1.0  0.46395  0.79322  0.31698  1.0000
  H   H8        1.0  0.53604  0.20678  0.68303  1.0000
  H   H9        1.0  0.86650  0.60342  0.20981  1.0000
  H   H10       1.0  0.13350  0.39659  0.79019  1.0000
  H   H11       1.0  0.23977  0.14697  0.11834  1.0000
  H   H12       1.0  0.76024  0.85303  0.88166  1.0000
  H   H13       1.0  0.04339  0.11623  0.60870  1.0000
  H   H14       1.0  0.95661  0.88377  0.39130  1.0000
  H   H15       1.0  0.59660  0.65277  0.21204  1.0000
  H   H16       1.0  0.40340  0.34723  0.78796  1.0000
  H   H17       1.0  0.44271  0.51564  0.21171  1.0000
  H   H18       1.0  0.55729  0.48436  0.78829  1.0000
  H   H19       1.0  0.15690  0.41304  0.45406  1.0000
  H   H20       1.0  0.84310  0.58696  0.54593  1.0000
  H   H21       1.0  0.77846  0.19367  0.24713  1.0000
  H   H22       1.0  0.22154  0.80633  0.75286  1.0000
  H   H23       1.0  0.77517  0.07192  0.55506  1.0000
  H   H24       1.0  0.22484  0.92808  0.44494  1.0000
  H   H25       1.0  0.03607  0.21248  0.89615  1.0000
  H   H26       1.0  0.96393  0.78753  0.10385  1.0000
  H   H27       1.0  0.50333  0.27114  0.21816  1.0000
  H   H28       1.0  0.49667  0.72885  0.78183  1.0000
  H   H29       1.0  0.99011  0.41275  0.03550  1.0000
  H   H30       1.0  0.00990  0.58726  0.96450  1.0000
  H   H31       1.0  0.88942  0.36690  0.39986  1.0000
  H   H32       1.0  0.11058  0.63309  0.60014  1.0000
  H   H33       1.0  0.27625  0.88272  0.05966  1.0000
  H   H34       1.0  0.72375  0.11729  0.94034  1.0000
  H   H35       1.0  0.58127  0.20608  0.49665  1.0000
  H   H36       1.0  0.41873  0.79391  0.50336  1.0000
  H   H37       1.0  0.63798  0.27422  0.40831  1.0000
  H   H38       1.0  0.36202  0.72578  0.59169  1.0000
  H   H39       1.0  0.18996  0.02400  0.87576  1.0000
  H   H40       1.0  0.81004  0.97601  0.12424  1.0000
  H   H41       1.0  0.11608  0.92624  0.94781  1.0000
  H   H42       1.0  0.88391  0.07377  0.05219  1.0000
  H   H43       1.0  0.72031  0.42681  0.05727  1.0000
  H   H44       1.0  0.27969  0.57319  0.94273  1.0000
  H   H45       1.0  0.46778  0.12834  0.88871  1.0000
  H   H46       1.0  0.53222  0.87167  0.11129  1.0000
  H   H47       1.0  0.31993  0.59845  0.09530  1.0000
  H   H48       1.0  0.68008  0.40155  0.90470  1.0000
  H   H49       1.0  0.46683  0.41264  0.57786  1.0000
  H   H50       1.0  0.53317  0.58736  0.42214  1.0000
  C   C1        1.0  0.25675  0.82715  0.26465  1.0000
  C   C2        1.0  0.74325  0.17285  0.73534  1.0000
  C   C3        1.0  0.17088  0.92538  0.25534  1.0000
  C   C4        1.0  0.82912  0.07461  0.74465  1.0000
  C   C5        1.0  0.22684  0.06698  0.29136  1.0000
  C   C6        1.0  0.77316  0.93302  0.70864  1.0000
  C   C7        1.0  0.36854  0.11191  0.33660  1.0000
  C   C8        1.0  0.63146  0.88809  0.66340  1.0000
  C   C9        1.0  0.52428  0.51609  0.08824  1.0000
  C   C10       1.0  0.47572  0.48391  0.91176  1.0000
  C   C11       1.0  0.18720  0.67586  0.22958  1.0000
  C   C12       1.0  0.81279  0.32414  0.77042  1.0000
  C   C13       1.0  0.13477  0.16862  0.27483  1.0000
  C   C14       1.0  0.86523  0.83138  0.72517  1.0000
  C   C15       1.0  0.39885  0.87045  0.30848  1.0000
  C   C16       1.0  0.60114  0.12955  0.69152  1.0000
  C   C17       1.0  0.11709  0.26877  0.53570  1.0000
  C   C18       1.0  0.88291  0.73123  0.46430  1.0000
  C   C19       1.0  0.45832  0.01424  0.34455  1.0000
  C   C20       1.0  0.54168  0.98576  0.65545  1.0000
  C   C21       1.0  0.80592  0.50343  0.21791  1.0000
  C   C22       1.0  0.19408  0.49657  0.78209  1.0000
  C   C23       1.0  0.35463  0.00708  0.97095  1.0000
  C   C24       1.0  0.64537  0.99292  0.02905  1.0000
  C   C25       1.0  0.17872  0.19369  0.07787  1.0000
  C   C26       1.0  0.82129  0.80631  0.92213  1.0000
  C   C27       1.0  0.00899  0.17063  0.56275  1.0000
  C   C28       1.0  0.99101  0.82937  0.43725  1.0000
  C   C29       1.0  0.54968  0.54123  0.18359  1.0000
  C   C30       1.0  0.45033  0.45877  0.81641  1.0000
  C   C31       1.0  0.27407  0.29556  0.57158  1.0000
  C   C32       1.0  0.72593  0.70444  0.42842  1.0000
  C   C33       1.0  0.81437  0.21693  0.47375  1.0000
  C   C34       1.0  0.18563  0.78307  0.52626  1.0000
  C   C35       1.0  0.07350  0.33910  0.47657  1.0000
  C   C36       1.0  0.92649  0.66090  0.52343  1.0000
  C   C37       1.0  0.75387  0.28948  0.23504  1.0000
  C   C38       1.0  0.24613  0.71051  0.76496  1.0000
  C   C39       1.0  0.85890  0.14558  0.53214  1.0000
  C   C40       1.0  0.14110  0.85442  0.46786  1.0000
  C   C41       1.0  0.07132  0.22814  0.96243  1.0000
  C   C42       1.0  0.92868  0.77187  0.03757  1.0000
  C   C43       1.0  0.61897  0.32654  0.22057  1.0000
  C   C44       1.0  0.38103  0.67345  0.77942  1.0000
  C   C45       1.0  0.04743  0.32652  0.03182  1.0000
  C   C46       1.0  0.95258  0.67349  0.96819  1.0000
  C   C47       1.0  0.92317  0.31234  0.44586  1.0000
  C   C48       1.0  0.07682  0.68766  0.55414  1.0000
  C   C49       1.0  0.37431  0.93456  0.03343  1.0000
  C   C50       1.0  0.62569  0.06545  0.96656  1.0000
  C   C51       1.0  0.65136  0.19305  0.44191  1.0000
  C   C52       1.0  0.34864  0.80695  0.55809  1.0000
  C   C53       1.0  0.19899  0.01861  0.94219  1.0000
  C   C54       1.0  0.80101  0.98139  0.05781  1.0000
  C   C55       1.0  0.62309  0.45951  0.03290  1.0000
  C   C56       1.0  0.37691  0.54050  0.96711  1.0000
  C   C57       1.0  0.48151  0.07204  0.93761  1.0000
  C   C58       1.0  0.51848  0.92796  0.06239  1.0000
  C   C59       1.0  0.40054  0.55607  0.05414  1.0000
  C   C60       1.0  0.59946  0.44394  0.94586  1.0000
  N   N1        1.0  0.11468  0.30383  0.10332  1.0000
  N   N2        1.0  0.88533  0.69618  0.89669  1.0000
  N   N3        1.0  0.86999  0.40094  0.23294  1.0000
  N   N4        1.0  0.13001  0.59906  0.76706  1.0000
  N   N5        1.0  0.65406  0.46225  0.21026  1.0000
  N   N6        1.0  0.34594  0.53775  0.78974  1.0000
  N   N7        1.0  0.15491  0.14503  0.99266  1.0000
  N   N8        1.0  0.84509  0.85498  0.00734  1.0000
  N   N9        1.0  0.60114  0.05547  0.38509  1.0000
  N   N10       1.0  0.39886  0.94452  0.61491  1.0000
  O   O1        1.0  0.22725  0.58722  0.26831  1.0000
  O   O2        1.0  0.77275  0.41278  0.73169  1.0000
  O   O3        1.0  0.20584  0.29864  0.28868  1.0000
  O   O4        1.0  0.79416  0.70136  0.71133  1.0000
  O   O5        1.0  0.09176  0.64141  0.16645  1.0000
  O   O6        1.0  0.90823  0.35859  0.83355  1.0000
  O   O7        1.0  0.00084  0.12535  0.24419  1.0000
  O   O8        1.0  0.99916  0.87465  0.75580  1.0000
  O   O9        1.0  0.32185  0.22825  0.61745  1.0000
  O   O10       1.0  0.67815  0.77175  0.38255  1.0000
  O   O11       1.0  0.36637  0.40534  0.55077  1.0000
  O   O12       1.0  0.63363  0.59466  0.44922  1.0000
