data_image0
_chemical_formula_structural       Ca2P4H12C8N12O16
_chemical_formula_sum              "Ca2 P4 H12 C8 N12 O16"
_cell_length_a       5.2758
_cell_length_b       10.1072
_cell_length_c       11.9734
_cell_angle_alpha    103.177
_cell_angle_beta     90
_cell_angle_gamma    90

_space_group_name_H-M_alt    "P 1"
_space_group_IT_number       1

loop_
  _space_group_symop_operation_xyz
  'x, y, z'

loop_
  _atom_site_type_symbol
  _atom_site_label
  _atom_site_symmetry_multiplicity
  _atom_site_fract_x
  _atom_site_fract_y
  _atom_site_fract_z
  _atom_site_occupancy
  Ca  Ca1       1.0  0.50000  1.00000  1.00000  1.0000
  Ca  Ca2       1.0  1.00000  0.50000  0.50000  1.0000
  P   P1        1.0  0.50948  0.45837  0.29387  1.0000
  P   P2        1.0  0.00948  0.04163  0.20613  1.0000
  P   P3        1.0  0.49052  0.54163  0.70613  1.0000
  P   P4        1.0  0.99052  0.95837  0.79387  1.0000
  H   H1        1.0  0.40078  0.68192  0.28313  1.0000
  H   H2        1.0  0.90078  0.81808  0.21687  1.0000
  H   H3        1.0  0.59922  0.31808  0.71687  1.0000
  H   H4        1.0  0.09922  0.18192  0.78313  1.0000
  H   H5        1.0  0.08394  0.40632  0.01063  1.0000
  H   H6        1.0  0.58394  0.09368  0.48937  1.0000
  H   H7        1.0  0.91606  0.59368  0.98937  1.0000
  H   H8        1.0  0.41606  0.90632  0.51063  1.0000
  H   H9        1.0  0.66864  0.25986  0.16396  1.0000
  H   H10       1.0  0.16864  0.24014  0.33604  1.0000
  H   H11       1.0  0.33136  0.74014  0.83604  1.0000
  H   H12       1.0  0.83136  0.75986  0.66396  1.0000
  C   C1        1.0  0.20885  0.55896  0.14941  1.0000
  C   C2        1.0  0.70885  0.94104  0.35059  1.0000
  C   C3        1.0  0.79115  0.44104  0.85059  1.0000
  C   C4        1.0  0.29115  0.05896  0.64941  1.0000
  C   C5        1.0  0.37424  0.32354  0.08122  1.0000
  C   C6        1.0  0.87423  0.17647  0.41878  1.0000
  C   C7        1.0  0.62576  0.67646  0.91878  1.0000
  C   C8        1.0  0.12576  0.82353  0.58122  1.0000
  N   N1        1.0  0.37236  0.58262  0.23976  1.0000
  N   N2        1.0  0.87236  0.91738  0.26024  1.0000
  N   N3        1.0  0.62764  0.41738  0.76024  1.0000
  N   N4        1.0  0.12764  0.08262  0.73976  1.0000
  N   N5        1.0  0.20402  0.42731  0.08171  1.0000
  N   N6        1.0  0.70402  0.07269  0.41829  1.0000
  N   N7        1.0  0.79598  0.57269  0.91829  1.0000
  N   N8        1.0  0.29598  0.92731  0.58171  1.0000
  N   N9        1.0  0.54276  0.34005  0.16905  1.0000
  N   N10       1.0  0.04276  0.15995  0.33095  1.0000
  N   N11       1.0  0.45724  0.65995  0.83095  1.0000
  N   N12       1.0  0.95724  0.84005  0.66905  1.0000
  O   O1        1.0  0.07130  0.64772  0.12327  1.0000
  O   O2        1.0  0.57131  0.85228  0.37673  1.0000
  O   O3        1.0  0.92870  0.35228  0.87673  1.0000
  O   O4        1.0  0.42870  0.14772  0.62327  1.0000
  O   O5        1.0  0.36780  0.22033  0.00084  1.0000
  O   O6        1.0  0.86780  0.27967  0.49915  1.0000
  O   O7        1.0  0.63220  0.77967  0.99915  1.0000
  O   O8        1.0  0.13220  0.72033  0.50084  1.0000
  O   O9        1.0  0.32457  0.40483  0.36950  1.0000
  O   O10       1.0  0.82457  0.09517  0.13050  1.0000
  O   O11       1.0  0.67543  0.59517  0.63050  1.0000
  O   O12       1.0  0.17543  0.90483  0.86950  1.0000
  O   O13       1.0  0.76516  0.50331  0.34049  1.0000
  O   O14       1.0  0.26517  0.99669  0.15951  1.0000
  O   O15       1.0  0.23483  0.49669  0.65951  1.0000
  O   O16       1.0  0.73483  0.00331  0.84049  1.0000
