data_image0
_chemical_formula_structural       Cu2H24C36N12O8
_chemical_formula_sum              "Cu2 H24 C36 N12 O8"
_cell_length_a       7.83137
_cell_length_b       10.2293
_cell_length_c       12.9864
_cell_angle_alpha    86.0651
_cell_angle_beta     74.7878
_cell_angle_gamma    78.2372

_space_group_name_H-M_alt    "P 1"
_space_group_IT_number       1

loop_
  _space_group_symop_operation_xyz
  'x, y, z'

loop_
  _atom_site_type_symbol
  _atom_site_label
  _atom_site_symmetry_multiplicity
  _atom_site_fract_x
  _atom_site_fract_y
  _atom_site_fract_z
  _atom_site_occupancy
  Cu  Cu1       1.0  0.81470  0.37656  0.55780  1.0000
  Cu  Cu2       1.0  0.18530  0.62343  0.44220  1.0000
  H   H1        1.0  0.03247  0.19769  0.35490  1.0000
  H   H2        1.0  0.96753  0.80231  0.64510  1.0000
  H   H3        1.0  0.66400  0.56424  0.37389  1.0000
  H   H4        1.0  0.33600  0.43576  0.62611  1.0000
  H   H5        1.0  0.62615  0.68165  0.23615  1.0000
  H   H6        1.0  0.37385  0.31835  0.76385  1.0000
  H   H7        1.0  0.53672  0.79265  0.07739  1.0000
  H   H8        1.0  0.46328  0.20735  0.92260  1.0000
  H   H9        1.0  0.61768  0.67423  0.90648  1.0000
  H   H10       1.0  0.38233  0.32578  0.09352  1.0000
  H   H11       1.0  0.88781  0.32715  0.05110  1.0000
  H   H12       1.0  0.11218  0.67285  0.94890  1.0000
  H   H13       1.0  0.66756  0.55692  0.76733  1.0000
  H   H14       1.0  0.33243  0.44307  0.23267  1.0000
  H   H15       1.0  0.98177  0.17153  0.72478  1.0000
  H   H16       1.0  0.01823  0.82847  0.27522  1.0000
  H   H17       1.0  0.32558  0.13500  0.70878  1.0000
  H   H18       1.0  0.67441  0.86500  0.29122  1.0000
  H   H19       1.0  0.21807  0.91865  0.75768  1.0000
  H   H20       1.0  0.78193  0.08135  0.24232  1.0000
  H   H21       1.0  0.41778  0.70699  0.67921  1.0000
  H   H22       1.0  0.58222  0.29301  0.32079  1.0000
  H   H23       1.0  0.82540  0.92425  0.51301  1.0000
  H   H24       1.0  0.17459  0.07576  0.48699  1.0000
  C   C1        1.0  0.94978  0.28751  0.33190  1.0000
  C   C2        1.0  0.05022  0.71249  0.66810  1.0000
  C   C3        1.0  0.76239  0.47449  0.34485  1.0000
  C   C4        1.0  0.23761  0.52551  0.65515  1.0000
  C   C5        1.0  0.76505  0.49905  0.15178  1.0000
  C   C6        1.0  0.23494  0.50095  0.84822  1.0000
  C   C7        1.0  0.66565  0.62957  0.16055  1.0000
  C   C8        1.0  0.33435  0.37043  0.83945  1.0000
  C   C9        1.0  0.61354  0.69066  0.07147  1.0000
  C   C10       1.0  0.38646  0.30935  0.92853  1.0000
  C   C11       1.0  0.65814  0.62379  0.97530  1.0000
  C   C12       1.0  0.34187  0.37621  0.02470  1.0000
  C   C13       1.0  0.75513  0.49236  0.96944  1.0000
  C   C14       1.0  0.24487  0.50764  0.03056  1.0000
  C   C15       1.0  0.81049  0.42869  0.05695  1.0000
  C   C16       1.0  0.18950  0.57131  0.94305  1.0000
  C   C17       1.0  0.74861  0.46184  0.78188  1.0000
  C   C18       1.0  0.25138  0.53815  0.21813  1.0000
  C   C19       1.0  0.90846  0.26487  0.76259  1.0000
  C   C20       1.0  0.09154  0.73513  0.23741  1.0000
  C   C21       1.0  0.64423  0.17379  0.59040  1.0000
  C   C22       1.0  0.35577  0.82621  0.40960  1.0000
  C   C23       1.0  0.58367  0.04242  0.61183  1.0000
  C   C24       1.0  0.41633  0.95758  0.38817  1.0000
  C   C25       1.0  0.41121  0.04062  0.67864  1.0000
  C   C26       1.0  0.58879  0.95938  0.32136  1.0000
  C   C27       1.0  0.35112  0.92053  0.70469  1.0000
  C   C28       1.0  0.64887  0.07947  0.29531  1.0000
  C   C29       1.0  0.46158  0.80211  0.66146  1.0000
  C   C30       1.0  0.53842  0.19789  0.33854  1.0000
  C   C31       1.0  0.63078  0.80312  0.59098  1.0000
  C   C32       1.0  0.36922  0.19689  0.40902  1.0000
  C   C33       1.0  0.69288  0.92356  0.56716  1.0000
  C   C34       1.0  0.30711  0.07644  0.43284  1.0000
  C   C35       1.0  0.74486  0.67544  0.54066  1.0000
  C   C36       1.0  0.25513  0.32456  0.45934  1.0000
  N   N1        1.0  0.84330  0.38216  0.40307  1.0000
  N   N2        1.0  0.15670  0.61783  0.59693  1.0000
  N   N3        1.0  0.94027  0.31629  0.23246  1.0000
  N   N4        1.0  0.05973  0.68371  0.76754  1.0000
  N   N5        1.0  0.81984  0.43557  0.24176  1.0000
  N   N6        1.0  0.18016  0.56443  0.75824  1.0000
  N   N7        1.0  0.81697  0.36501  0.71095  1.0000
  N   N8        1.0  0.18302  0.63498  0.28905  1.0000
  N   N9        1.0  0.79803  0.42137  0.87290  1.0000
  N   N10       1.0  0.20197  0.57863  0.12710  1.0000
  N   N11       1.0  0.90005  0.29477  0.86170  1.0000
  N   N12       1.0  0.09995  0.70523  0.13830  1.0000
  O   O1        1.0  0.81508  0.17261  0.55912  1.0000
  O   O2        1.0  0.18492  0.82739  0.44089  1.0000
  O   O3        1.0  0.52742  0.28024  0.60678  1.0000
  O   O4        1.0  0.47258  0.71977  0.39322  1.0000
  O   O5        1.0  0.69427  0.56762  0.58473  1.0000
  O   O6        1.0  0.30574  0.43238  0.41527  1.0000
  O   O7        1.0  0.87744  0.68106  0.46277  1.0000
  O   O8        1.0  0.12256  0.31894  0.53723  1.0000
