data_image0
_chemical_formula_structural       Ag8H56C48Br8N8
_chemical_formula_sum              "Ag8 H56 C48 Br8 N8"
_cell_length_a       6.62735
_cell_length_b       14.2474
_cell_length_c       15.6865
_cell_angle_alpha    90.0034
_cell_angle_beta     89.9996
_cell_angle_gamma    89.9974

_space_group_name_H-M_alt    "P 1"
_space_group_IT_number       1

loop_
  _space_group_symop_operation_xyz
  'x, y, z'

loop_
  _atom_site_type_symbol
  _atom_site_label
  _atom_site_symmetry_multiplicity
  _atom_site_fract_x
  _atom_site_fract_y
  _atom_site_fract_z
  _atom_site_occupancy
  Ag  Ag1       1.0  0.92650  0.80570  0.66658  1.0000
  Ag  Ag2       1.0  0.92642  0.69431  0.83342  1.0000
  Ag  Ag3       1.0  0.57350  0.19432  0.16658  1.0000
  Ag  Ag4       1.0  0.57357  0.30568  0.33341  1.0000
  Ag  Ag5       1.0  0.07355  0.19433  0.33341  1.0000
  Ag  Ag6       1.0  0.07360  0.30565  0.16660  1.0000
  Ag  Ag7       1.0  0.42642  0.80565  0.83338  1.0000
  Ag  Ag8       1.0  0.42637  0.69438  0.66661  1.0000
  H   H1        1.0  0.25660  0.79613  0.51583  1.0000
  H   H2        1.0  0.25657  0.70388  0.98417  1.0000
  H   H3        1.0  0.24341  0.20389  0.01582  1.0000
  H   H4        1.0  0.24341  0.29612  0.48416  1.0000
  H   H5        1.0  0.74344  0.20390  0.48415  1.0000
  H   H6        1.0  0.74344  0.29610  0.01584  1.0000
  H   H7        1.0  0.75656  0.79609  0.98414  1.0000
  H   H8        1.0  0.75657  0.70391  0.51588  1.0000
  H   H9        1.0  0.46920  0.80910  0.39124  1.0000
  H   H10       1.0  0.46919  0.69088  0.10876  1.0000
  H   H11       1.0  0.03084  0.19088  0.89122  1.0000
  H   H12       1.0  0.03084  0.30910  0.60878  1.0000
  H   H13       1.0  0.53080  0.19091  0.60873  1.0000
  H   H14       1.0  0.53081  0.30910  0.89126  1.0000
  H   H15       1.0  0.96917  0.80909  0.10873  1.0000
  H   H16       1.0  0.96921  0.69089  0.39129  1.0000
  H   H17       1.0  0.32376  0.80423  0.29624  1.0000
  H   H18       1.0  0.32377  0.69573  0.20376  1.0000
  H   H19       1.0  0.17626  0.19573  0.79622  1.0000
  H   H20       1.0  0.17629  0.30426  0.70378  1.0000
  H   H21       1.0  0.67619  0.19578  0.70373  1.0000
  H   H22       1.0  0.67623  0.30424  0.79625  1.0000
  H   H23       1.0  0.82374  0.80423  0.20374  1.0000
  H   H24       1.0  0.82379  0.69578  0.29629  1.0000
  H   H25       1.0  0.43177  0.91199  0.32844  1.0000
  H   H26       1.0  0.43177  0.58798  0.17156  1.0000
  H   H27       1.0  0.06827  0.08798  0.82842  1.0000
  H   H28       1.0  0.06824  0.41201  0.67158  1.0000
  H   H29       1.0  0.56821  0.08802  0.67154  1.0000
  H   H30       1.0  0.56825  0.41200  0.82846  1.0000
  H   H31       1.0  0.93172  0.91199  0.17154  1.0000
  H   H32       1.0  0.93174  0.58801  0.32846  1.0000
  H   H33       1.0  0.04058  0.95847  0.30240  1.0000
  H   H34       1.0  0.04059  0.54150  0.19759  1.0000
  H   H35       1.0  0.45949  0.04149  0.80239  1.0000
  H   H36       1.0  0.45944  0.45850  0.69761  1.0000
  H   H37       1.0  0.95940  0.04153  0.69758  1.0000
  H   H38       1.0  0.95943  0.45847  0.80242  1.0000
  H   H39       1.0  0.54052  0.95847  0.19758  1.0000
  H   H40       1.0  0.54057  0.54153  0.30242  1.0000
  H   H41       1.0  0.72625  0.98954  0.38554  1.0000
  H   H42       1.0  0.72624  0.51045  0.11446  1.0000
  H   H43       1.0  0.77380  0.01044  0.88554  1.0000
  H   H44       1.0  0.77376  0.48957  0.61447  1.0000
  H   H45       1.0  0.27375  0.01046  0.61445  1.0000
  H   H46       1.0  0.27377  0.48952  0.88556  1.0000
  H   H47       1.0  0.22619  0.98953  0.11444  1.0000
  H   H48       1.0  0.22622  0.51048  0.38555  1.0000
  H   H49       1.0  0.69074  0.91820  0.53132  1.0000
  H   H50       1.0  0.69071  0.58183  0.96870  1.0000
  H   H51       1.0  0.80927  0.08181  0.03132  1.0000
  H   H52       1.0  0.80925  0.41820  0.46869  1.0000
  H   H53       1.0  0.30930  0.08182  0.46869  1.0000
  H   H54       1.0  0.30930  0.41815  0.03132  1.0000
  H   H55       1.0  0.19070  0.91817  0.96866  1.0000
  H   H56       1.0  0.19070  0.58185  0.53133  1.0000
  C   C1        1.0  0.14075  0.83767  0.48382  1.0000
  C   C2        1.0  0.14072  0.66234  0.01618  1.0000
  C   C3        1.0  0.35929  0.16234  0.98381  1.0000
  C   C4        1.0  0.35927  0.33768  0.51618  1.0000
  C   C5        1.0  0.85929  0.16235  0.51617  1.0000
  C   C6        1.0  0.85929  0.33765  0.98384  1.0000
  C   C7        1.0  0.64070  0.83765  0.01615  1.0000
  C   C8        1.0  0.64071  0.66236  0.48386  1.0000
  C   C9        1.0  0.17187  0.87094  0.40093  1.0000
  C   C10       1.0  0.17185  0.62904  0.09906  1.0000
  C   C11       1.0  0.32818  0.12904  0.90093  1.0000
  C   C12       1.0  0.32815  0.37096  0.59907  1.0000
  C   C13       1.0  0.82814  0.12908  0.59905  1.0000
  C   C14       1.0  0.82816  0.37093  0.90095  1.0000
  C   C15       1.0  0.67181  0.87092  0.09904  1.0000
  C   C16       1.0  0.67184  0.62908  0.40097  1.0000
  C   C17       1.0  0.35990  0.84763  0.35222  1.0000
  C   C18       1.0  0.35988  0.65233  0.14777  1.0000
  C   C19       1.0  0.14016  0.15233  0.85221  1.0000
  C   C20       1.0  0.14015  0.34766  0.64779  1.0000
  C   C21       1.0  0.64010  0.15238  0.64775  1.0000
  C   C22       1.0  0.64013  0.34764  0.85224  1.0000
  C   C23       1.0  0.85984  0.84763  0.14775  1.0000
  C   C24       1.0  0.85987  0.65237  0.35227  1.0000
  C   C25       1.0  0.02026  0.92712  0.36530  1.0000
  C   C26       1.0  0.02025  0.57287  0.13470  1.0000
  C   C27       1.0  0.47980  0.07286  0.86528  1.0000
  C   C28       1.0  0.47975  0.42714  0.63471  1.0000
  C   C29       1.0  0.97974  0.07289  0.63469  1.0000
  C   C30       1.0  0.97975  0.42711  0.86531  1.0000
  C   C31       1.0  0.52021  0.92711  0.13468  1.0000
  C   C32       1.0  0.52024  0.57290  0.36532  1.0000
  C   C33       1.0  0.84489  0.94470  0.41131  1.0000
  C   C34       1.0  0.84487  0.55530  0.08868  1.0000
  C   C35       1.0  0.65515  0.05529  0.91132  1.0000
  C   C36       1.0  0.65511  0.44472  0.58869  1.0000
  C   C37       1.0  0.15511  0.05531  0.58868  1.0000
  C   C38       1.0  0.15514  0.44468  0.91133  1.0000
  C   C39       1.0  0.34484  0.94468  0.08866  1.0000
  C   C40       1.0  0.34486  0.55533  0.41134  1.0000
  C   C41       1.0  0.82531  0.90658  0.49256  1.0000
  C   C42       1.0  0.82529  0.59343  0.00744  1.0000
  C   C43       1.0  0.67470  0.09342  0.99256  1.0000
  C   C44       1.0  0.67469  0.40659  0.50744  1.0000
  C   C45       1.0  0.17471  0.09343  0.50743  1.0000
  C   C46       1.0  0.17472  0.40655  0.99257  1.0000
  C   C47       1.0  0.32527  0.90656  0.00742  1.0000
  C   C48       1.0  0.32528  0.59345  0.49258  1.0000
  Br  Br1       1.0  0.52857  0.87982  0.68036  1.0000
  Br  Br2       1.0  0.52854  0.62018  0.81964  1.0000
  Br  Br3       1.0  0.97145  0.12019  0.18036  1.0000
  Br  Br4       1.0  0.97147  0.37980  0.31965  1.0000
  Br  Br5       1.0  0.47149  0.12021  0.31965  1.0000
  Br  Br6       1.0  0.47148  0.37980  0.18037  1.0000
  Br  Br7       1.0  0.02853  0.87978  0.81964  1.0000
  Br  Br8       1.0  0.02851  0.62021  0.68036  1.0000
  N   N1        1.0  0.97165  0.85473  0.52886  1.0000
  N   N2        1.0  0.97161  0.64528  0.97114  1.0000
  N   N3        1.0  0.52837  0.14528  0.02886  1.0000
  N   N4        1.0  0.52836  0.35473  0.47114  1.0000
  N   N5        1.0  0.02839  0.14529  0.47113  1.0000
  N   N6        1.0  0.02840  0.35470  0.02887  1.0000
  N   N7        1.0  0.47160  0.85470  0.97111  1.0000
  N   N8        1.0  0.47161  0.64531  0.52889  1.0000
