data_image0
_chemical_formula_structural       Ag8H56C48Br8N8
_chemical_formula_sum              "Ag8 H56 C48 Br8 N8"
_cell_length_a       8.68322
_cell_length_b       9.69362
_cell_length_c       17.8849
_cell_angle_alpha    90
_cell_angle_beta     90
_cell_angle_gamma    99.6258

_space_group_name_H-M_alt    "P 1"
_space_group_IT_number       1

loop_
  _space_group_symop_operation_xyz
  'x, y, z'

loop_
  _atom_site_type_symbol
  _atom_site_label
  _atom_site_symmetry_multiplicity
  _atom_site_fract_x
  _atom_site_fract_y
  _atom_site_fract_z
  _atom_site_occupancy
  Ag  Ag1       1.0  0.14086  0.60055  0.51720  1.0000
  Ag  Ag2       1.0  0.64085  0.10055  0.98280  1.0000
  Ag  Ag3       1.0  0.85915  0.39946  0.48280  1.0000
  Ag  Ag4       1.0  0.35915  0.89945  0.01720  1.0000
  Ag  Ag5       1.0  0.35683  0.39347  0.48921  1.0000
  Ag  Ag6       1.0  0.85683  0.89347  0.01079  1.0000
  Ag  Ag7       1.0  0.64317  0.60653  0.51079  1.0000
  Ag  Ag8       1.0  0.14317  0.10653  0.98921  1.0000
  H   H1        1.0  0.42267  0.84423  0.49383  1.0000
  H   H2        1.0  0.92268  0.34423  0.00617  1.0000
  H   H3        1.0  0.57732  0.15577  0.50617  1.0000
  H   H4        1.0  0.07733  0.65577  0.99383  1.0000
  H   H5        1.0  0.53456  0.02637  0.40098  1.0000
  H   H6        1.0  0.03456  0.52637  0.09902  1.0000
  H   H7        1.0  0.46544  0.97363  0.59901  1.0000
  H   H8        1.0  0.96544  0.47363  0.90098  1.0000
  H   H9        1.0  0.12288  0.90079  0.26660  1.0000
  H   H10       1.0  0.62288  0.40079  0.23340  1.0000
  H   H11       1.0  0.87711  0.09921  0.73340  1.0000
  H   H12       1.0  0.37712  0.59922  0.76660  1.0000
  H   H13       1.0  0.02503  0.72767  0.36640  1.0000
  H   H14       1.0  0.52504  0.22767  0.13360  1.0000
  H   H15       1.0  0.97496  0.27233  0.63360  1.0000
  H   H16       1.0  0.47497  0.77233  0.86639  1.0000
  H   H17       1.0  0.51917  0.05771  0.24776  1.0000
  H   H18       1.0  0.01917  0.55771  0.25224  1.0000
  H   H19       1.0  0.48083  0.94229  0.75224  1.0000
  H   H20       1.0  0.98083  0.44229  0.74776  1.0000
  H   H21       1.0  0.42607  0.18801  0.28880  1.0000
  H   H22       1.0  0.92607  0.68801  0.21120  1.0000
  H   H23       1.0  0.57393  0.81199  0.71120  1.0000
  H   H24       1.0  0.07393  0.31199  0.78880  1.0000
  H   H25       1.0  0.32902  0.07534  0.21751  1.0000
  H   H26       1.0  0.82902  0.57534  0.28249  1.0000
  H   H27       1.0  0.67098  0.92466  0.78248  1.0000
  H   H28       1.0  0.17098  0.42466  0.71751  1.0000
  H   H29       1.0  0.36797  0.32812  0.65948  1.0000
  H   H30       1.0  0.86798  0.82812  0.84052  1.0000
  H   H31       1.0  0.63203  0.67188  0.34052  1.0000
  H   H32       1.0  0.13203  0.17188  0.15948  1.0000
  H   H33       1.0  0.28286  0.13969  0.75392  1.0000
  H   H34       1.0  0.78286  0.63969  0.74608  1.0000
  H   H35       1.0  0.71714  0.86031  0.24608  1.0000
  H   H36       1.0  0.21714  0.36031  0.25392  1.0000
  H   H37       1.0  0.08070  0.87790  0.57218  1.0000
  H   H38       1.0  0.58070  0.37789  0.92782  1.0000
  H   H39       1.0  0.91930  0.12211  0.42782  1.0000
  H   H40       1.0  0.41930  0.62210  0.07218  1.0000
  H   H41       1.0  0.16914  0.07825  0.48598  1.0000
  H   H42       1.0  0.66914  0.57825  0.01402  1.0000
  H   H43       1.0  0.83086  0.92175  0.51402  1.0000
  H   H44       1.0  0.33086  0.42175  0.98598  1.0000
  H   H45       1.0  0.15578  0.90610  0.78253  1.0000
  H   H46       1.0  0.65578  0.40610  0.71747  1.0000
  H   H47       1.0  0.84422  0.09391  0.21747  1.0000
  H   H48       1.0  0.34422  0.59391  0.28253  1.0000
  H   H49       1.0  0.17002  0.78214  0.70985  1.0000
  H   H50       1.0  0.67002  0.28214  0.79015  1.0000
  H   H51       1.0  0.82998  0.21786  0.29015  1.0000
  H   H52       1.0  0.32998  0.71786  0.20985  1.0000
  H   H53       1.0  0.99360  0.84514  0.72256  1.0000
  H   H54       1.0  0.49360  0.34515  0.77744  1.0000
  H   H55       1.0  0.00640  0.15486  0.27744  1.0000
  H   H56       1.0  0.50640  0.65485  0.22256  1.0000
  C   C1        1.0  0.35871  0.86228  0.44325  1.0000
  C   C2        1.0  0.85872  0.36228  0.05675  1.0000
  C   C3        1.0  0.64128  0.13772  0.55675  1.0000
  C   C4        1.0  0.14129  0.63771  0.94325  1.0000
  C   C5        1.0  0.42066  0.96257  0.39122  1.0000
  C   C6        1.0  0.92066  0.46257  0.10879  1.0000
  C   C7        1.0  0.57933  0.03743  0.60879  1.0000
  C   C8        1.0  0.07934  0.53743  0.89121  1.0000
  C   C9        1.0  0.33800  0.97880  0.32537  1.0000
  C   C10       1.0  0.83800  0.47880  0.17463  1.0000
  C   C11       1.0  0.66200  0.02120  0.67463  1.0000
  C   C12       1.0  0.16201  0.52120  0.82537  1.0000
  C   C13       1.0  0.19222  0.89338  0.31688  1.0000
  C   C14       1.0  0.69222  0.39338  0.18313  1.0000
  C   C15       1.0  0.80778  0.10662  0.68312  1.0000
  C   C16       1.0  0.30778  0.60662  0.81687  1.0000
  C   C17       1.0  0.13745  0.79631  0.37205  1.0000
  C   C18       1.0  0.63745  0.29631  0.12795  1.0000
  C   C19       1.0  0.86255  0.20369  0.62795  1.0000
  C   C20       1.0  0.36256  0.70369  0.87205  1.0000
  C   C21       1.0  0.40555  0.08074  0.26648  1.0000
  C   C22       1.0  0.90555  0.58074  0.23352  1.0000
  C   C23       1.0  0.59445  0.91926  0.73352  1.0000
  C   C24       1.0  0.09445  0.41927  0.76648  1.0000
  C   C25       1.0  0.30268  0.22676  0.64276  1.0000
  C   C26       1.0  0.80268  0.72676  0.85724  1.0000
  C   C27       1.0  0.69733  0.77324  0.35724  1.0000
  C   C28       1.0  0.19732  0.27323  0.14277  1.0000
  C   C29       1.0  0.25503  0.12169  0.69483  1.0000
  C   C30       1.0  0.75503  0.62169  0.80517  1.0000
  C   C31       1.0  0.74497  0.87831  0.30517  1.0000
  C   C32       1.0  0.24497  0.37830  0.19483  1.0000
  C   C33       1.0  0.17340  0.99236  0.67103  1.0000
  C   C34       1.0  0.67340  0.49235  0.82897  1.0000
  C   C35       1.0  0.82660  0.00765  0.32897  1.0000
  C   C36       1.0  0.32660  0.50764  0.17103  1.0000
  C   C37       1.0  0.14284  0.97679  0.59413  1.0000
  C   C38       1.0  0.64284  0.47679  0.90587  1.0000
  C   C39       1.0  0.85716  0.02321  0.40587  1.0000
  C   C40       1.0  0.35715  0.52321  0.09413  1.0000
  C   C41       1.0  0.19253  0.08769  0.54584  1.0000
  C   C42       1.0  0.69253  0.58768  0.95416  1.0000
  C   C43       1.0  0.80747  0.91232  0.45416  1.0000
  C   C44       1.0  0.30747  0.41231  0.04585  1.0000
  C   C45       1.0  0.12117  0.87588  0.72505  1.0000
  C   C46       1.0  0.62117  0.37588  0.77495  1.0000
  C   C47       1.0  0.87883  0.12412  0.27495  1.0000
  C   C48       1.0  0.37883  0.62412  0.22505  1.0000
  Br  Br1       1.0  0.40284  0.60737  0.60402  1.0000
  Br  Br2       1.0  0.90284  0.10737  0.89598  1.0000
  Br  Br3       1.0  0.59716  0.39263  0.39598  1.0000
  Br  Br4       1.0  0.09716  0.89263  0.10402  1.0000
  Br  Br5       1.0  0.10766  0.40081  0.39639  1.0000
  Br  Br6       1.0  0.60766  0.90081  0.10361  1.0000
  Br  Br7       1.0  0.89234  0.59920  0.60362  1.0000
  Br  Br8       1.0  0.39234  0.09919  0.89639  1.0000
  N   N1        1.0  0.21914  0.77958  0.43429  1.0000
  N   N2        1.0  0.71914  0.27958  0.06571  1.0000
  N   N3        1.0  0.78086  0.22042  0.56571  1.0000
  N   N4        1.0  0.28086  0.72042  0.93429  1.0000
  N   N5        1.0  0.27183  0.21161  0.56929  1.0000
  N   N6        1.0  0.77183  0.71161  0.93071  1.0000
  N   N7        1.0  0.72818  0.78839  0.43071  1.0000
  N   N8        1.0  0.22817  0.28838  0.06929  1.0000
