data_image0
_chemical_formula_structural       Ag4H28C24Br4N4
_chemical_formula_sum              "Ag4 H28 C24 Br4 N4"
_cell_length_a       4.31664
_cell_length_b       9.27133
_cell_length_c       18.5273
_cell_angle_alpha    90
_cell_angle_beta     90.001
_cell_angle_gamma    94.9448

_space_group_name_H-M_alt    "P 1"
_space_group_IT_number       1

loop_
  _space_group_symop_operation_xyz
  'x, y, z'

loop_
  _atom_site_type_symbol
  _atom_site_label
  _atom_site_symmetry_multiplicity
  _atom_site_fract_x
  _atom_site_fract_y
  _atom_site_fract_z
  _atom_site_occupancy
  Ag  Ag1       1.0  0.26448  0.60946  0.48741  1.0000
  Ag  Ag2       1.0  0.73552  0.89054  0.98741  1.0000
  Ag  Ag3       1.0  0.73552  0.39054  0.51259  1.0000
  Ag  Ag4       1.0  0.26448  0.10945  0.01259  1.0000
  H   H1        1.0  0.12226  0.69506  0.64784  1.0000
  H   H2        1.0  0.87772  0.80495  0.14784  1.0000
  H   H3        1.0  0.87774  0.30493  0.35216  1.0000
  H   H4        1.0  0.12227  0.19507  0.85216  1.0000
  H   H5        1.0  0.30657  0.87121  0.74429  1.0000
  H   H6        1.0  0.69343  0.62879  0.24429  1.0000
  H   H7        1.0  0.69343  0.12878  0.25571  1.0000
  H   H8        1.0  0.30657  0.37122  0.75571  1.0000
  H   H9        1.0  0.58378  0.14626  0.75761  1.0000
  H   H10       1.0  0.41625  0.35374  0.25760  1.0000
  H   H11       1.0  0.41620  0.85373  0.24239  1.0000
  H   H12       1.0  0.58378  0.64626  0.74239  1.0000
  H   H13       1.0  0.88068  0.03200  0.77416  1.0000
  H   H14       1.0  0.11934  0.46800  0.27415  1.0000
  H   H15       1.0  0.11931  0.96799  0.22585  1.0000
  H   H16       1.0  0.88066  0.53201  0.72585  1.0000
  H   H17       1.0  0.93947  0.17449  0.70880  1.0000
  H   H18       1.0  0.06056  0.32551  0.20879  1.0000
  H   H19       1.0  0.06052  0.82550  0.29121  1.0000
  H   H20       1.0  0.93945  0.67449  0.79120  1.0000
  H   H21       1.0  0.93455  0.07977  0.58829  1.0000
  H   H22       1.0  0.06546  0.42022  0.08828  1.0000
  H   H23       1.0  0.06545  0.92022  0.41171  1.0000
  H   H24       1.0  0.93455  0.57978  0.91171  1.0000
  H   H25       1.0  0.73391  0.89050  0.49888  1.0000
  H   H26       1.0  0.26610  0.60950  0.99887  1.0000
  H   H27       1.0  0.26609  0.10949  0.50113  1.0000
  H   H28       1.0  0.73391  0.39051  0.00113  1.0000
  C   C1        1.0  0.30292  0.78185  0.63692  1.0000
  C   C2        1.0  0.69709  0.71815  0.13691  1.0000
  C   C3        1.0  0.69708  0.21814  0.36309  1.0000
  C   C4        1.0  0.30291  0.28185  0.86309  1.0000
  C   C5        1.0  0.40601  0.88012  0.69011  1.0000
  C   C6        1.0  0.59398  0.61989  0.19010  1.0000
  C   C7        1.0  0.59400  0.11987  0.30989  1.0000
  C   C8        1.0  0.40599  0.38012  0.80989  1.0000
  C   C9        1.0  0.64098  0.98944  0.67431  1.0000
  C   C10       1.0  0.35903  0.51056  0.17430  1.0000
  C   C11       1.0  0.35901  0.01056  0.32569  1.0000
  C   C12       1.0  0.64097  0.48944  0.82569  1.0000
  C   C13       1.0  0.76933  0.09186  0.73132  1.0000
  C   C14       1.0  0.23068  0.40814  0.23132  1.0000
  C   C15       1.0  0.23066  0.90813  0.26868  1.0000
  C   C16       1.0  0.76934  0.59187  0.76867  1.0000
  C   C17       1.0  0.75585  0.99493  0.60365  1.0000
  C   C18       1.0  0.24416  0.50507  0.10365  1.0000
  C   C19       1.0  0.24414  0.00506  0.39635  1.0000
  C   C20       1.0  0.75585  0.49494  0.89635  1.0000
  C   C21       1.0  0.64350  0.89120  0.55377  1.0000
  C   C22       1.0  0.35650  0.60881  0.05376  1.0000
  C   C23       1.0  0.35650  0.10879  0.44623  1.0000
  C   C24       1.0  0.64350  0.39120  0.94623  1.0000
  Br  Br1       1.0  0.21624  0.38800  0.60070  1.0000
  Br  Br2       1.0  0.78378  0.11201  0.10070  1.0000
  Br  Br3       1.0  0.78381  0.61195  0.39929  1.0000
  Br  Br4       1.0  0.21619  0.88806  0.89929  1.0000
  N   N1        1.0  0.42113  0.78531  0.56962  1.0000
  N   N2        1.0  0.57888  0.71470  0.06961  1.0000
  N   N3        1.0  0.57887  0.21468  0.43038  1.0000
  N   N4        1.0  0.42113  0.28533  0.93038  1.0000
