data_image0
_chemical_formula_structural       Ag4H44C56N8O8
_chemical_formula_sum              "Ag4 H44 C56 N8 O8"
_cell_length_a       7.85902
_cell_length_b       9.52894
_cell_length_c       17.1029
_cell_angle_alpha    90
_cell_angle_beta     96.5895
_cell_angle_gamma    90

_space_group_name_H-M_alt    "P 1"
_space_group_IT_number       1

loop_
  _space_group_symop_operation_xyz
  'x, y, z'

loop_
  _atom_site_type_symbol
  _atom_site_label
  _atom_site_symmetry_multiplicity
  _atom_site_fract_x
  _atom_site_fract_y
  _atom_site_fract_z
  _atom_site_occupancy
  Ag  Ag1       1.0  0.28934  0.09599  0.15215  1.0000
  Ag  Ag2       1.0  0.21067  0.09599  0.34785  1.0000
  Ag  Ag3       1.0  0.71067  0.90401  0.84785  1.0000
  Ag  Ag4       1.0  0.78933  0.90401  0.65215  1.0000
  H   H1        1.0  0.78557  0.93261  0.01984  1.0000
  H   H2        1.0  0.71443  0.93261  0.48016  1.0000
  H   H3        1.0  0.21443  0.06739  0.98016  1.0000
  H   H4        1.0  0.28557  0.06739  0.51984  1.0000
  H   H5        1.0  0.48606  0.84731  0.99242  1.0000
  H   H6        1.0  0.01394  0.84731  0.50759  1.0000
  H   H7        1.0  0.51394  0.15269  0.00758  1.0000
  H   H8        1.0  0.98605  0.15269  0.49241  1.0000
  H   H9        1.0  0.32690  0.77161  0.10379  1.0000
  H   H10       1.0  0.17311  0.77161  0.39621  1.0000
  H   H11       1.0  0.67310  0.22839  0.89621  1.0000
  H   H12       1.0  0.82689  0.22839  0.60379  1.0000
  H   H13       1.0  0.47158  0.77487  0.24004  1.0000
  H   H14       1.0  0.02844  0.77487  0.25996  1.0000
  H   H15       1.0  0.52842  0.22513  0.75996  1.0000
  H   H16       1.0  0.97157  0.22513  0.74004  1.0000
  H   H17       1.0  0.29288  0.42709  0.08830  1.0000
  H   H18       1.0  0.20713  0.42709  0.41170  1.0000
  H   H19       1.0  0.70712  0.57291  0.91170  1.0000
  H   H20       1.0  0.79288  0.57291  0.58830  1.0000
  H   H21       1.0  0.59837  0.57334  0.08617  1.0000
  H   H22       1.0  0.90163  0.57334  0.41383  1.0000
  H   H23       1.0  0.40163  0.42666  0.91383  1.0000
  H   H24       1.0  0.09837  0.42666  0.58617  1.0000
  H   H25       1.0  0.70481  0.17123  0.18477  1.0000
  H   H26       1.0  0.79519  0.17123  0.31523  1.0000
  H   H27       1.0  0.29519  0.82877  0.81523  1.0000
  H   H28       1.0  0.20481  0.82877  0.68477  1.0000
  H   H29       1.0  0.95207  0.31973  0.17323  1.0000
  H   H30       1.0  0.54793  0.31973  0.32677  1.0000
  H   H31       1.0  0.04793  0.68027  0.82677  1.0000
  H   H32       1.0  0.45207  0.68027  0.67323  1.0000
  H   H33       1.0  0.90812  0.49909  0.19329  1.0000
  H   H34       1.0  0.59188  0.49908  0.30671  1.0000
  H   H35       1.0  0.09188  0.50091  0.80671  1.0000
  H   H36       1.0  0.40812  0.50091  0.69329  1.0000
  H   H37       1.0  0.91935  0.25128  0.02025  1.0000
  H   H38       1.0  0.58065  0.25128  0.47975  1.0000
  H   H39       1.0  0.08065  0.74872  0.97975  1.0000
  H   H40       1.0  0.41935  0.74872  0.52025  1.0000
  H   H41       1.0  0.98804  0.67657  0.10604  1.0000
  H   H42       1.0  0.51196  0.67657  0.39396  1.0000
  H   H43       1.0  0.01196  0.32343  0.89396  1.0000
  H   H44       1.0  0.48804  0.32343  0.60604  1.0000
  C   C1        1.0  0.79555  0.90725  0.14563  1.0000
  C   C2        1.0  0.70446  0.90725  0.35437  1.0000
  C   C3        1.0  0.20445  0.09276  0.85437  1.0000
  C   C4        1.0  0.29554  0.09275  0.64563  1.0000
  C   C5        1.0  0.71591  0.89807  0.06816  1.0000
  C   C6        1.0  0.78410  0.89807  0.43184  1.0000
  C   C7        1.0  0.28409  0.10193  0.93184  1.0000
  C   C8        1.0  0.21590  0.10192  0.56816  1.0000
  C   C9        1.0  0.54758  0.85043  0.05277  1.0000
  C   C10       1.0  0.95243  0.85043  0.44723  1.0000
  C   C11       1.0  0.45242  0.14957  0.94723  1.0000
  C   C12       1.0  0.04756  0.14956  0.55277  1.0000
  C   C13       1.0  0.45864  0.80860  0.11500  1.0000
  C   C14       1.0  0.04137  0.80860  0.38501  1.0000
  C   C15       1.0  0.54136  0.19140  0.88500  1.0000
  C   C16       1.0  0.95863  0.19140  0.61499  1.0000
  C   C17       1.0  0.54005  0.81163  0.19193  1.0000
  C   C18       1.0  0.95996  0.81163  0.30808  1.0000
  C   C19       1.0  0.45995  0.18837  0.80807  1.0000
  C   C20       1.0  0.04004  0.18837  0.69192  1.0000
  C   C21       1.0  0.70818  0.86170  0.20890  1.0000
  C   C22       1.0  0.79184  0.86170  0.29111  1.0000
  C   C23       1.0  0.29182  0.13830  0.79110  1.0000
  C   C24       1.0  0.20817  0.13830  0.70889  1.0000
  C   C25       1.0  0.96465  0.98214  0.16005  1.0000
  C   C26       1.0  0.53535  0.98214  0.33995  1.0000
  C   C27       1.0  0.03534  0.01786  0.83995  1.0000
  C   C28       1.0  0.46465  0.01786  0.66005  1.0000
  C   C29       1.0  0.42297  0.39553  0.10852  1.0000
  C   C30       1.0  0.07703  0.39554  0.39148  1.0000
  C   C31       1.0  0.57703  0.60446  0.89148  1.0000
  C   C32       1.0  0.92297  0.60447  0.60852  1.0000
  C   C33       1.0  0.57279  0.46907  0.10691  1.0000
  C   C34       1.0  0.92721  0.46907  0.39309  1.0000
  C   C35       1.0  0.42720  0.53093  0.89309  1.0000
  C   C36       1.0  0.07280  0.53093  0.60691  1.0000
  C   C37       1.0  0.63026  0.25851  0.15861  1.0000
  C   C38       1.0  0.86975  0.25852  0.34139  1.0000
  C   C39       1.0  0.36974  0.74148  0.84139  1.0000
  C   C40       1.0  0.13025  0.74148  0.65861  1.0000
  C   C41       1.0  0.88582  0.41474  0.14939  1.0000
  C   C42       1.0  0.61418  0.41474  0.35061  1.0000
  C   C43       1.0  0.11418  0.58526  0.85061  1.0000
  C   C44       1.0  0.38582  0.58526  0.64939  1.0000
  C   C45       1.0  0.94679  0.45868  0.07248  1.0000
  C   C46       1.0  0.55322  0.45868  0.42752  1.0000
  C   C47       1.0  0.05321  0.54132  0.92751  1.0000
  C   C48       1.0  0.44679  0.54132  0.57248  1.0000
  C   C49       1.0  0.95397  0.36077  0.01179  1.0000
  C   C50       1.0  0.54603  0.36077  0.48821  1.0000
  C   C51       1.0  0.04602  0.63923  0.98821  1.0000
  C   C52       1.0  0.45398  0.63923  0.51179  1.0000
  C   C53       1.0  0.99340  0.59812  0.05994  1.0000
  C   C54       1.0  0.50660  0.59812  0.44006  1.0000
  C   C55       1.0  0.00660  0.40188  0.94006  1.0000
  C   C56       1.0  0.49340  0.40188  0.55994  1.0000
  N   N1        1.0  0.46053  0.26453  0.14104  1.0000
  N   N2        1.0  0.03948  0.26453  0.35896  1.0000
  N   N3        1.0  0.53947  0.73547  0.85896  1.0000
  N   N4        1.0  0.96053  0.73547  0.64104  1.0000
  N   N5        1.0  0.70223  0.38119  0.13892  1.0000
  N   N6        1.0  0.79777  0.38119  0.36108  1.0000
  N   N7        1.0  0.29777  0.61881  0.86108  1.0000
  N   N8        1.0  0.20223  0.61881  0.63892  1.0000
  O   O1        1.0  0.97263  0.08917  0.20383  1.0000
  O   O2        1.0  0.52738  0.08917  0.29617  1.0000
  O   O3        1.0  0.02737  0.91083  0.79617  1.0000
  O   O4        1.0  0.47262  0.91083  0.70383  1.0000
  O   O5        1.0  0.08958  0.93659  0.12487  1.0000
  O   O6        1.0  0.41043  0.93659  0.37514  1.0000
  O   O7        1.0  0.91042  0.06341  0.87514  1.0000
  O   O8        1.0  0.58957  0.06341  0.62486  1.0000
