data_image0
_chemical_formula_structural       Cu2H24C20S4N4O12
_chemical_formula_sum              "Cu2 H24 C20 S4 N4 O12"
_cell_length_a       7.43174
_cell_length_b       8.54902
_cell_length_c       11.5281
_cell_angle_alpha    89.9974
_cell_angle_beta     90.0008
_cell_angle_gamma    100.4

_space_group_name_H-M_alt    "P 1"
_space_group_IT_number       1

loop_
  _space_group_symop_operation_xyz
  'x, y, z'

loop_
  _atom_site_type_symbol
  _atom_site_label
  _atom_site_symmetry_multiplicity
  _atom_site_fract_x
  _atom_site_fract_y
  _atom_site_fract_z
  _atom_site_occupancy
  Cu  Cu1       1.0  0.50000  0.50000  0.50000  1.0000
  Cu  Cu2       1.0  0.00000  0.00000  0.00000  1.0000
  H   H1        1.0  0.23667  0.35580  0.63271  1.0000
  H   H2        1.0  0.26334  0.14420  0.13270  1.0000
  H   H3        1.0  0.76333  0.64420  0.36729  1.0000
  H   H4        1.0  0.73667  0.85579  0.86730  1.0000
  H   H5        1.0  0.11685  0.69976  0.90229  1.0000
  H   H6        1.0  0.38314  0.80023  0.40229  1.0000
  H   H7        1.0  0.88315  0.30024  0.09770  1.0000
  H   H8        1.0  0.61685  0.19977  0.59771  1.0000
  H   H9        1.0  0.19347  0.17052  0.77863  1.0000
  H   H10       1.0  0.30654  0.32948  0.27865  1.0000
  H   H11       1.0  0.80653  0.82948  0.22137  1.0000
  H   H12       1.0  0.69346  0.67052  0.72135  1.0000
  H   H13       1.0  0.03344  0.33504  0.47723  1.0000
  H   H14       1.0  0.46655  0.16499  0.97721  1.0000
  H   H15       1.0  0.96656  0.66496  0.52277  1.0000
  H   H16       1.0  0.53345  0.83501  0.02279  1.0000
  H   H17       1.0  0.98493  0.15364  0.55820  1.0000
  H   H18       1.0  0.51506  0.34637  0.05818  1.0000
  H   H19       1.0  0.01507  0.84636  0.44179  1.0000
  H   H20       1.0  0.48494  0.65362  0.94182  1.0000
  H   H21       1.0  0.12174  0.16429  0.43027  1.0000
  H   H22       1.0  0.37823  0.33573  0.93025  1.0000
  H   H23       1.0  0.87825  0.83571  0.56973  1.0000
  H   H24       1.0  0.62178  0.66426  0.06975  1.0000
  C   C1        1.0  0.24898  0.77822  0.73627  1.0000
  C   C2        1.0  0.25101  0.72177  0.23628  1.0000
  C   C3        1.0  0.75102  0.22178  0.26373  1.0000
  C   C4        1.0  0.74899  0.27823  0.76373  1.0000
  C   C5        1.0  0.16326  0.79365  0.84017  1.0000
  C   C6        1.0  0.33672  0.70634  0.34018  1.0000
  C   C7        1.0  0.83674  0.20635  0.15983  1.0000
  C   C8        1.0  0.66327  0.29366  0.65982  1.0000
  C   C9        1.0  0.29493  0.63283  0.68237  1.0000
  C   C10       1.0  0.20506  0.86716  0.18238  1.0000
  C   C11       1.0  0.70507  0.36718  0.31762  1.0000
  C   C12       1.0  0.79494  0.13284  0.81762  1.0000
  C   C13       1.0  0.20232  0.04525  0.77789  1.0000
  C   C14       1.0  0.29768  0.45474  0.27790  1.0000
  C   C15       1.0  0.79768  0.95475  0.22211  1.0000
  C   C16       1.0  0.70232  0.54526  0.72210  1.0000
  C   C17       1.0  0.09013  0.23118  0.50666  1.0000
  C   C18       1.0  0.40986  0.26884  0.00665  1.0000
  C   C19       1.0  0.90987  0.76883  0.49334  1.0000
  C   C20       1.0  0.59015  0.73116  0.99335  1.0000
  S   S1        1.0  0.29861  0.95957  0.66689  1.0000
  S   S2        1.0  0.20140  0.54044  0.16692  1.0000
  S   S3        1.0  0.70139  0.04044  0.33311  1.0000
  S   S4        1.0  0.79860  0.45956  0.83308  1.0000
  N   N1        1.0  0.13809  0.94562  0.86266  1.0000
  N   N2        1.0  0.36189  0.55438  0.36266  1.0000
  N   N3        1.0  0.86191  0.05438  0.13734  1.0000
  N   N4        1.0  0.63810  0.44562  0.63734  1.0000
  O   O1        1.0  0.39485  0.66137  0.59061  1.0000
  O   O2        1.0  0.10516  0.83864  0.09062  1.0000
  O   O3        1.0  0.60515  0.33863  0.40939  1.0000
  O   O4        1.0  0.89485  0.16136  0.90939  1.0000
  O   O5        1.0  0.25550  0.27744  0.57082  1.0000
  O   O6        1.0  0.24450  0.22257  0.07082  1.0000
  O   O7        1.0  0.74450  0.72256  0.42918  1.0000
  O   O8        1.0  0.75551  0.77743  0.92918  1.0000
  O   O9        1.0  0.23507  0.49953  0.72758  1.0000
  O   O10       1.0  0.26492  0.00046  0.22757  1.0000
  O   O11       1.0  0.76493  0.50047  0.27242  1.0000
  O   O12       1.0  0.73509  0.99954  0.77243  1.0000
