data_image0
_chemical_formula_structural       K2H46C38O22
_chemical_formula_sum              "K2 H46 C38 O22"
_cell_length_a       9.80997
_cell_length_b       10.6616
_cell_length_c       11.409
_cell_angle_alpha    96.6588
_cell_angle_beta     92.2847
_cell_angle_gamma    115.605

_space_group_name_H-M_alt    "P 1"
_space_group_IT_number       1

loop_
  _space_group_symop_operation_xyz
  'x, y, z'

loop_
  _atom_site_type_symbol
  _atom_site_label
  _atom_site_symmetry_multiplicity
  _atom_site_fract_x
  _atom_site_fract_y
  _atom_site_fract_z
  _atom_site_occupancy
  K   K1        1.0  0.95200  0.69675  0.75384  1.0000
  K   K2        1.0  0.04800  0.30327  0.24617  1.0000
  H   H1        1.0  0.22092  0.56553  0.02507  1.0000
  H   H2        1.0  0.77908  0.43447  0.97493  1.0000
  H   H3        1.0  0.38348  0.71670  0.10257  1.0000
  H   H4        1.0  0.61652  0.28330  0.89742  1.0000
  H   H5        1.0  0.28447  0.73137  0.97206  1.0000
  H   H6        1.0  0.71553  0.26864  0.02793  1.0000
  H   H7        1.0  0.13858  0.59292  0.53094  1.0000
  H   H8        1.0  0.86142  0.40708  0.46905  1.0000
  H   H9        1.0  0.29781  0.76310  0.56506  1.0000
  H   H10       1.0  0.70219  0.23690  0.43494  1.0000
  H   H11       1.0  0.29015  0.64261  0.43705  1.0000
  H   H12       1.0  0.70985  0.35739  0.56295  1.0000
  H   H13       1.0  0.69055  0.81593  0.64213  1.0000
  H   H14       1.0  0.30944  0.18407  0.35787  1.0000
  H   H15       1.0  0.75082  0.00148  0.63886  1.0000
  H   H16       1.0  0.24918  0.99852  0.36114  1.0000
  H   H17       1.0  0.88539  0.93986  0.68258  1.0000
  H   H18       1.0  0.11461  0.06014  0.31742  1.0000
  H   H19       1.0  0.54743  0.99835  0.40409  1.0000
  H   H20       1.0  0.45256  0.00165  0.59591  1.0000
  H   H21       1.0  0.38714  0.85896  0.31245  1.0000
  H   H22       1.0  0.61285  0.14104  0.68755  1.0000
  H   H23       1.0  0.51824  0.00806  0.25032  1.0000
  H   H24       1.0  0.48176  0.99194  0.74967  1.0000
  H   H25       1.0  0.79691  0.02788  0.90711  1.0000
  H   H26       1.0  0.20309  0.97213  0.09289  1.0000
  H   H27       1.0  0.61108  0.98891  0.95356  1.0000
  H   H28       1.0  0.38892  0.01110  0.04643  1.0000
  H   H29       1.0  0.64033  0.86254  0.85200  1.0000
  H   H30       1.0  0.35967  0.13746  0.14800  1.0000
  H   H31       1.0  0.48254  0.38665  0.62672  1.0000
  H   H32       1.0  0.51746  0.61334  0.37328  1.0000
  H   H33       1.0  0.60940  0.54828  0.57865  1.0000
  H   H34       1.0  0.39061  0.45172  0.42137  1.0000
  H   H35       1.0  0.31341  0.49576  0.62945  1.0000
  H   H36       1.0  0.68659  0.50422  0.37056  1.0000
  H   H37       1.0  0.46507  0.66755  0.65901  1.0000
  H   H38       1.0  0.53493  0.33244  0.34099  1.0000
  H   H39       1.0  0.43810  0.66116  0.86097  1.0000
  H   H40       1.0  0.56191  0.33883  0.13903  1.0000
  H   H41       1.0  0.30846  0.48060  0.83483  1.0000
  H   H42       1.0  0.69154  0.51939  0.16518  1.0000
  H   H43       1.0  0.61927  0.58434  0.93198  1.0000
  H   H44       1.0  0.38073  0.41566  0.06803  1.0000
  H   H45       1.0  0.49859  0.40771  0.86376  1.0000
  H   H46       1.0  0.50141  0.59229  0.13625  1.0000
  C   C1        1.0  0.95933  0.74222  0.16191  1.0000
  C   C2        1.0  0.04067  0.25778  0.83808  1.0000
  C   C3        1.0  0.96360  0.73109  0.28353  1.0000
  C   C4        1.0  0.03640  0.26891  0.71647  1.0000
  C   C5        1.0  0.87815  0.79663  0.33834  1.0000
  C   C6        1.0  0.12186  0.20338  0.66166  1.0000
  C   C7        1.0  0.82195  0.84976  0.24923  1.0000
  C   C8        1.0  0.17805  0.15024  0.75077  1.0000
  C   C9        1.0  0.86912  0.81515  0.13951  1.0000
  C   C10       1.0  0.13088  0.18485  0.86048  1.0000
  C   C11       1.0  0.04267  0.69594  0.07744  1.0000
  C   C12       1.0  0.95734  0.30407  0.92256  1.0000
  C   C13       1.0  0.27308  0.67980  0.05147  1.0000
  C   C14       1.0  0.72692  0.32020  0.94852  1.0000
  C   C15       1.0  0.03906  0.65847  0.34276  1.0000
  C   C16       1.0  0.96094  0.34153  0.65724  1.0000
  C   C17       1.0  0.22402  0.68071  0.49375  1.0000
  C   C18       1.0  0.77598  0.31929  0.50624  1.0000
  C   C19       1.0  0.85308  0.80205  0.46318  1.0000
  C   C20       1.0  0.14692  0.19796  0.53682  1.0000
  C   C21       1.0  0.78233  0.91473  0.62454  1.0000
  C   C22       1.0  0.21767  0.08527  0.37546  1.0000
  C   C23       1.0  0.73844  0.93629  0.27040  1.0000
  C   C24       1.0  0.26156  0.06371  0.72960  1.0000
  C   C25       1.0  0.50555  0.93652  0.31534  1.0000
  C   C26       1.0  0.49444  0.06349  0.68466  1.0000
  C   C27       1.0  0.83526  0.85202  0.02657  1.0000
  C   C28       1.0  0.16474  0.14798  0.97342  1.0000
  C   C29       1.0  0.69064  0.94562  0.92897  1.0000
  C   C30       1.0  0.30936  0.05439  0.07103  1.0000
  C   C31       1.0  0.53979  0.50248  0.64931  1.0000
  C   C32       1.0  0.46022  0.49751  0.35070  1.0000
  C   C33       1.0  0.42475  0.55980  0.67946  1.0000
  C   C34       1.0  0.57525  0.44018  0.32055  1.0000
  C   C35       1.0  0.41887  0.55814  0.81456  1.0000
  C   C36       1.0  0.58113  0.44186  0.18544  1.0000
  C   C37       1.0  0.54659  0.51932  0.85162  1.0000
  C   C38       1.0  0.45342  0.48067  0.14839  1.0000
  O   O1        1.0  0.00193  0.64663  0.97229  1.0000
  O   O2        1.0  0.99807  0.35338  0.02771  1.0000
  O   O3        1.0  0.18071  0.71835  0.12948  1.0000
  O   O4        1.0  0.81929  0.28166  0.87052  1.0000
  O   O5        1.0  0.00507  0.53237  0.31940  1.0000
  O   O6        1.0  0.99493  0.46763  0.68060  1.0000
  O   O7        1.0  0.15204  0.74658  0.42618  1.0000
  O   O8        1.0  0.84796  0.25342  0.57382  1.0000
  O   O9        1.0  0.86691  0.72318  0.52925  1.0000
  O   O10       1.0  0.13310  0.27683  0.47075  1.0000
  O   O11       1.0  0.81067  0.90426  0.50163  1.0000
  O   O12       1.0  0.18932  0.09574  0.49836  1.0000
  O   O13       1.0  0.79363  0.06433  0.27397  1.0000
  O   O14       1.0  0.20637  0.93567  0.72603  1.0000
  O   O15       1.0  0.59127  0.85765  0.28726  1.0000
  O   O16       1.0  0.40873  0.14236  0.71273  1.0000
  O   O17       1.0  0.89823  0.85185  0.93547  1.0000
  O   O18       1.0  0.10176  0.14816  0.06453  1.0000
  O   O19       1.0  0.71760  0.88908  0.03103  1.0000
  O   O20       1.0  0.28240  0.11093  0.96897  1.0000
  O   O21       1.0  0.64172  0.54152  0.75566  1.0000
  O   O22       1.0  0.35829  0.45847  0.24435  1.0000
