data_image0
_chemical_formula_structural       H32Ru2C38N2O8F4
_chemical_formula_sum              "H32 Ru2 C38 N2 O8 F4"
_cell_length_a       8.87809
_cell_length_b       10.2667
_cell_length_c       11.0121
_cell_angle_alpha    72.9221
_cell_angle_beta     72.5379
_cell_angle_gamma    71.9186

_space_group_name_H-M_alt    "P 1"
_space_group_IT_number       1

loop_
  _space_group_symop_operation_xyz
  'x, y, z'

loop_
  _atom_site_type_symbol
  _atom_site_label
  _atom_site_symmetry_multiplicity
  _atom_site_fract_x
  _atom_site_fract_y
  _atom_site_fract_z
  _atom_site_occupancy
  H   H1        1.0  0.22291  0.80447  0.52587  1.0000
  H   H2        1.0  0.77709  0.19553  0.47413  1.0000
  H   H3        1.0  0.28673  0.54275  0.58966  1.0000
  H   H4        1.0  0.71326  0.45725  0.41034  1.0000
  H   H5        1.0  0.11494  0.42242  0.78861  1.0000
  H   H6        1.0  0.88505  0.57758  0.21139  1.0000
  H   H7        1.0  0.87467  0.56675  0.91985  1.0000
  H   H8        1.0  0.12532  0.43325  0.08016  1.0000
  H   H9        1.0  0.54764  0.59178  0.64256  1.0000
  H   H10       1.0  0.45236  0.40822  0.35744  1.0000
  H   H11       1.0  0.67719  0.72648  0.71902  1.0000
  H   H12       1.0  0.32281  0.27352  0.28098  1.0000
  H   H13       1.0  0.77216  0.93457  0.56376  1.0000
  H   H14       1.0  0.22785  0.06543  0.43624  1.0000
  H   H15       1.0  0.72627  0.00859  0.33890  1.0000
  H   H16       1.0  0.27373  0.99141  0.66109  1.0000
  H   H17       1.0  0.12700  0.81322  0.25369  1.0000
  H   H18       1.0  0.87300  0.18677  0.74631  1.0000
  H   H19       1.0  0.13367  0.63356  0.26425  1.0000
  H   H20       1.0  0.86633  0.36643  0.73575  1.0000
  H   H21       1.0  0.30398  0.68072  0.28038  1.0000
  H   H22       1.0  0.69602  0.31928  0.71961  1.0000
  H   H23       1.0  0.05852  0.89399  0.06090  1.0000
  H   H24       1.0  0.94149  0.10601  0.93910  1.0000
  H   H25       1.0  0.17880  0.83706  0.91645  1.0000
  H   H26       1.0  0.82121  0.16294  0.08355  1.0000
  H   H27       1.0  0.05663  0.72885  0.03869  1.0000
  H   H28       1.0  0.94337  0.27116  0.96130  1.0000
  H   H29       1.0  0.52710  0.57868  0.18264  1.0000
  H   H30       1.0  0.47290  0.42132  0.81736  1.0000
  H   H31       1.0  0.72556  0.37559  0.11249  1.0000
  H   H32       1.0  0.27444  0.62440  0.88752  1.0000
  Ru  Ru1       1.0  0.43618  0.91063  0.02006  1.0000
  Ru  Ru2       1.0  0.56382  0.08937  0.97995  1.0000
  C   C1        1.0  0.77315  0.84714  0.87814  1.0000
  C   C2        1.0  0.22685  0.15286  0.12187  1.0000
  C   C3        1.0  0.92006  0.76426  0.80198  1.0000
  C   C4        1.0  0.07994  0.23574  0.19803  1.0000
  C   C5        1.0  0.02147  0.82732  0.69094  1.0000
  C   C6        1.0  0.97852  0.17268  0.30906  1.0000
  C   C7        1.0  0.15146  0.74994  0.61372  1.0000
  C   C8        1.0  0.84854  0.25006  0.38628  1.0000
  C   C9        1.0  0.18469  0.60368  0.64967  1.0000
  C   C10       1.0  0.81530  0.39632  0.35033  1.0000
  C   C11       1.0  0.08750  0.53687  0.76095  1.0000
  C   C12       1.0  0.91250  0.46314  0.23905  1.0000
  C   C13       1.0  0.95517  0.61663  0.83515  1.0000
  C   C14       1.0  0.04483  0.38337  0.16485  1.0000
  C   C15       1.0  0.58075  0.89621  0.22992  1.0000
  C   C16       1.0  0.41925  0.10379  0.77009  1.0000
  C   C17       1.0  0.61396  0.84339  0.36210  1.0000
  C   C18       1.0  0.38603  0.15661  0.63790  1.0000
  C   C19       1.0  0.56635  0.72591  0.45113  1.0000
  C   C20       1.0  0.43364  0.27410  0.54887  1.0000
  C   C21       1.0  0.58909  0.68270  0.57742  1.0000
  C   C22       1.0  0.41091  0.31731  0.42258  1.0000
  C   C23       1.0  0.66283  0.75829  0.61885  1.0000
  C   C24       1.0  0.33717  0.24171  0.38115  1.0000
  C   C25       1.0  0.71436  0.87481  0.53247  1.0000
  C   C26       1.0  0.28565  0.12519  0.46753  1.0000
  C   C27       1.0  0.68992  0.91643  0.40636  1.0000
  C   C28       1.0  0.31008  0.08357  0.59364  1.0000
  C   C29       1.0  0.20493  0.71373  0.23012  1.0000
  C   C30       1.0  0.79507  0.28627  0.76988  1.0000
  C   C31       1.0  0.13318  0.80205  0.02161  1.0000
  C   C32       1.0  0.86682  0.19795  0.97839  1.0000
  C   C33       1.0  0.38210  0.61676  0.04365  1.0000
  C   C34       1.0  0.61790  0.38324  0.95635  1.0000
  C   C35       1.0  0.51155  0.54262  0.10451  1.0000
  C   C36       1.0  0.48845  0.45737  0.89549  1.0000
  C   C37       1.0  0.62710  0.42811  0.06219  1.0000
  C   C38       1.0  0.37290  0.57189  0.93781  1.0000
  N   N1        1.0  0.26895  0.73741  0.08699  1.0000
  N   N2        1.0  0.73105  0.26259  0.91301  1.0000
  O   O1        1.0  0.65051  0.79235  0.92756  1.0000
  O   O2        1.0  0.34950  0.20764  0.07245  1.0000
  O   O3        1.0  0.77577  0.96705  0.88894  1.0000
  O   O4        1.0  0.22423  0.03296  0.11106  1.0000
  O   O5        1.0  0.50342  0.83192  0.19495  1.0000
  O   O6        1.0  0.49657  0.16808  0.80505  1.0000
  O   O7        1.0  0.62824  0.00601  0.15777  1.0000
  O   O8        1.0  0.37177  0.99399  0.84223  1.0000
  F   F1        1.0  0.98879  0.97026  0.65146  1.0000
  F   F2        1.0  0.01121  0.02973  0.34854  1.0000
  F   F3        1.0  0.49221  0.64821  0.41610  1.0000
  F   F4        1.0  0.50779  0.35179  0.58390  1.0000
