data_image0
_chemical_formula_structural       H28Ru2C40N2O12F8
_chemical_formula_sum              "H28 Ru2 C40 N2 O12 F8"
_cell_length_a       10.1868
_cell_length_b       10.5187
_cell_length_c       11.0608
_cell_angle_alpha    76.7425
_cell_angle_beta     74.29
_cell_angle_gamma    63.0988

_space_group_name_H-M_alt    "P 1"
_space_group_IT_number       1

loop_
  _space_group_symop_operation_xyz
  'x, y, z'

loop_
  _atom_site_type_symbol
  _atom_site_label
  _atom_site_symmetry_multiplicity
  _atom_site_fract_x
  _atom_site_fract_y
  _atom_site_fract_z
  _atom_site_occupancy
  H   H1        1.0  0.79350  0.35891  0.76730  1.0000
  H   H2        1.0  0.20651  0.64108  0.23269  1.0000
  H   H3        1.0  0.86510  0.51100  0.85785  1.0000
  H   H4        1.0  0.13491  0.48899  0.14214  1.0000
  H   H5        1.0  0.76993  0.54820  0.08506  1.0000
  H   H6        1.0  0.23009  0.45177  0.91494  1.0000
  H   H7        1.0  0.85454  0.23033  0.23755  1.0000
  H   H8        1.0  0.14545  0.76967  0.76246  1.0000
  H   H9        1.0  0.80028  0.01838  0.34978  1.0000
  H   H10       1.0  0.19974  0.98160  0.65022  1.0000
  H   H11       1.0  0.00600  0.79606  0.43131  1.0000
  H   H12       1.0  0.99403  0.20393  0.56870  1.0000
  H   H13       1.0  0.17250  0.32192  0.35275  1.0000
  H   H14       1.0  0.82752  0.67808  0.64725  1.0000
  H   H15       1.0  0.06855  0.50408  0.69684  1.0000
  H   H16       1.0  0.93146  0.49592  0.30315  1.0000
  H   H17       1.0  0.39088  0.22673  0.37935  1.0000
  H   H18       1.0  0.60914  0.77327  0.62065  1.0000
  H   H19       1.0  0.47738  0.11768  0.50800  1.0000
  H   H20       1.0  0.52264  0.88233  0.49200  1.0000
  H   H21       1.0  0.31146  0.11245  0.48676  1.0000
  H   H22       1.0  0.68856  0.88755  0.51324  1.0000
  H   H23       1.0  0.20827  0.17326  0.72144  1.0000
  H   H24       1.0  0.79175  0.82674  0.27856  1.0000
  H   H25       1.0  0.39289  0.16394  0.70724  1.0000
  H   H26       1.0  0.60712  0.83607  0.29275  1.0000
  H   H27       1.0  0.23332  0.31870  0.75527  1.0000
  H   H28       1.0  0.76669  0.68131  0.24473  1.0000
  Ru  Ru1       1.0  0.42038  0.44474  0.51507  1.0000
  Ru  Ru2       1.0  0.57963  0.55527  0.48492  1.0000
  C   C1        1.0  0.59701  0.44253  0.26085  1.0000
  C   C2        1.0  0.40299  0.55748  0.73914  1.0000
  C   C3        1.0  0.65090  0.41484  0.12637  1.0000
  C   C4        1.0  0.34911  0.58515  0.87361  1.0000
  C   C5        1.0  0.61451  0.32765  0.07446  1.0000
  C   C6        1.0  0.38548  0.67235  0.92554  1.0000
  C   C7        1.0  0.66610  0.30980  0.94621  1.0000
  C   C8        1.0  0.33391  0.69019  0.05379  1.0000
  C   C9        1.0  0.75668  0.37368  0.86722  1.0000
  C   C10       1.0  0.24333  0.62630  0.13278  1.0000
  C   C11       1.0  0.79540  0.45877  0.91861  1.0000
  C   C12       1.0  0.20462  0.54121  0.08139  1.0000
  C   C13       1.0  0.74287  0.47946  0.04538  1.0000
  C   C14       1.0  0.25714  0.52053  0.95462  1.0000
  C   C15       1.0  0.28829  0.74753  0.41892  1.0000
  C   C16       1.0  0.71173  0.25248  0.58107  1.0000
  C   C17       1.0  0.17071  0.88254  0.36929  1.0000
  C   C18       1.0  0.82930  0.11747  0.63071  1.0000
  C   C19       1.0  0.19725  0.00339  0.30728  1.0000
  C   C20       1.0  0.80275  0.99664  0.69273  1.0000
  C   C21       1.0  0.08217  0.12590  0.26147  1.0000
  C   C22       1.0  0.91782  0.87411  0.73854  1.0000
  C   C23       1.0  0.93995  0.13282  0.27586  1.0000
  C   C24       1.0  0.06004  0.86719  0.72415  1.0000
  C   C25       1.0  0.91219  0.01343  0.33760  1.0000
  C   C26       1.0  0.08782  0.98656  0.66241  1.0000
  C   C27       1.0  0.02598  0.89016  0.38307  1.0000
  C   C28       1.0  0.97405  0.10984  0.61694  1.0000
  C   C29       1.0  0.13940  0.39605  0.53067  1.0000
  C   C30       1.0  0.86061  0.60394  0.46932  1.0000
  C   C31       1.0  0.09830  0.39932  0.41837  1.0000
  C   C32       1.0  0.90171  0.60068  0.58163  1.0000
  C   C33       1.0  0.03829  0.49877  0.61162  1.0000
  C   C34       1.0  0.96172  0.50123  0.38837  1.0000
  C   C35       1.0  0.36941  0.18173  0.47835  1.0000
  C   C36       1.0  0.63061  0.81828  0.52165  1.0000
  C   C37       1.0  0.27799  0.23438  0.69418  1.0000
  C   C38       1.0  0.72202  0.76562  0.30582  1.0000
  C   C39       1.0  0.25277  0.06925  0.96980  1.0000
  C   C40       1.0  0.74708  0.93073  0.03023  1.0000
  N   N1        1.0  0.28244  0.29639  0.56007  1.0000
  N   N2        1.0  0.71757  0.70361  0.43993  1.0000
  O   O1        1.0  0.49719  0.40117  0.33047  1.0000
  O   O2        1.0  0.50281  0.59883  0.66953  1.0000
  O   O3        1.0  0.65528  0.50722  0.30033  1.0000
  O   O4        1.0  0.34472  0.49280  0.69967  1.0000
  O   O5        1.0  0.25761  0.63740  0.45278  1.0000
  O   O6        1.0  0.74242  0.36261  0.54720  1.0000
  O   O7        1.0  0.41207  0.74679  0.42561  1.0000
  O   O8        1.0  0.58795  0.25322  0.57439  1.0000
  O   O9        1.0  0.34307  0.10685  0.97573  1.0000
  O   O10       1.0  0.65673  0.89320  0.02428  1.0000
  O   O11       1.0  0.16107  0.03361  0.96294  1.0000
  O   O12       1.0  0.83883  0.96629  0.03711  1.0000
  F   F1        1.0  0.53061  0.25720  0.14455  1.0000
  F   F2        1.0  0.46937  0.74282  0.85544  1.0000
  F   F3        1.0  0.62352  0.22831  0.89947  1.0000
  F   F4        1.0  0.37649  0.77169  0.10052  1.0000
  F   F5        1.0  0.33295  0.00640  0.28740  1.0000
  F   F6        1.0  0.66704  0.99363  0.71261  1.0000
  F   F7        1.0  0.11265  0.24024  0.19893  1.0000
  F   F8        1.0  0.88732  0.75979  0.80110  1.0000
