data_image0
_chemical_formula_structural       H28Ru2C38N2O8F8
_chemical_formula_sum              "H28 Ru2 C38 N2 O8 F8"
_cell_length_a       10.0056
_cell_length_b       10.2635
_cell_length_c       10.7779
_cell_angle_alpha    74.1969
_cell_angle_beta     71.1307
_cell_angle_gamma    64.0049

_space_group_name_H-M_alt    "P 1"
_space_group_IT_number       1

loop_
  _space_group_symop_operation_xyz
  'x, y, z'

loop_
  _atom_site_type_symbol
  _atom_site_label
  _atom_site_symmetry_multiplicity
  _atom_site_fract_x
  _atom_site_fract_y
  _atom_site_fract_z
  _atom_site_occupancy
  H   H1        1.0  0.20405  0.61151  0.81978  1.0000
  H   H2        1.0  0.79595  0.38849  0.18022  1.0000
  H   H3        1.0  0.42577  0.67874  0.67729  1.0000
  H   H4        1.0  0.57423  0.32126  0.32271  1.0000
  H   H5        1.0  0.66688  0.48436  0.57586  1.0000
  H   H6        1.0  0.33311  0.51564  0.42414  1.0000
  H   H7        1.0  0.77782  0.27924  0.79300  1.0000
  H   H8        1.0  0.22218  0.72076  0.20700  1.0000
  H   H9        1.0  0.01597  0.27947  0.81830  1.0000
  H   H10       1.0  0.98403  0.72054  0.18170  1.0000
  H   H11       1.0  0.08512  0.18591  0.03796  1.0000
  H   H12       1.0  0.91488  0.81409  0.96203  1.0000
  H   H13       1.0  0.41515  0.05374  0.41277  1.0000
  H   H14       1.0  0.58485  0.94626  0.58723  1.0000
  H   H15       1.0  0.41383  0.21665  0.44423  1.0000
  H   H16       1.0  0.58617  0.78335  0.55577  1.0000
  H   H17       1.0  0.30563  0.11846  0.56531  1.0000
  H   H18       1.0  0.69437  0.88154  0.43469  1.0000
  H   H19       1.0  0.34004  0.14220  0.22427  1.0000
  H   H20       1.0  0.65996  0.85780  0.77573  1.0000
  H   H21       1.0  0.16927  0.29551  0.20508  1.0000
  H   H22       1.0  0.83073  0.70449  0.79492  1.0000
  H   H23       1.0  0.33044  0.32325  0.21392  1.0000
  H   H24       1.0  0.66956  0.67675  0.78608  1.0000
  H   H25       1.0  0.97990  0.44901  0.29649  1.0000
  H   H26       1.0  0.02010  0.55099  0.70351  1.0000
  H   H27       1.0  0.79685  0.67228  0.38385  1.0000
  H   H28       1.0  0.20316  0.32773  0.61615  1.0000
  Ru  Ru1       1.0  0.05463  0.08622  0.47120  1.0000
  Ru  Ru2       1.0  0.94537  0.91378  0.52880  1.0000
  C   C1        1.0  0.73067  0.20045  0.59709  1.0000
  C   C2        1.0  0.26933  0.79954  0.40291  1.0000
  C   C3        1.0  0.58283  0.31192  0.65605  1.0000
  C   C4        1.0  0.41718  0.68807  0.34396  1.0000
  C   C5        1.0  0.45694  0.27750  0.73510  1.0000
  C   C6        1.0  0.54306  0.72250  0.26490  1.0000
  C   C7        1.0  0.32413  0.38638  0.79320  1.0000
  C   C8        1.0  0.67587  0.61361  0.20680  1.0000
  C   C9        1.0  0.31048  0.53018  0.77344  1.0000
  C   C10       1.0  0.68952  0.46981  0.22656  1.0000
  C   C11       1.0  0.43477  0.56586  0.69416  1.0000
  C   C12       1.0  0.56523  0.43413  0.30584  1.0000
  C   C13       1.0  0.56869  0.45832  0.63712  1.0000
  C   C14       1.0  0.43131  0.54168  0.36289  1.0000
  C   C15       1.0  0.93271  0.07704  0.26443  1.0000
  C   C16       1.0  0.06728  0.92296  0.73556  1.0000
  C   C17       1.0  0.89099  0.12691  0.13439  1.0000
  C   C18       1.0  0.10901  0.87310  0.86560  1.0000
  C   C19       1.0  0.75902  0.12498  0.11753  1.0000
  C   C20       1.0  0.24098  0.87503  0.88246  1.0000
  C   C21       1.0  0.71924  0.18076  0.99544  1.0000
  C   C22       1.0  0.28076  0.81925  0.00456  1.0000
  C   C23       1.0  0.81007  0.23714  0.88769  1.0000
  C   C24       1.0  0.18993  0.76287  0.11230  1.0000
  C   C25       1.0  0.94314  0.23764  0.90309  1.0000
  C   C26       1.0  0.05686  0.76236  0.09691  1.0000
  C   C27       1.0  0.98243  0.18450  0.02489  1.0000
  C   C28       1.0  0.01757  0.81550  0.97511  1.0000
  C   C29       1.0  0.34435  0.15233  0.45905  1.0000
  C   C30       1.0  0.65566  0.84767  0.54095  1.0000
  C   C31       1.0  0.26582  0.25112  0.25152  1.0000
  C   C32       1.0  0.73418  0.74888  0.74848  1.0000
  C   C33       1.0  0.10880  0.36971  0.44764  1.0000
  C   C34       1.0  0.89120  0.63029  0.55236  1.0000
  C   C35       1.0  0.99192  0.47083  0.38476  1.0000
  C   C36       1.0  0.00808  0.52917  0.61524  1.0000
  C   C37       1.0  0.88545  0.59788  0.43607  1.0000
  C   C38       1.0  0.11455  0.40212  0.56393  1.0000
  N   N1        1.0  0.21302  0.23592  0.39771  1.0000
  N   N2        1.0  0.78698  0.76408  0.60229  1.0000
  O   O1        1.0  0.84452  0.24023  0.54615  1.0000
  O   O2        1.0  0.15548  0.75977  0.45385  1.0000
  O   O3        1.0  0.73834  0.07156  0.60160  1.0000
  O   O4        1.0  0.26166  0.92844  0.39840  1.0000
  O   O5        1.0  0.00316  0.14303  0.28794  1.0000
  O   O6        1.0  0.99684  0.85697  0.71206  1.0000
  O   O7        1.0  0.89642  0.97403  0.34483  1.0000
  O   O8        1.0  0.10358  0.02597  0.65517  1.0000
  F   F1        1.0  0.45823  0.14054  0.76085  1.0000
  F   F2        1.0  0.54177  0.85945  0.23916  1.0000
  F   F3        1.0  0.20546  0.34806  0.87164  1.0000
  F   F4        1.0  0.79454  0.65194  0.12836  1.0000
  F   F5        1.0  0.66293  0.07504  0.21941  1.0000
  F   F6        1.0  0.33707  0.92497  0.78058  1.0000
  F   F7        1.0  0.58829  0.17900  0.98479  1.0000
  F   F8        1.0  0.41171  0.82100  0.01521  1.0000
