data_image0
_chemical_formula_structural       H28Ru2C38N10O8F8
_chemical_formula_sum              "H28 Ru2 C38 N10 O8 F8"
_cell_length_a       10.143
_cell_length_b       10.8418
_cell_length_c       10.806
_cell_angle_alpha    90.5027
_cell_angle_beta     111.484
_cell_angle_gamma    105.287

_space_group_name_H-M_alt    "P 1"
_space_group_IT_number       1

loop_
  _space_group_symop_operation_xyz
  'x, y, z'

loop_
  _atom_site_type_symbol
  _atom_site_label
  _atom_site_symmetry_multiplicity
  _atom_site_fract_x
  _atom_site_fract_y
  _atom_site_fract_z
  _atom_site_occupancy
  H   H1        1.0  0.70221  0.24922  0.38200  1.0000
  H   H2        1.0  0.29777  0.75076  0.61795  1.0000
  H   H3        1.0  0.89770  0.14786  0.51534  1.0000
  H   H4        1.0  0.10229  0.85214  0.48462  1.0000
  H   H5        1.0  0.82783  0.91519  0.54413  1.0000
  H   H6        1.0  0.17216  0.08481  0.45586  1.0000
  H   H7        1.0  0.54289  0.28581  0.80291  1.0000
  H   H8        1.0  0.45713  0.71420  0.19710  1.0000
  H   H9        1.0  0.76785  0.35455  0.01261  1.0000
  H   H10       1.0  0.23217  0.64546  0.98741  1.0000
  H   H11       1.0  0.74640  0.41836  0.22596  1.0000
  H   H12       1.0  0.25361  0.58165  0.77405  1.0000
  H   H13       1.0  0.99084  0.63974  0.31849  1.0000
  H   H14       1.0  0.00915  0.36026  0.68151  1.0000
  H   H15       1.0  0.10039  0.31372  0.51296  1.0000
  H   H16       1.0  0.89961  0.68628  0.48705  1.0000
  H   H17       1.0  0.16179  0.62854  0.24420  1.0000
  H   H18       1.0  0.83822  0.37146  0.75582  1.0000
  H   H19       1.0  0.15648  0.49913  0.13859  1.0000
  H   H20       1.0  0.84352  0.50087  0.86142  1.0000
  H   H21       1.0  0.98679  0.52245  0.13570  1.0000
  H   H22       1.0  0.01321  0.47755  0.86431  1.0000
  H   H23       1.0  0.93659  0.28268  0.18116  1.0000
  H   H24       1.0  0.06341  0.71732  0.81885  1.0000
  H   H25       1.0  0.11854  0.29294  0.18689  1.0000
  H   H26       1.0  0.88146  0.70706  0.81312  1.0000
  H   H27       1.0  0.07018  0.24306  0.32413  1.0000
  H   H28       1.0  0.92982  0.75694  0.67588  1.0000
  Ru  Ru1       1.0  0.37518  0.48969  0.44763  1.0000
  Ru  Ru2       1.0  0.62483  0.51030  0.55239  1.0000
  C   C1        1.0  0.56109  0.74464  0.45027  1.0000
  C   C2        1.0  0.43890  0.25535  0.54973  1.0000
  C   C3        1.0  0.59742  0.88156  0.42527  1.0000
  C   C4        1.0  0.40257  0.11843  0.57471  1.0000
  C   C5        1.0  0.49080  0.93951  0.34774  1.0000
  C   C6        1.0  0.50918  0.06048  0.65225  1.0000
  C   C7        1.0  0.53064  0.07035  0.33320  1.0000
  C   C8        1.0  0.46933  0.92963  0.66677  1.0000
  C   C9        1.0  0.67575  0.14681  0.39279  1.0000
  C   C10       1.0  0.32423  0.85317  0.60717  1.0000
  C   C11       1.0  0.78327  0.08931  0.46757  1.0000
  C   C12       1.0  0.21672  0.91068  0.53240  1.0000
  C   C13       1.0  0.74480  0.95945  0.48356  1.0000
  C   C14       1.0  0.25519  0.04054  0.51642  1.0000
  C   C15       1.0  0.50537  0.42272  0.26750  1.0000
  C   C16       1.0  0.49464  0.57728  0.73251  1.0000
  C   C17       1.0  0.51105  0.38172  0.13859  1.0000
  C   C18       1.0  0.48896  0.61828  0.86142  1.0000
  C   C19       1.0  0.38536  0.34070  0.01963  1.0000
  C   C20       1.0  0.61465  0.65931  0.98038  1.0000
  C   C21       1.0  0.39862  0.30579  0.90100  1.0000
  C   C22       1.0  0.60139  0.69422  0.09901  1.0000
  C   C23       1.0  0.53472  0.31036  0.89696  1.0000
  C   C24       1.0  0.46530  0.68965  0.10305  1.0000
  C   C25       1.0  0.66035  0.35032  0.01502  1.0000
  C   C26       1.0  0.33967  0.64969  0.98500  1.0000
  C   C27       1.0  0.64881  0.38528  0.13372  1.0000
  C   C28       1.0  0.35120  0.61473  0.86629  1.0000
  C   C29       1.0  0.05152  0.47129  0.40065  1.0000
  C   C30       1.0  0.94848  0.52872  0.59936  1.0000
  C   C31       1.0  0.99780  0.57842  0.39843  1.0000
  C   C32       1.0  0.00220  0.42158  0.60158  1.0000
  C   C33       1.0  0.05246  0.39362  0.50399  1.0000
  C   C34       1.0  0.94754  0.60638  0.49601  1.0000
  C   C35       1.0  0.10230  0.52867  0.19990  1.0000
  C   C36       1.0  0.89770  0.47133  0.80011  1.0000
  C   C37       1.0  0.05504  0.30722  0.24598  1.0000
  C   C38       1.0  0.94496  0.69278  0.75403  1.0000
  N   N1        1.0  0.11094  0.44318  0.30569  1.0000
  N   N2        1.0  0.88906  0.55682  0.69432  1.0000
  N   N3        1.0  0.03274  0.93043  0.18459  1.0000
  N   N4        1.0  0.96725  0.06958  0.81542  1.0000
  N   N5        1.0  0.04653  0.88096  0.10140  1.0000
  N   N6        1.0  0.95347  0.11905  0.89860  1.0000
  N   N7        1.0  0.72028  0.98625  0.04979  1.0000
  N   N8        1.0  0.27971  0.01376  0.95020  1.0000
  N   N9        1.0  0.68123  0.05699  0.09200  1.0000
  N   N10       1.0  0.31877  0.94301  0.90798  1.0000
  O   O1        1.0  0.42475  0.67841  0.40994  1.0000
  O   O2        1.0  0.57525  0.32158  0.59007  1.0000
  O   O3        1.0  0.66938  0.69951  0.51154  1.0000
  O   O4        1.0  0.33061  0.30049  0.48847  1.0000
  O   O5        1.0  0.38282  0.43170  0.26934  1.0000
  O   O6        1.0  0.61718  0.56830  0.73067  1.0000
  O   O7        1.0  0.62634  0.44866  0.37116  1.0000
  O   O8        1.0  0.37366  0.55133  0.62885  1.0000
  F   F1        1.0  0.34656  0.87255  0.28418  1.0000
  F   F2        1.0  0.65342  0.12743  0.71580  1.0000
  F   F3        1.0  0.42194  0.12184  0.25972  1.0000
  F   F4        1.0  0.57805  0.87814  0.74024  1.0000
  F   F5        1.0  0.24756  0.33286  0.01339  1.0000
  F   F6        1.0  0.75246  0.66715  0.98662  1.0000
  F   F7        1.0  0.27380  0.26773  0.78779  1.0000
  F   F8        1.0  0.72621  0.73228  0.21222  1.0000
