data_image0
_chemical_formula_structural       Cd4H20C12S8N4Cl8
_chemical_formula_sum              "Cd4 H20 C12 S8 N4 Cl8"
_cell_length_a       3.91002
_cell_length_b       9.08736
_cell_length_c       22.3616
_cell_angle_alpha    90
_cell_angle_beta     90.0001
_cell_angle_gamma    90.6929

_space_group_name_H-M_alt    "P 1"
_space_group_IT_number       1

loop_
  _space_group_symop_operation_xyz
  'x, y, z'

loop_
  _atom_site_type_symbol
  _atom_site_label
  _atom_site_symmetry_multiplicity
  _atom_site_fract_x
  _atom_site_fract_y
  _atom_site_fract_z
  _atom_site_occupancy
  Cd  Cd1       1.0  0.74516  0.84263  0.95497  1.0000
  Cd  Cd2       1.0  0.24515  0.34263  0.54503  1.0000
  Cd  Cd3       1.0  0.25484  0.15737  0.04503  1.0000
  Cd  Cd4       1.0  0.75484  0.65737  0.45497  1.0000
  H   H1        1.0  0.50851  0.24505  0.78263  1.0000
  H   H2        1.0  0.00851  0.74505  0.71737  1.0000
  H   H3        1.0  0.49150  0.75495  0.21737  1.0000
  H   H4        1.0  0.99149  0.25495  0.28263  1.0000
  H   H5        1.0  0.93965  0.31081  0.77888  1.0000
  H   H6        1.0  0.43965  0.81081  0.72112  1.0000
  H   H7        1.0  0.06035  0.68919  0.22112  1.0000
  H   H8        1.0  0.56035  0.18919  0.27888  1.0000
  H   H9        1.0  0.44256  0.32309  0.88592  1.0000
  H   H10       1.0  0.94255  0.82309  0.61408  1.0000
  H   H11       1.0  0.55745  0.67691  0.11408  1.0000
  H   H12       1.0  0.05744  0.17691  0.38592  1.0000
  H   H13       1.0  0.87657  0.27104  0.88666  1.0000
  H   H14       1.0  0.37656  0.77104  0.61334  1.0000
  H   H15       1.0  0.12344  0.72896  0.11334  1.0000
  H   H16       1.0  0.62344  0.22896  0.38666  1.0000
  H   H17       1.0  0.88964  0.53195  0.91784  1.0000
  H   H18       1.0  0.38964  0.03196  0.58216  1.0000
  H   H19       1.0  0.11036  0.46804  0.08216  1.0000
  H   H20       1.0  0.61036  0.96805  0.41784  1.0000
  C   C1        1.0  0.70177  0.59657  0.83599  1.0000
  C   C2        1.0  0.20177  0.09657  0.66401  1.0000
  C   C3        1.0  0.29823  0.40343  0.16401  1.0000
  C   C4        1.0  0.79823  0.90343  0.33599  1.0000
  C   C5        1.0  0.68642  0.33097  0.79809  1.0000
  C   C6        1.0  0.18642  0.83098  0.70191  1.0000
  C   C7        1.0  0.31359  0.66903  0.20191  1.0000
  C   C8        1.0  0.81358  0.16903  0.29809  1.0000
  C   C9        1.0  0.69439  0.34619  0.86584  1.0000
  C   C10       1.0  0.19438  0.84619  0.63415  1.0000
  C   C11       1.0  0.30562  0.65381  0.13415  1.0000
  C   C12       1.0  0.80562  0.15381  0.36585  1.0000
  S   S1        1.0  0.54736  0.51018  0.77137  1.0000
  S   S2        1.0  0.04735  0.01018  0.72863  1.0000
  S   S3        1.0  0.45265  0.48982  0.22863  1.0000
  S   S4        1.0  0.95264  0.98982  0.27137  1.0000
  S   S5        1.0  0.71994  0.78126  0.84026  1.0000
  S   S6        1.0  0.21993  0.28126  0.65974  1.0000
  S   S7        1.0  0.28007  0.21874  0.15974  1.0000
  S   S8        1.0  0.78006  0.71874  0.34026  1.0000
  N   N1        1.0  0.79159  0.49907  0.87732  1.0000
  N   N2        1.0  0.29157  0.99908  0.62268  1.0000
  N   N3        1.0  0.20842  0.50092  0.12268  1.0000
  N   N4        1.0  0.70841  0.00092  0.37732  1.0000
  Cl  Cl1       1.0  0.23734  0.66174  0.98327  1.0000
  Cl  Cl2       1.0  0.73734  0.16174  0.51673  1.0000
  Cl  Cl3       1.0  0.76266  0.33826  0.01673  1.0000
  Cl  Cl4       1.0  0.26266  0.83826  0.48327  1.0000
  Cl  Cl5       1.0  0.24871  0.04754  0.93390  1.0000
  Cl  Cl6       1.0  0.74870  0.54755  0.56610  1.0000
  Cl  Cl7       1.0  0.75130  0.95245  0.06610  1.0000
  Cl  Cl8       1.0  0.25129  0.45246  0.43390  1.0000
