data_image0
_chemical_formula_structural       Ni9H21C15Cl3O33
_chemical_formula_sum              "Ni9 H21 C15 Cl3 O33"
_cell_length_a       7.42513
_cell_length_b       11.8955
_cell_length_c       11.9076
_cell_angle_alpha    120.015
_cell_angle_beta     89.9589
_cell_angle_gamma    90.0275

_space_group_name_H-M_alt    "P 1"
_space_group_IT_number       1

loop_
  _space_group_symop_operation_xyz
  'x, y, z'

loop_
  _atom_site_type_symbol
  _atom_site_label
  _atom_site_symmetry_multiplicity
  _atom_site_fract_x
  _atom_site_fract_y
  _atom_site_fract_z
  _atom_site_occupancy
  Ni  Ni1       1.0  0.53608  0.38839  0.61584  1.0000
  Ni  Ni2       1.0  0.87000  0.38432  0.77313  1.0000
  Ni  Ni3       1.0  0.20412  0.22734  0.61111  1.0000
  Ni  Ni4       1.0  0.51321  0.56250  0.30079  1.0000
  Ni  Ni5       1.0  0.84652  0.69884  0.26169  1.0000
  Ni  Ni6       1.0  0.17972  0.73811  0.43714  1.0000
  Ni  Ni7       1.0  0.13563  0.04557  0.11473  1.0000
  Ni  Ni8       1.0  0.46956  0.88557  0.93034  1.0000
  Ni  Ni9       1.0  0.80231  0.06944  0.95452  1.0000
  H   H1        1.0  0.70962  0.34695  0.22717  1.0000
  H   H2        1.0  0.04267  0.77401  0.12097  1.0000
  H   H3        1.0  0.37494  0.87916  0.65311  1.0000
  H   H4        1.0  0.63560  0.39747  0.36855  1.0000
  H   H5        1.0  0.97054  0.63215  0.02911  1.0000
  H   H6        1.0  0.30447  0.97093  0.60267  1.0000
  H   H7        1.0  0.23396  0.59560  0.60361  1.0000
  H   H8        1.0  0.56834  0.39512  0.99224  1.0000
  H   H9        1.0  0.90089  0.00798  0.40445  1.0000
  H   H10       1.0  0.47226  0.20064  0.30804  1.0000
  H   H11       1.0  0.80347  0.69099  0.89429  1.0000
  H   H12       1.0  0.13575  0.10404  0.79460  1.0000
  H   H13       1.0  0.74045  0.63199  0.55350  1.0000
  H   H14       1.0  0.07412  0.44641  0.07830  1.0000
  H   H15       1.0  0.40738  0.92139  0.36748  1.0000
  H   H16       1.0  0.97801  0.25351  0.39564  1.0000
  H   H17       1.0  0.31043  0.60521  0.85866  1.0000
  H   H18       1.0  0.64402  0.14222  0.74708  1.0000
  H   H19       1.0  0.34033  0.26089  0.08934  1.0000
  H   H20       1.0  0.67338  0.91146  0.17177  1.0000
  H   H21       1.0  0.00769  0.82898  0.73943  1.0000
  C   C1        1.0  0.34764  0.56719  0.53522  1.0000
  C   C2        1.0  0.68143  0.46407  0.03211  1.0000
  C   C3        1.0  0.01482  0.96784  0.43238  1.0000
  C   C4        1.0  0.35573  0.19157  0.36057  1.0000
  C   C5        1.0  0.68803  0.63894  0.83114  1.0000
  C   C6        1.0  0.02111  0.16827  0.80704  1.0000
  C   C7        1.0  0.82121  0.66517  0.49769  1.0000
  C   C8        1.0  0.15481  0.50213  0.16726  1.0000
  C   C9        1.0  0.48826  0.83247  0.33457  1.0000
  C   C10       1.0  0.89605  0.29708  0.48480  1.0000
  C   C11       1.0  0.22855  0.51593  0.81290  1.0000
  C   C12       1.0  0.56212  0.18774  0.70347  1.0000
  C   C13       1.0  0.43100  0.17623  0.04433  1.0000
  C   C14       1.0  0.76424  0.95606  0.13178  1.0000
  C   C15       1.0  0.09811  0.86877  0.82413  1.0000
  Cl  Cl1       1.0  0.30082  0.85822  0.08880  1.0000
  Cl  Cl2       1.0  0.63510  0.91188  0.76965  1.0000
  Cl  Cl3       1.0  0.96737  0.23119  0.14251  1.0000
  O   O1        1.0  0.97128  0.30751  0.58671  1.0000
  O   O2        1.0  0.30363  0.41398  0.72125  1.0000
  O   O3        1.0  0.63714  0.27952  0.69322  1.0000
  O   O4        1.0  0.37689  0.23736  0.48345  1.0000
  O   O5        1.0  0.70886  0.51580  0.75418  1.0000
  O   O6        1.0  0.04141  0.24472  0.76028  1.0000
  O   O7        1.0  0.47434  0.49785  0.53601  1.0000
  O   O8        1.0  0.80758  0.46427  0.96208  1.0000
  O   O9        1.0  0.14220  0.03772  0.50088  1.0000
  O   O10       1.0  0.98119  0.69981  0.53228  1.0000
  O   O11       1.0  0.31490  0.46768  0.16707  1.0000
  O   O12       1.0  0.64832  0.83254  0.30012  1.0000
  O   O13       1.0  0.73726  0.33147  0.47959  1.0000
  O   O14       1.0  0.06976  0.52119  0.85265  1.0000
  O   O15       1.0  0.40346  0.14785  0.66889  1.0000
  O   O16       1.0  0.60685  0.39162  0.28498  1.0000
  O   O17       1.0  0.94085  0.71528  0.10728  1.0000
  O   O18       1.0  0.27370  0.89309  0.60799  1.0000
  O   O19       1.0  0.36856  0.07054  0.03413  1.0000
  O   O20       1.0  0.70204  0.96600  0.03630  1.0000
  O   O21       1.0  0.03527  0.96402  0.92970  1.0000
  O   O22       1.0  0.21190  0.13995  0.30356  1.0000
  O   O23       1.0  0.54542  0.69653  0.83493  1.0000
  O   O24       1.0  0.87952  0.16636  0.86291  1.0000
  O   O25       1.0  0.74069  0.66434  0.40201  1.0000
  O   O26       1.0  0.07406  0.59767  0.26238  1.0000
  O   O27       1.0  0.40767  0.73751  0.33550  1.0000
  O   O28       1.0  0.34537  0.60982  0.45510  1.0000
  O   O29       1.0  0.67931  0.54412  0.15494  1.0000
  O   O30       1.0  0.01195  0.84500  0.39004  1.0000
  O   O31       1.0  0.58397  0.19089  0.00828  1.0000
  O   O32       1.0  0.91736  0.99177  0.18226  1.0000
  O   O33       1.0  0.25129  0.81829  0.80938  1.0000
