data_image0
_chemical_formula_structural       Zn4H44C40N12O24
_chemical_formula_sum              "Zn4 H44 C40 N12 O24"
_cell_length_a       10.0696
_cell_length_b       9.97543
_cell_length_c       13.316
_cell_angle_alpha    81.8788
_cell_angle_beta     81.9553
_cell_angle_gamma    66.4967

_space_group_name_H-M_alt    "P 1"
_space_group_IT_number       1

loop_
  _space_group_symop_operation_xyz
  'x, y, z'

loop_
  _atom_site_type_symbol
  _atom_site_label
  _atom_site_symmetry_multiplicity
  _atom_site_fract_x
  _atom_site_fract_y
  _atom_site_fract_z
  _atom_site_occupancy
  Zn  Zn1       1.0  0.81976  0.62989  0.72861  1.0000
  Zn  Zn2       1.0  0.37108  0.17998  0.76978  1.0000
  Zn  Zn3       1.0  0.18024  0.37012  0.27139  1.0000
  Zn  Zn4       1.0  0.62892  0.82002  0.23023  1.0000
  H   H1        1.0  0.97477  0.98179  0.67529  1.0000
  H   H2        1.0  0.01980  0.02634  0.82309  1.0000
  H   H3        1.0  0.02523  0.01821  0.32471  1.0000
  H   H4        1.0  0.98020  0.97367  0.17692  1.0000
  H   H5        1.0  0.31328  0.07346  0.47864  1.0000
  H   H6        1.0  0.92738  0.68670  0.02149  1.0000
  H   H7        1.0  0.68672  0.92654  0.52136  1.0000
  H   H8        1.0  0.07262  0.31330  0.97851  1.0000
  H   H9        1.0  0.27136  0.66072  0.47982  1.0000
  H   H10       1.0  0.33688  0.72788  0.02027  1.0000
  H   H11       1.0  0.72864  0.33927  0.52018  1.0000
  H   H12       1.0  0.66312  0.27212  0.97973  1.0000
  H   H13       1.0  0.55509  0.58438  0.56753  1.0000
  H   H14       1.0  0.41465  0.44618  0.93235  1.0000
  H   H15       1.0  0.44491  0.41562  0.43247  1.0000
  H   H16       1.0  0.58536  0.55382  0.06765  1.0000
  H   H17       1.0  0.62852  0.72151  0.53624  1.0000
  H   H18       1.0  0.28004  0.37052  0.96316  1.0000
  H   H19       1.0  0.37148  0.27849  0.46375  1.0000
  H   H20       1.0  0.71996  0.62949  0.03684  1.0000
  H   H21       1.0  0.42028  0.79989  0.66950  1.0000
  H   H22       1.0  0.20062  0.58210  0.83065  1.0000
  H   H23       1.0  0.57972  0.20011  0.33050  1.0000
  H   H24       1.0  0.79939  0.41791  0.16935  1.0000
  H   H25       1.0  0.50535  0.63516  0.74856  1.0000
  H   H26       1.0  0.36339  0.49750  0.75113  1.0000
  H   H27       1.0  0.49465  0.36484  0.25144  1.0000
  H   H28       1.0  0.63661  0.50250  0.24887  1.0000
  H   H29       1.0  0.83059  0.50870  0.55826  1.0000
  H   H30       1.0  0.49142  0.16801  0.94057  1.0000
  H   H31       1.0  0.16941  0.49131  0.44174  1.0000
  H   H32       1.0  0.50858  0.83200  0.05943  1.0000
  H   H33       1.0  0.75576  0.44159  0.66039  1.0000
  H   H34       1.0  0.55738  0.24478  0.83895  1.0000
  H   H35       1.0  0.24424  0.55842  0.33961  1.0000
  H   H36       1.0  0.44262  0.75522  0.16105  1.0000
  H   H37       1.0  0.56695  0.80514  0.80986  1.0000
  H   H38       1.0  0.19501  0.43465  0.68991  1.0000
  H   H39       1.0  0.43305  0.19487  0.19014  1.0000
  H   H40       1.0  0.80499  0.56535  0.31009  1.0000
  H   H41       1.0  0.59943  0.88177  0.69783  1.0000
  H   H42       1.0  0.12045  0.40040  0.80194  1.0000
  H   H43       1.0  0.40057  0.11823  0.30217  1.0000
  H   H44       1.0  0.87955  0.59960  0.19806  1.0000
  C   C1        1.0  0.04295  0.70458  0.62085  1.0000
  C   C2        1.0  0.29565  0.95583  0.87752  1.0000
  C   C3        1.0  0.95706  0.29541  0.37916  1.0000
  C   C4        1.0  0.70435  0.04417  0.12248  1.0000
  C   C5        1.0  0.11782  0.80823  0.58346  1.0000
  C   C6        1.0  0.19157  0.88203  0.91552  1.0000
  C   C7        1.0  0.88219  0.19176  0.41654  1.0000
  C   C8        1.0  0.80842  0.11797  0.08448  1.0000
  C   C9        1.0  0.06899  0.94625  0.61966  1.0000
  C   C10       1.0  0.05475  0.93160  0.87916  1.0000
  C   C11       1.0  0.93102  0.05375  0.38034  1.0000
  C   C12       1.0  0.94524  0.06841  0.12084  1.0000
  C   C13       1.0  0.14207  0.03789  0.58116  1.0000
  C   C14       1.0  0.96326  0.85869  0.91816  1.0000
  C   C15       1.0  0.85793  0.96210  0.41885  1.0000
  C   C16       1.0  0.03674  0.14131  0.08185  1.0000
  C   C17       1.0  0.25904  0.99884  0.50629  1.0000
  C   C18       1.0  0.00161  0.74100  0.99351  1.0000
  C   C19       1.0  0.74096  0.00116  0.49371  1.0000
  C   C20       1.0  0.99839  0.25900  0.00649  1.0000
  C   C21       1.0  0.30422  0.86238  0.46837  1.0000
  C   C22       1.0  0.13670  0.69546  0.03166  1.0000
  C   C23       1.0  0.69578  0.13761  0.53163  1.0000
  C   C24       1.0  0.86329  0.30453  0.96834  1.0000
  C   C25       1.0  0.23463  0.76756  0.50861  1.0000
  C   C26       1.0  0.23117  0.76495  0.99116  1.0000
  C   C27       1.0  0.76537  0.23244  0.49139  1.0000
  C   C28       1.0  0.76883  0.23505  0.00884  1.0000
  C   C29       1.0  0.42436  0.81278  0.38429  1.0000
  C   C30       1.0  0.18534  0.57505  0.11640  1.0000
  C   C31       1.0  0.57565  0.18721  0.61571  1.0000
  C   C32       1.0  0.81467  0.42495  0.88360  1.0000
  C   C33       1.0  0.61380  0.64055  0.59710  1.0000
  C   C34       1.0  0.35964  0.38663  0.90238  1.0000
  C   C35       1.0  0.38620  0.35945  0.40290  1.0000
  C   C36       1.0  0.64036  0.61337  0.09762  1.0000
  C   C37       1.0  0.52554  0.71656  0.69082  1.0000
  C   C38       1.0  0.28335  0.47626  0.80894  1.0000
  C   C39       1.0  0.47446  0.28344  0.30917  1.0000
  C   C40       1.0  0.71665  0.52374  0.19106  1.0000
  N   N1        1.0  0.09179  0.18247  0.61949  1.0000
  N   N2        1.0  0.81955  0.91009  0.88012  1.0000
  N   N3        1.0  0.90821  0.81753  0.38051  1.0000
  N   N4        1.0  0.18045  0.08992  0.11988  1.0000
  N   N5        1.0  0.76067  0.53671  0.62293  1.0000
  N   N6        1.0  0.46335  0.23899  0.87605  1.0000
  N   N7        1.0  0.23933  0.46330  0.37707  1.0000
  N   N8        1.0  0.53665  0.76102  0.12395  1.0000
  N   N9        1.0  0.60910  0.78176  0.73655  1.0000
  N   N10       1.0  0.21904  0.39185  0.76310  1.0000
  N   N11       1.0  0.39090  0.21824  0.26345  1.0000
  N   N12       1.0  0.78096  0.60816  0.23690  1.0000
  O   O1        1.0  0.93995  0.74783  0.69321  1.0000
  O   O2        1.0  0.25428  0.05856  0.80405  1.0000
  O   O3        1.0  0.06005  0.25217  0.30679  1.0000
  O   O4        1.0  0.74572  0.94145  0.19596  1.0000
  O   O5        1.0  0.08231  0.58608  0.58149  1.0000
  O   O6        1.0  0.41275  0.91591  0.91746  1.0000
  O   O7        1.0  0.91769  0.41391  0.41851  1.0000
  O   O8        1.0  0.58725  0.08408  0.08254  1.0000
  O   O9        1.0  0.45843  0.68947  0.35387  1.0000
  O   O10       1.0  0.30758  0.54081  0.14684  1.0000
  O   O11       1.0  0.54157  0.31053  0.64613  1.0000
  O   O12       1.0  0.69242  0.45918  0.85315  1.0000
  O   O13       1.0  0.48630  0.90410  0.34768  1.0000
  O   O14       1.0  0.09466  0.51314  0.15364  1.0000
  O   O15       1.0  0.51370  0.09590  0.65232  1.0000
  O   O16       1.0  0.90534  0.48686  0.84636  1.0000
  O   O17       1.0  0.16493  0.25798  0.59081  1.0000
  O   O18       1.0  0.74416  0.83694  0.90932  1.0000
  O   O19       1.0  0.83508  0.74201  0.40919  1.0000
  O   O20       1.0  0.25584  0.16306  0.09068  1.0000
  O   O21       1.0  0.97882  0.22154  0.67836  1.0000
  O   O22       1.0  0.78090  0.02419  0.82114  1.0000
  O   O23       1.0  0.02118  0.77847  0.32164  1.0000
  O   O24       1.0  0.21910  0.97581  0.17886  1.0000
