data_image0
_chemical_formula_structural       Co4H16C32N16O8
_chemical_formula_sum              "Co4 H16 C32 N16 O8"
_cell_length_a       4.94517
_cell_length_b       10.2714
_cell_length_c       16.97
_cell_angle_alpha    89.9999
_cell_angle_beta     90
_cell_angle_gamma    98.9728

_space_group_name_H-M_alt    "P 1"
_space_group_IT_number       1

loop_
  _space_group_symop_operation_xyz
  'x, y, z'

loop_
  _atom_site_type_symbol
  _atom_site_label
  _atom_site_symmetry_multiplicity
  _atom_site_fract_x
  _atom_site_fract_y
  _atom_site_fract_z
  _atom_site_occupancy
  Co  Co1       1.0  0.70819  0.64638  0.34377  1.0000
  Co  Co2       1.0  0.29181  0.85362  0.84377  1.0000
  Co  Co3       1.0  0.29181  0.35362  0.65623  1.0000
  Co  Co4       1.0  0.70819  0.14638  0.15623  1.0000
  H   H1        1.0  0.11511  0.71159  0.22222  1.0000
  H   H2        1.0  0.88489  0.78841  0.72222  1.0000
  H   H3        1.0  0.88489  0.28841  0.77778  1.0000
  H   H4        1.0  0.11511  0.21159  0.27778  1.0000
  H   H5        1.0  0.28598  0.61266  0.10405  1.0000
  H   H6        1.0  0.71402  0.88734  0.60405  1.0000
  H   H7        1.0  0.71402  0.38734  0.89595  1.0000
  H   H8        1.0  0.28598  0.11266  0.39595  1.0000
  H   H9        1.0  0.13331  0.67029  0.97034  1.0000
  H   H10       1.0  0.86669  0.82971  0.47034  1.0000
  H   H11       1.0  0.86669  0.32971  0.02966  1.0000
  H   H12       1.0  0.13331  0.17029  0.52966  1.0000
  H   H13       1.0  0.61003  0.91985  0.07503  1.0000
  H   H14       1.0  0.38997  0.58016  0.57503  1.0000
  H   H15       1.0  0.38997  0.08016  0.92497  1.0000
  H   H16       1.0  0.61003  0.41984  0.42497  1.0000
  C   C1        1.0  0.73042  0.87777  0.22614  1.0000
  C   C2        1.0  0.26958  0.62223  0.72613  1.0000
  C   C3        1.0  0.26958  0.12223  0.77387  1.0000
  C   C4        1.0  0.73043  0.37777  0.27387  1.0000
  C   C5        1.0  0.85197  0.82421  0.15727  1.0000
  C   C6        1.0  0.14803  0.67579  0.65727  1.0000
  C   C7        1.0  0.14803  0.17579  0.84273  1.0000
  C   C8        1.0  0.85197  0.32421  0.34273  1.0000
  C   C9        1.0  0.04284  0.73682  0.16431  1.0000
  C   C10       1.0  0.95716  0.76318  0.66431  1.0000
  C   C11       1.0  0.95716  0.26318  0.83569  1.0000
  C   C12       1.0  0.04284  0.23682  0.33569  1.0000
  C   C13       1.0  0.14129  0.68160  0.09717  1.0000
  C   C14       1.0  0.85871  0.81840  0.59717  1.0000
  C   C15       1.0  0.85871  0.31840  0.90283  1.0000
  C   C16       1.0  0.14129  0.18160  0.40283  1.0000
  C   C17       1.0  0.05766  0.71526  0.02238  1.0000
  C   C18       1.0  0.94234  0.78474  0.52238  1.0000
  C   C19       1.0  0.94233  0.28474  0.97762  1.0000
  C   C20       1.0  0.05767  0.21526  0.47762  1.0000
  C   C21       1.0  0.76642  0.85687  0.08215  1.0000
  C   C22       1.0  0.23358  0.64313  0.58215  1.0000
  C   C23       1.0  0.23358  0.14313  0.91785  1.0000
  C   C24       1.0  0.76643  0.35687  0.41785  1.0000
  C   C25       1.0  0.87265  0.80485  0.01471  1.0000
  C   C26       1.0  0.12735  0.69515  0.51471  1.0000
  C   C27       1.0  0.12735  0.19515  0.98529  1.0000
  C   C28       1.0  0.87265  0.30485  0.48529  1.0000
  C   C29       1.0  0.76951  0.83942  0.93642  1.0000
  C   C30       1.0  0.23049  0.66058  0.43642  1.0000
  C   C31       1.0  0.23048  0.16058  0.06358  1.0000
  C   C32       1.0  0.76951  0.33942  0.56358  1.0000
  N   N1        1.0  0.64727  0.99690  0.22922  1.0000
  N   N2        1.0  0.35273  0.50310  0.72922  1.0000
  N   N3        1.0  0.35273  0.00310  0.77078  1.0000
  N   N4        1.0  0.64727  0.49690  0.27078  1.0000
  N   N5        1.0  0.53310  0.00742  0.30109  1.0000
  N   N6        1.0  0.46691  0.49258  0.80109  1.0000
  N   N7        1.0  0.46691  0.99258  0.69891  1.0000
  N   N8        1.0  0.53309  0.50742  0.19891  1.0000
  N   N9        1.0  0.66797  0.81686  0.29560  1.0000
  N   N10       1.0  0.33203  0.68314  0.79560  1.0000
  N   N11       1.0  0.33203  0.18314  0.70440  1.0000
  N   N12       1.0  0.66797  0.31686  0.20440  1.0000
  N   N13       1.0  0.54580  0.90045  0.34089  1.0000
  N   N14       1.0  0.45420  0.59955  0.84089  1.0000
  N   N15       1.0  0.45420  0.09955  0.65911  1.0000
  N   N16       1.0  0.54580  0.40045  0.15911  1.0000
  O   O1        1.0  0.52595  0.86741  0.93506  1.0000
  O   O2        1.0  0.47405  0.63259  0.43506  1.0000
  O   O3        1.0  0.47405  0.13259  0.06494  1.0000
  O   O4        1.0  0.52595  0.36741  0.56494  1.0000
  O   O5        1.0  0.91140  0.84010  0.87360  1.0000
  O   O6        1.0  0.08860  0.65990  0.37360  1.0000
  O   O7        1.0  0.08860  0.15990  0.12640  1.0000
  O   O8        1.0  0.91140  0.34010  0.62640  1.0000
