data_image0
_chemical_formula_structural       Cd2H44C40N8O12
_chemical_formula_sum              "Cd2 H44 C40 N8 O12"
_cell_length_a       8.98667
_cell_length_b       9.23614
_cell_length_c       15.603
_cell_angle_alpha    93.3516
_cell_angle_beta     93.4448
_cell_angle_gamma    112.213

_space_group_name_H-M_alt    "P 1"
_space_group_IT_number       1

loop_
  _space_group_symop_operation_xyz
  'x, y, z'

loop_
  _atom_site_type_symbol
  _atom_site_label
  _atom_site_symmetry_multiplicity
  _atom_site_fract_x
  _atom_site_fract_y
  _atom_site_fract_z
  _atom_site_occupancy
  Cd  Cd1       1.0  0.02053  0.97613  0.75158  1.0000
  Cd  Cd2       1.0  0.97947  0.02386  0.24842  1.0000
  H   H1        1.0  0.62743  0.67444  0.88761  1.0000
  H   H2        1.0  0.31974  0.36839  0.61029  1.0000
  H   H3        1.0  0.37255  0.32557  0.11238  1.0000
  H   H4        1.0  0.68026  0.63161  0.38971  1.0000
  H   H5        1.0  0.56761  0.78750  0.02392  1.0000
  H   H6        1.0  0.20344  0.42516  0.47361  1.0000
  H   H7        1.0  0.43238  0.21251  0.97607  1.0000
  H   H8        1.0  0.79656  0.57484  0.52639  1.0000
  H   H9        1.0  0.58004  0.21566  0.76424  1.0000
  H   H10       1.0  0.79419  0.43069  0.73777  1.0000
  H   H11       1.0  0.41997  0.78435  0.23576  1.0000
  H   H12       1.0  0.20581  0.56931  0.26224  1.0000
  H   H13       1.0  0.56144  0.16458  0.87220  1.0000
  H   H14       1.0  0.84855  0.45146  0.63020  1.0000
  H   H15       1.0  0.43857  0.83544  0.12780  1.0000
  H   H16       1.0  0.15145  0.54853  0.36980  1.0000
  H   H17       1.0  0.77142  0.85053  0.56670  1.0000
  H   H18       1.0  0.14924  0.23601  0.92878  1.0000
  H   H19       1.0  0.22856  0.14944  0.43329  1.0000
  H   H20       1.0  0.85079  0.76399  0.07122  1.0000
  H   H21       1.0  0.91323  0.31211  0.49102  1.0000
  H   H22       1.0  0.68139  0.08424  0.01447  1.0000
  H   H23       1.0  0.08677  0.68787  0.50898  1.0000
  H   H24       1.0  0.31862  0.91578  0.98552  1.0000
  H   H25       1.0  0.08236  0.31603  0.64946  1.0000
  H   H26       1.0  0.67372  0.91278  0.85814  1.0000
  H   H27       1.0  0.91763  0.68393  0.35055  1.0000
  H   H28       1.0  0.32629  0.08724  0.14186  1.0000
  H   H29       1.0  0.73357  0.07341  0.37951  1.0000
  H   H30       1.0  0.92633  0.27095  0.11964  1.0000
  H   H31       1.0  0.26642  0.92659  0.62049  1.0000
  H   H32       1.0  0.07368  0.72906  0.88035  1.0000
  H   H33       1.0  0.65614  0.88550  0.42029  1.0000
  H   H34       1.0  0.11801  0.34671  0.07768  1.0000
  H   H35       1.0  0.34385  0.11449  0.57970  1.0000
  H   H36       1.0  0.88200  0.65330  0.92232  1.0000
  H   H37       1.0  0.44570  0.99575  0.40376  1.0000
  H   H38       1.0  0.00086  0.54881  0.09637  1.0000
  H   H39       1.0  0.55430  0.00425  0.59625  1.0000
  H   H40       1.0  0.99915  0.45121  0.90363  1.0000
  H   H41       1.0  0.56476  0.16715  0.46995  1.0000
  H   H42       1.0  0.82700  0.43371  0.02834  1.0000
  H   H43       1.0  0.43524  0.83284  0.53005  1.0000
  H   H44       1.0  0.17301  0.56630  0.97166  1.0000
  C   C1        1.0  0.57246  0.59962  0.93786  1.0000
  C   C2        1.0  0.39720  0.42515  0.56099  1.0000
  C   C3        1.0  0.42753  0.40039  0.06214  1.0000
  C   C4        1.0  0.60279  0.57485  0.43902  1.0000
  C   C5        1.0  0.53673  0.66142  0.01406  1.0000
  C   C6        1.0  0.33346  0.45909  0.48453  1.0000
  C   C7        1.0  0.46326  0.33858  0.98593  1.0000
  C   C8        1.0  0.66653  0.54091  0.51547  1.0000
  C   C9        1.0  0.53719  0.43873  0.92332  1.0000
  C   C10       1.0  0.56324  0.46480  0.57700  1.0000
  C   C11       1.0  0.46281  0.56129  0.07668  1.0000
  C   C12       1.0  0.43676  0.53521  0.42301  1.0000
  C   C13       1.0  0.52369  0.22790  0.82338  1.0000
  C   C14       1.0  0.78039  0.48477  0.67847  1.0000
  C   C15       1.0  0.47631  0.77211  0.17661  1.0000
  C   C16       1.0  0.21961  0.51522  0.32153  1.0000
  C   C17       1.0  0.34108  0.15134  0.80140  1.0000
  C   C18       1.0  0.85366  0.66270  0.70062  1.0000
  C   C19       1.0  0.65893  0.84866  0.19859  1.0000
  C   C20       1.0  0.14635  0.33730  0.29938  1.0000
  C   C21       1.0  0.83613  0.97666  0.56849  1.0000
  C   C22       1.0  0.02091  0.16895  0.92994  1.0000
  C   C23       1.0  0.16385  0.02331  0.43150  1.0000
  C   C24       1.0  0.97910  0.83106  0.07006  1.0000
  C   C25       1.0  0.91104  0.21983  0.53136  1.0000
  C   C26       1.0  0.77419  0.08877  0.97224  1.0000
  C   C27       1.0  0.08895  0.78015  0.46864  1.0000
  C   C28       1.0  0.22582  0.91125  0.02776  1.0000
  C   C29       1.0  0.99366  0.21939  0.60848  1.0000
  C   C30       1.0  0.77319  0.00435  0.89638  1.0000
  C   C31       1.0  0.00633  0.78059  0.39152  1.0000
  C   C32       1.0  0.22682  0.99567  0.10362  1.0000
  C   C33       1.0  0.68512  0.01123  0.43581  1.0000
  C   C34       1.0  0.98849  0.31778  0.06281  1.0000
  C   C35       1.0  0.31487  0.98876  0.56419  1.0000
  C   C36       1.0  0.01152  0.68223  0.93719  1.0000
  C   C37       1.0  0.53529  0.03982  0.46011  1.0000
  C   C38       1.0  0.95791  0.46348  0.03917  1.0000
  C   C39       1.0  0.46470  0.96018  0.53990  1.0000
  C   C40       1.0  0.04210  0.53653  0.96083  1.0000
  N   N1        1.0  0.94602  0.06682  0.63064  1.0000
  N   N2        1.0  0.92793  0.05529  0.87095  1.0000
  N   N3        1.0  0.05397  0.93315  0.36936  1.0000
  N   N4        1.0  0.07209  0.94472  0.12904  1.0000
  N   N5        1.0  0.81241  0.06524  0.50691  1.0000
  N   N6        1.0  0.93198  0.19223  0.99258  1.0000
  N   N7        1.0  0.18758  0.93474  0.49310  1.0000
  N   N8        1.0  0.06804  0.80779  0.00741  1.0000
  O   O1        1.0  0.26374  0.23137  0.77454  1.0000
  O   O2        1.0  0.76803  0.73370  0.72842  1.0000
  O   O3        1.0  0.73626  0.76863  0.22545  1.0000
  O   O4        1.0  0.23198  0.26630  0.27159  1.0000
  O   O5        1.0  0.27783  0.00343  0.80916  1.0000
  O   O6        1.0  0.00492  0.72905  0.69238  1.0000
  O   O7        1.0  0.72217  0.99657  0.19084  1.0000
  O   O8        1.0  0.99508  0.27094  0.30762  1.0000
  O   O9        1.0  0.58352  0.39199  0.84780  1.0000
  O   O10       1.0  0.61198  0.42135  0.65297  1.0000
  O   O11       1.0  0.41647  0.60803  0.15220  1.0000
  O   O12       1.0  0.38802  0.57865  0.34703  1.0000
