data_image0
_chemical_formula_structural       Cd2H44C40N8O12
_chemical_formula_sum              "Cd2 H44 C40 N8 O12"
_cell_length_a       9.5091
_cell_length_b       9.81339
_cell_length_c       12.051
_cell_angle_alpha    100.668
_cell_angle_beta     95.0557
_cell_angle_gamma    106.316

_space_group_name_H-M_alt    "P 1"
_space_group_IT_number       1

loop_
  _space_group_symop_operation_xyz
  'x, y, z'

loop_
  _atom_site_type_symbol
  _atom_site_label
  _atom_site_symmetry_multiplicity
  _atom_site_fract_x
  _atom_site_fract_y
  _atom_site_fract_z
  _atom_site_occupancy
  Cd  Cd1       1.0  0.65193  0.01353  0.39223  1.0000
  Cd  Cd2       1.0  0.34807  0.98648  0.60777  1.0000
  H   H1        1.0  0.94734  0.56337  0.32646  1.0000
  H   H2        1.0  0.05267  0.43663  0.67354  1.0000
  H   H3        1.0  0.80448  0.40382  0.33681  1.0000
  H   H4        1.0  0.19552  0.59618  0.66319  1.0000
  H   H5        1.0  0.56745  0.44602  0.41680  1.0000
  H   H6        1.0  0.43256  0.55398  0.58320  1.0000
  H   H7        1.0  0.54723  0.59909  0.20915  1.0000
  H   H8        1.0  0.45277  0.40091  0.79084  1.0000
  H   H9        1.0  0.71198  0.32687  0.75074  1.0000
  H   H10       1.0  0.28802  0.67313  0.24926  1.0000
  H   H11       1.0  0.70265  0.16436  0.79791  1.0000
  H   H12       1.0  0.29735  0.83564  0.20209  1.0000
  H   H13       1.0  0.44206  0.23348  0.92120  1.0000
  H   H14       1.0  0.55794  0.76652  0.07880  1.0000
  H   H15       1.0  0.18477  0.45224  0.87655  1.0000
  H   H16       1.0  0.81523  0.54776  0.12345  1.0000
  H   H17       1.0  0.46368  0.69034  0.44181  1.0000
  H   H18       1.0  0.53631  0.30966  0.55820  1.0000
  H   H19       1.0  0.89243  0.79994  0.34779  1.0000
  H   H20       1.0  0.10757  0.20006  0.65221  1.0000
  H   H21       1.0  0.85287  0.47925  0.54813  1.0000
  H   H22       1.0  0.14713  0.52075  0.45187  1.0000
  H   H23       1.0  0.97736  0.64899  0.54085  1.0000
  H   H24       1.0  0.02264  0.35101  0.45915  1.0000
  H   H25       1.0  0.73176  0.36638  0.94160  1.0000
  H   H26       1.0  0.26824  0.63361  0.05840  1.0000
  H   H27       1.0  0.57492  0.17376  0.05538  1.0000
  H   H28       1.0  0.42508  0.82624  0.94462  1.0000
  H   H29       1.0  0.38552  0.10858  0.06651  1.0000
  H   H30       1.0  0.61448  0.89142  0.93349  1.0000
  H   H31       1.0  0.20096  0.27048  0.11534  1.0000
  H   H32       1.0  0.79904  0.72952  0.88466  1.0000
  H   H33       1.0  0.01740  0.25375  0.05785  1.0000
  H   H34       1.0  0.98260  0.74625  0.94215  1.0000
  H   H35       1.0  0.15385  0.00298  0.05302  1.0000
  H   H36       1.0  0.84615  0.99702  0.94698  1.0000
  H   H37       1.0  0.11937  0.08201  0.93671  1.0000
  H   H38       1.0  0.88063  0.91799  0.06329  1.0000
  H   H39       1.0  0.03627  0.06335  0.44306  1.0000
  H   H40       1.0  0.96373  0.93665  0.55694  1.0000
  H   H41       1.0  0.80610  0.15452  0.16475  1.0000
  H   H42       1.0  0.19390  0.84548  0.83525  1.0000
  H   H43       1.0  0.23375  0.15470  0.29664  1.0000
  H   H44       1.0  0.76625  0.84530  0.70336  1.0000
  C   C1        1.0  0.86366  0.51790  0.37778  1.0000
  C   C2        1.0  0.13635  0.48210  0.62222  1.0000
  C   C3        1.0  0.53370  0.11086  0.21312  1.0000
  C   C4        1.0  0.46630  0.88915  0.78688  1.0000
  C   C5        1.0  0.61795  0.55724  0.41010  1.0000
  C   C6        1.0  0.38205  0.44276  0.58990  1.0000
  C   C7        1.0  0.52705  0.55632  0.11729  1.0000
  C   C8        1.0  0.47295  0.44368  0.88271  1.0000
  C   C9        1.0  0.74755  0.15995  0.62554  1.0000
  C   C10       1.0  0.25245  0.84005  0.37445  1.0000
  C   C11       1.0  0.49454  0.40645  0.07524  1.0000
  C   C12       1.0  0.50546  0.59355  0.92477  1.0000
  C   C13       1.0  0.76442  0.23932  0.74874  1.0000
  C   C14       1.0  0.23558  0.76068  0.25126  1.0000
  C   C15       1.0  0.95356  0.39711  0.89654  1.0000
  C   C16       1.0  0.04644  0.60289  0.10345  1.0000
  C   C17       1.0  0.46663  0.34951  0.95702  1.0000
  C   C18       1.0  0.53337  0.65050  0.04298  1.0000
  C   C19       1.0  0.10388  0.47375  0.93058  1.0000
  C   C20       1.0  0.89612  0.52625  0.06941  1.0000
  C   C21       1.0  0.56715  0.67629  0.41905  1.0000
  C   C22       1.0  0.43285  0.32371  0.58095  1.0000
  C   C23       1.0  0.78723  0.74029  0.36893  1.0000
  C   C24       1.0  0.21276  0.25971  0.63106  1.0000
  C   C25       1.0  0.93653  0.53280  0.49942  1.0000
  C   C26       1.0  0.06347  0.46720  0.50058  1.0000
  C   C27       1.0  0.84943  0.42367  0.96639  1.0000
  C   C28       1.0  0.15058  0.57632  0.03361  1.0000
  C   C29       1.0  0.49371  0.17765  0.11512  1.0000
  C   C30       1.0  0.50629  0.82234  0.88488  1.0000
  C   C31       1.0  0.08685  0.19700  0.09608  1.0000
  C   C32       1.0  0.91315  0.80300  0.90393  1.0000
  C   C33       1.0  0.07801  0.05413  0.01465  1.0000
  C   C34       1.0  0.92199  0.94587  0.98535  1.0000
  C   C35       1.0  0.01589  0.09435  0.36318  1.0000
  C   C36       1.0  0.98411  0.90565  0.63682  1.0000
  C   C37       1.0  0.89316  0.14201  0.22265  1.0000
  C   C38       1.0  0.10684  0.85800  0.77735  1.0000
  C   C39       1.0  0.11565  0.13953  0.29165  1.0000
  C   C40       1.0  0.88435  0.86047  0.70835  1.0000
  N   N1        1.0  0.75697  0.59987  0.37869  1.0000
  N   N2        1.0  0.24303  0.40013  0.62131  1.0000
  N   N3        1.0  0.67343  0.78954  0.39264  1.0000
  N   N4        1.0  0.32657  0.21046  0.60736  1.0000
  N   N5        1.0  0.87734  0.09578  0.31919  1.0000
  N   N6        1.0  0.12266  0.90422  0.68081  1.0000
  N   N7        1.0  0.03605  0.17068  0.20312  1.0000
  N   N8        1.0  0.96395  0.82932  0.79688  1.0000
  O   O1        1.0  0.61252  0.10098  0.57589  1.0000
  O   O2        1.0  0.38748  0.89902  0.42411  1.0000
  O   O3        1.0  0.56969  0.18742  0.31458  1.0000
  O   O4        1.0  0.43031  0.81258  0.68542  1.0000
  O   O5        1.0  0.53336  0.97949  0.18431  1.0000
  O   O6        1.0  0.46664  0.02051  0.81570  1.0000
  O   O7        1.0  0.91796  0.29809  0.79405  1.0000
  O   O8        1.0  0.08204  0.70192  0.20595  1.0000
  O   O9        1.0  0.85766  0.15682  0.57665  1.0000
  O   O10       1.0  0.14234  0.84318  0.42335  1.0000
  O   O11       1.0  0.49337  0.32323  0.15576  1.0000
  O   O12       1.0  0.50663  0.67676  0.84424  1.0000
