data_image0
_chemical_formula_structural       Zn2H44C40N8O12
_chemical_formula_sum              "Zn2 H44 C40 N8 O12"
_cell_length_a       9.38876
_cell_length_b       10.1621
_cell_length_c       13.849
_cell_angle_alpha    78.7856
_cell_angle_beta     86.3694
_cell_angle_gamma    79.8962

_space_group_name_H-M_alt    "P 1"
_space_group_IT_number       1

loop_
  _space_group_symop_operation_xyz
  'x, y, z'

loop_
  _atom_site_type_symbol
  _atom_site_label
  _atom_site_symmetry_multiplicity
  _atom_site_fract_x
  _atom_site_fract_y
  _atom_site_fract_z
  _atom_site_occupancy
  Zn  Zn1       1.0  0.16051  0.12443  0.69061  1.0000
  Zn  Zn2       1.0  0.83949  0.87557  0.30939  1.0000
  H   H1        1.0  0.12362  0.42115  0.39997  1.0000
  H   H2        1.0  0.87638  0.57885  0.60003  1.0000
  H   H3        1.0  0.91824  0.93165  0.68607  1.0000
  H   H4        1.0  0.08176  0.06835  0.31393  1.0000
  H   H5        1.0  0.73167  0.22948  0.45002  1.0000
  H   H6        1.0  0.26833  0.77052  0.54998  1.0000
  H   H7        1.0  0.58440  0.09502  0.42887  1.0000
  H   H8        1.0  0.41560  0.90497  0.57113  1.0000
  H   H9        1.0  0.49912  0.12991  0.54165  1.0000
  H   H10       1.0  0.50088  0.87009  0.45835  1.0000
  H   H11       1.0  0.77741  0.34686  0.00570  1.0000
  H   H12       1.0  0.22259  0.65314  0.99430  1.0000
  H   H13       1.0  0.81479  0.46737  0.89937  1.0000
  H   H14       1.0  0.18520  0.53263  0.10063  1.0000
  H   H15       1.0  0.65806  0.92261  0.63279  1.0000
  H   H16       1.0  0.34194  0.07739  0.36721  1.0000
  H   H17       1.0  0.73900  0.88862  0.51929  1.0000
  H   H18       1.0  0.26101  0.11138  0.48071  1.0000
  H   H19       1.0  0.78769  0.36560  0.25466  1.0000
  H   H20       1.0  0.21231  0.63440  0.74534  1.0000
  H   H21       1.0  0.66377  0.35138  0.16677  1.0000
  H   H22       1.0  0.33623  0.64862  0.83323  1.0000
  H   H23       1.0  0.23384  0.55009  0.46988  1.0000
  H   H24       1.0  0.76616  0.44992  0.53012  1.0000
  H   H25       1.0  0.37747  0.51090  0.55367  1.0000
  H   H26       1.0  0.62253  0.48910  0.44633  1.0000
  H   H27       1.0  0.49004  0.22996  0.16620  1.0000
  H   H28       1.0  0.50996  0.77005  0.83380  1.0000
  H   H29       1.0  0.97781  0.39342  0.09322  1.0000
  H   H30       1.0  0.02220  0.60658  0.90677  1.0000
  H   H31       1.0  0.85540  0.54437  0.05316  1.0000
  H   H32       1.0  0.14461  0.45563  0.94683  1.0000
  H   H33       1.0  0.97487  0.30924  0.51098  1.0000
  H   H34       1.0  0.02513  0.69076  0.48902  1.0000
  H   H35       1.0  0.96683  0.37358  0.76797  1.0000
  H   H36       1.0  0.03317  0.62642  0.23203  1.0000
  H   H37       1.0  0.04532  0.33850  0.25998  1.0000
  H   H38       1.0  0.95468  0.66150  0.74002  1.0000
  H   H39       1.0  0.19665  0.00997  0.92634  1.0000
  H   H40       1.0  0.80336  0.99003  0.07366  1.0000
  H   H41       1.0  0.22774  0.24036  0.14262  1.0000
  H   H42       1.0  0.77226  0.75964  0.85738  1.0000
  H   H43       1.0  0.02161  0.14795  0.05896  1.0000
  H   H44       1.0  0.97839  0.85205  0.94104  1.0000
  C   C1        1.0  0.22391  0.37430  0.58384  1.0000
  C   C2        1.0  0.77608  0.62571  0.41616  1.0000
  C   C3        1.0  0.20539  0.37818  0.35032  1.0000
  C   C4        1.0  0.79461  0.62182  0.64968  1.0000
  C   C5        1.0  0.90238  0.02339  0.63017  1.0000
  C   C6        1.0  0.09762  0.97661  0.36983  1.0000
  C   C7        1.0  0.80850  0.17982  0.50624  1.0000
  C   C8        1.0  0.19150  0.82019  0.49376  1.0000
  C   C9        1.0  0.45596  0.31998  0.29624  1.0000
  C   C10       1.0  0.54404  0.68002  0.70376  1.0000
  C   C11       1.0  0.35260  0.36857  0.36593  1.0000
  C   C12       1.0  0.64740  0.63143  0.63407  1.0000
  C   C13       1.0  0.55265  0.04826  0.50356  1.0000
  C   C14       1.0  0.44735  0.95174  0.49644  1.0000
  C   C15       1.0  0.86348  0.39503  0.96297  1.0000
  C   C16       1.0  0.13652  0.60497  0.03703  1.0000
  C   C17       1.0  0.68655  0.97019  0.55757  1.0000
  C   C18       1.0  0.31345  0.02981  0.44243  1.0000
  C   C19       1.0  0.70634  0.30661  0.24055  1.0000
  C   C20       1.0  0.29366  0.69339  0.75945  1.0000
  C   C21       1.0  0.30978  0.46660  0.51095  1.0000
  C   C22       1.0  0.69022  0.53340  0.48904  1.0000
  C   C23       1.0  0.41044  0.27387  0.21670  1.0000
  C   C24       1.0  0.58956  0.72614  0.78330  1.0000
  C   C25       1.0  0.78408  0.16059  0.24002  1.0000
  C   C26       1.0  0.21592  0.83941  0.75998  1.0000
  C   C27       1.0  0.93822  0.46691  0.02724  1.0000
  C   C28       1.0  0.06178  0.53309  0.97275  1.0000
  C   C29       1.0  0.92841  0.21810  0.53745  1.0000
  C   C30       1.0  0.07159  0.78190  0.46255  1.0000
  C   C31       1.0  0.00538  0.29247  0.82850  1.0000
  C   C32       1.0  0.99462  0.70753  0.17150  1.0000
  C   C33       1.0  0.16066  0.33304  0.26962  1.0000
  C   C34       1.0  0.83934  0.66696  0.73039  1.0000
  C   C35       1.0  0.12494  0.10706  0.91366  1.0000
  C   C36       1.0  0.87506  0.89294  0.08634  1.0000
  C   C37       1.0  0.26230  0.27932  0.20380  1.0000
  C   C38       1.0  0.73770  0.72068  0.79620  1.0000
  C   C39       1.0  0.04024  0.17319  0.97982  1.0000
  C   C40       1.0  0.95976  0.82681  0.02018  1.0000
  N   N1        1.0  0.79382  0.05670  0.56560  1.0000
  N   N2        1.0  0.20618  0.94330  0.43440  1.0000
  N   N3        1.0  0.96462  0.28973  0.92429  1.0000
  N   N4        1.0  0.03538  0.71027  0.07571  1.0000
  N   N5        1.0  0.98613  0.11973  0.61492  1.0000
  N   N6        1.0  0.01387  0.88027  0.38508  1.0000
  N   N7        1.0  0.10244  0.18217  0.81984  1.0000
  N   N8        1.0  0.89756  0.81783  0.18016  1.0000
  O   O1        1.0  0.59664  0.32321  0.31503  1.0000
  O   O2        1.0  0.40336  0.67679  0.68498  1.0000
  O   O3        1.0  0.40880  0.40294  0.44417  1.0000
  O   O4        1.0  0.59119  0.59705  0.55583  1.0000
  O   O5        1.0  0.27506  0.24552  0.60031  1.0000
  O   O6        1.0  0.72494  0.75449  0.39969  1.0000
  O   O7        1.0  0.90316  0.14949  0.19371  1.0000
  O   O8        1.0  0.09684  0.85051  0.80629  1.0000
  O   O9        1.0  0.72166  0.06279  0.28697  1.0000
  O   O10       1.0  0.27834  0.93721  0.71303  1.0000
  O   O11       1.0  0.11304  0.43121  0.62379  1.0000
  O   O12       1.0  0.88696  0.56879  0.37621  1.0000
