data_image0
_chemical_formula_structural       Co2H48C54N8O8
_chemical_formula_sum              "Co2 H48 C54 N8 O8"
_cell_length_a       10.7698
_cell_length_b       11.1925
_cell_length_c       11.561
_cell_angle_alpha    64.9637
_cell_angle_beta     83.2821
_cell_angle_gamma    67.6952

_space_group_name_H-M_alt    "P 1"
_space_group_IT_number       1

loop_
  _space_group_symop_operation_xyz
  'x, y, z'

loop_
  _atom_site_type_symbol
  _atom_site_label
  _atom_site_symmetry_multiplicity
  _atom_site_fract_x
  _atom_site_fract_y
  _atom_site_fract_z
  _atom_site_occupancy
  Co  Co1       1.0  0.79849  0.18355  0.33241  1.0000
  Co  Co2       1.0  0.20151  0.81645  0.66759  1.0000
  H   H1        1.0  0.80184  0.52488  0.33139  1.0000
  H   H2        1.0  0.19816  0.47512  0.66861  1.0000
  H   H3        1.0  0.70763  0.65203  0.18716  1.0000
  H   H4        1.0  0.29237  0.34797  0.81284  1.0000
  H   H5        1.0  0.81261  0.47882  0.19971  1.0000
  H   H6        1.0  0.18739  0.52118  0.80029  1.0000
  H   H7        1.0  0.53049  0.13535  0.41622  1.0000
  H   H8        1.0  0.46950  0.86466  0.58378  1.0000
  H   H9        1.0  0.29553  0.18066  0.48916  1.0000
  H   H10       1.0  0.70447  0.81934  0.51085  1.0000
  H   H11       1.0  0.15495  0.41249  0.49068  1.0000
  H   H12       1.0  0.84505  0.58751  0.50932  1.0000
  H   H13       1.0  0.23968  0.61225  0.41373  1.0000
  H   H14       1.0  0.76032  0.38776  0.58628  1.0000
  H   H15       1.0  0.54971  0.73861  0.31145  1.0000
  H   H16       1.0  0.45028  0.26139  0.68855  1.0000
  H   H17       1.0  0.38815  0.73899  0.36211  1.0000
  H   H18       1.0  0.61185  0.26102  0.63789  1.0000
  H   H19       1.0  0.47642  0.77602  0.09070  1.0000
  H   H20       1.0  0.52358  0.22398  0.90930  1.0000
  H   H21       1.0  0.39418  0.91986  0.13412  1.0000
  H   H22       1.0  0.60582  0.08014  0.86589  1.0000
  H   H23       1.0  0.27076  0.69739  0.18066  1.0000
  H   H24       1.0  0.72924  0.30261  0.81934  1.0000
  H   H25       1.0  0.19116  0.86510  0.18452  1.0000
  H   H26       1.0  0.80884  0.13490  0.81548  1.0000
  H   H27       1.0  0.25323  0.58138  0.03608  1.0000
  H   H28       1.0  0.74677  0.41861  0.96392  1.0000
  H   H29       1.0  0.40975  0.59671  0.04728  1.0000
  H   H30       1.0  0.59025  0.40329  0.95272  1.0000
  H   H31       1.0  0.35727  0.60149  0.90365  1.0000
  H   H32       1.0  0.64273  0.39851  0.09635  1.0000
  H   H33       1.0  0.12103  0.12184  0.04564  1.0000
  H   H34       1.0  0.87898  0.87816  0.95436  1.0000
  H   H35       1.0  0.00707  0.35165  0.86464  1.0000
  H   H36       1.0  0.99293  0.64836  0.13536  1.0000
  H   H37       1.0  0.98327  0.36426  0.64881  1.0000
  H   H38       1.0  0.01673  0.63574  0.35119  1.0000
  H   H39       1.0  0.07151  0.14601  0.60567  1.0000
  H   H40       1.0  0.92849  0.85400  0.39433  1.0000
  H   H41       1.0  0.53285  0.04711  0.65255  1.0000
  H   H42       1.0  0.46715  0.95289  0.34745  1.0000
  H   H43       1.0  0.45049  0.88089  0.83136  1.0000
  H   H44       1.0  0.54952  0.11910  0.16865  1.0000
  H   H45       1.0  0.61449  0.64994  0.98216  1.0000
  H   H46       1.0  0.38552  0.35005  0.01784  1.0000
  H   H47       1.0  0.86056  0.59299  0.95362  1.0000
  H   H48       1.0  0.13944  0.40700  0.04638  1.0000
  C   C1        1.0  0.74429  0.53893  0.25095  1.0000
  C   C2        1.0  0.25570  0.46107  0.74905  1.0000
  C   C3        1.0  0.63342  0.48600  0.29867  1.0000
  C   C4        1.0  0.36658  0.51400  0.70133  1.0000
  C   C5        1.0  0.51541  0.34855  0.37294  1.0000
  C   C6        1.0  0.48459  0.65146  0.62706  1.0000
  C   C7        1.0  0.46708  0.23810  0.41522  1.0000
  C   C8        1.0  0.53291  0.76190  0.58478  1.0000
  C   C9        1.0  0.33643  0.26441  0.45646  1.0000
  C   C10       1.0  0.66357  0.73559  0.54354  1.0000
  C   C11       1.0  0.25597  0.39750  0.45603  1.0000
  C   C12       1.0  0.74402  0.60250  0.54398  1.0000
  C   C13       1.0  0.30194  0.50943  0.41344  1.0000
  C   C14       1.0  0.69806  0.49057  0.58657  1.0000
  C   C15       1.0  0.43263  0.48228  0.37110  1.0000
  C   C16       1.0  0.56737  0.51772  0.62890  1.0000
  C   C17       1.0  0.46401  0.71708  0.29429  1.0000
  C   C18       1.0  0.53599  0.28292  0.70571  1.0000
  C   C19       1.0  0.40521  0.81037  0.15696  1.0000
  C   C20       1.0  0.59479  0.18963  0.84304  1.0000
  C   C21       1.0  0.26874  0.80623  0.13758  1.0000
  C   C22       1.0  0.73126  0.19377  0.86242  1.0000
  C   C23       1.0  0.32331  0.63323  0.98285  1.0000
  C   C24       1.0  0.67669  0.36677  0.01715  1.0000
  C   C25       1.0  0.25473  0.78914  0.93017  1.0000
  C   C26       1.0  0.74527  0.21086  0.06983  1.0000
  C   C27       1.0  0.16239  0.00658  0.92474  1.0000
  C   C28       1.0  0.83761  0.99342  0.07526  1.0000
  C   C29       1.0  0.11208  0.12681  0.95071  1.0000
  C   C30       1.0  0.88793  0.87319  0.04929  1.0000
  C   C31       1.0  0.04812  0.25515  0.84820  1.0000
  C   C32       1.0  0.95188  0.74485  0.15180  1.0000
  C   C33       1.0  0.03523  0.26155  0.72553  1.0000
  C   C34       1.0  0.96477  0.73845  0.27447  1.0000
  C   C35       1.0  0.08447  0.14113  0.69986  1.0000
  C   C36       1.0  0.91553  0.85887  0.30014  1.0000
  C   C37       1.0  0.14983  0.01179  0.80192  1.0000
  C   C38       1.0  0.85017  0.98821  0.19808  1.0000
  C   C39       1.0  0.78317  0.02600  0.59116  1.0000
  C   C40       1.0  0.21683  0.97400  0.40884  1.0000
  C   C41       1.0  0.74256  0.91564  0.70110  1.0000
  C   C42       1.0  0.25744  0.08436  0.29890  1.0000
  C   C43       1.0  0.60464  0.94783  0.71932  1.0000
  C   C44       1.0  0.39537  0.05217  0.28069  1.0000
  C   C45       1.0  0.55832  0.85390  0.82033  1.0000
  C   C46       1.0  0.44168  0.14609  0.17967  1.0000
  C   C47       1.0  0.64992  0.72527  0.90442  1.0000
  C   C48       1.0  0.35009  0.27472  0.09558  1.0000
  C   C49       1.0  0.78726  0.69236  0.88837  1.0000
  C   C50       1.0  0.21275  0.30764  0.11163  1.0000
  C   C51       1.0  0.83458  0.78692  0.78728  1.0000
  C   C52       1.0  0.16542  0.21308  0.21271  1.0000
  C   C53       1.0  0.98338  0.74886  0.77780  1.0000
  C   C54       1.0  0.01662  0.25114  0.22219  1.0000
  N   N1        1.0  0.64015  0.35407  0.32775  1.0000
  N   N2        1.0  0.35985  0.64593  0.67224  1.0000
  N   N3        1.0  0.50979  0.56644  0.32301  1.0000
  N   N4        1.0  0.49021  0.43356  0.67699  1.0000
  N   N5        1.0  0.22860  0.86471  0.00296  1.0000
  N   N6        1.0  0.77140  0.13529  0.99704  1.0000
  N   N7        1.0  0.20906  0.87393  0.80869  1.0000
  N   N8        1.0  0.79094  0.12607  0.19131  1.0000
  O   O1        1.0  0.77475  0.02472  0.48048  1.0000
  O   O2        1.0  0.22525  0.97528  0.51952  1.0000
  O   O3        1.0  0.80933  0.11664  0.60885  1.0000
  O   O4        1.0  0.19067  0.88336  0.39115  1.0000
  O   O5        1.0  0.02337  0.81456  0.66670  1.0000
  O   O6        1.0  0.97663  0.18545  0.33329  1.0000
  O   O7        1.0  0.06069  0.65966  0.87413  1.0000
  O   O8        1.0  0.93931  0.34035  0.12587  1.0000
