data_image0
_chemical_formula_structural       Zn2H48C54N8O8
_chemical_formula_sum              "Zn2 H48 C54 N8 O8"
_cell_length_a       10.7596
_cell_length_b       11.1774
_cell_length_c       11.565
_cell_angle_alpha    65.1972
_cell_angle_beta     83.2447
_cell_angle_gamma    67.5175

_space_group_name_H-M_alt    "P 1"
_space_group_IT_number       1

loop_
  _space_group_symop_operation_xyz
  'x, y, z'

loop_
  _atom_site_type_symbol
  _atom_site_label
  _atom_site_symmetry_multiplicity
  _atom_site_fract_x
  _atom_site_fract_y
  _atom_site_fract_z
  _atom_site_occupancy
  Zn  Zn1       1.0  0.19928  0.81930  0.16391  1.0000
  Zn  Zn2       1.0  0.80072  0.18070  0.83609  1.0000
  H   H1        1.0  0.19156  0.51747  0.30519  1.0000
  H   H2        1.0  0.80844  0.48253  0.69481  1.0000
  H   H3        1.0  0.29253  0.34711  0.30652  1.0000
  H   H4        1.0  0.70747  0.65290  0.69348  1.0000
  H   H5        1.0  0.19362  0.48326  0.16802  1.0000
  H   H6        1.0  0.80638  0.51674  0.83198  1.0000
  H   H7        1.0  0.46947  0.86476  0.08139  1.0000
  H   H8        1.0  0.53054  0.13524  0.91861  1.0000
  H   H9        1.0  0.70567  0.81836  0.01013  1.0000
  H   H10       1.0  0.29434  0.18164  0.98988  1.0000
  H   H11       1.0  0.84711  0.58560  0.00928  1.0000
  H   H12       1.0  0.15290  0.41440  0.99072  1.0000
  H   H13       1.0  0.76271  0.38569  0.08658  1.0000
  H   H14       1.0  0.23728  0.61431  0.91342  1.0000
  H   H15       1.0  0.61512  0.25888  0.13814  1.0000
  H   H16       1.0  0.38488  0.74112  0.86186  1.0000
  H   H17       1.0  0.45302  0.25952  0.18762  1.0000
  H   H18       1.0  0.54698  0.74048  0.81238  1.0000
  H   H19       1.0  0.52434  0.22251  0.40874  1.0000
  H   H20       1.0  0.47566  0.77749  0.59126  1.0000
  H   H21       1.0  0.60824  0.07872  0.36492  1.0000
  H   H22       1.0  0.39176  0.92128  0.63508  1.0000
  H   H23       1.0  0.74743  0.41738  0.46257  1.0000
  H   H24       1.0  0.25257  0.58262  0.53743  1.0000
  H   H25       1.0  0.59022  0.40169  0.45518  1.0000
  H   H26       1.0  0.40978  0.59831  0.54482  1.0000
  H   H27       1.0  0.64568  0.39860  0.59637  1.0000
  H   H28       1.0  0.35432  0.60140  0.40363  1.0000
  H   H29       1.0  0.92734  0.85195  0.89365  1.0000
  H   H30       1.0  0.07266  0.14805  0.10635  1.0000
  H   H31       1.0  0.01522  0.63288  0.85018  1.0000
  H   H32       1.0  0.98478  0.36712  0.14982  1.0000
  H   H33       1.0  0.99291  0.64561  0.63420  1.0000
  H   H34       1.0  0.00709  0.35439  0.36580  1.0000
  H   H35       1.0  0.88004  0.87597  0.45372  1.0000
  H   H36       1.0  0.11996  0.12403  0.54628  1.0000
  H   H37       1.0  0.73024  0.30167  0.32037  1.0000
  H   H38       1.0  0.26976  0.69833  0.67963  1.0000
  H   H39       1.0  0.81105  0.13403  0.31526  1.0000
  H   H40       1.0  0.18894  0.86597  0.68474  1.0000
  H   H41       1.0  0.46800  0.95594  0.84535  1.0000
  H   H42       1.0  0.53200  0.04407  0.15465  1.0000
  H   H43       1.0  0.55204  0.12014  0.66756  1.0000
  H   H44       1.0  0.44796  0.87986  0.33244  1.0000
  H   H45       1.0  0.38909  0.35148  0.51645  1.0000
  H   H46       1.0  0.61091  0.64852  0.48355  1.0000
  H   H47       1.0  0.14207  0.41043  0.54339  1.0000
  H   H48       1.0  0.85793  0.58957  0.45660  1.0000
  C   C1        1.0  0.36767  0.51342  0.20036  1.0000
  C   C2        1.0  0.63233  0.48658  0.79964  1.0000
  C   C3        1.0  0.25613  0.46160  0.24849  1.0000
  C   C4        1.0  0.74387  0.53840  0.75151  1.0000
  C   C5        1.0  0.48545  0.65103  0.12537  1.0000
  C   C6        1.0  0.51455  0.34897  0.87463  1.0000
  C   C7        1.0  0.53350  0.76159  0.08298  1.0000
  C   C8        1.0  0.46650  0.23841  0.91702  1.0000
  C   C9        1.0  0.66469  0.73473  0.04240  1.0000
  C   C10       1.0  0.33532  0.26527  0.95760  1.0000
  C   C11       1.0  0.74565  0.60106  0.04330  1.0000
  C   C12       1.0  0.25436  0.39894  0.95671  1.0000
  C   C13       1.0  0.69985  0.48913  0.08591  1.0000
  C   C14       1.0  0.30015  0.51087  0.91409  1.0000
  C   C15       1.0  0.56873  0.51678  0.12786  1.0000
  C   C16       1.0  0.43127  0.48322  0.87214  1.0000
  C   C17       1.0  0.53831  0.28130  0.20541  1.0000
  C   C18       1.0  0.46169  0.71870  0.79459  1.0000
  C   C19       1.0  0.59651  0.18834  0.34264  1.0000
  C   C20       1.0  0.40349  0.81166  0.65736  1.0000
  C   C21       1.0  0.74707  0.20924  0.57020  1.0000
  C   C22       1.0  0.25293  0.79076  0.42980  1.0000
  C   C23       1.0  0.67821  0.36545  0.51774  1.0000
  C   C24       1.0  0.32179  0.63455  0.48226  1.0000
  C   C25       1.0  0.85113  0.98621  0.69754  1.0000
  C   C26       1.0  0.14887  0.01379  0.30246  1.0000
  C   C27       1.0  0.91532  0.85655  0.79946  1.0000
  C   C28       1.0  0.08468  0.14345  0.20055  1.0000
  C   C29       1.0  0.96416  0.73588  0.77360  1.0000
  C   C30       1.0  0.03584  0.26412  0.22639  1.0000
  C   C31       1.0  0.95206  0.74230  0.65083  1.0000
  C   C32       1.0  0.04794  0.25770  0.34917  1.0000
  C   C33       1.0  0.88884  0.87092  0.54863  1.0000
  C   C34       1.0  0.11115  0.12908  0.45137  1.0000
  C   C35       1.0  0.83877  0.99151  0.57479  1.0000
  C   C36       1.0  0.16122  0.00849  0.42521  1.0000
  C   C37       1.0  0.73291  0.19263  0.36260  1.0000
  C   C38       1.0  0.26709  0.80737  0.63740  1.0000
  C   C39       1.0  0.21591  0.97917  0.90488  1.0000
  C   C40       1.0  0.78409  0.02083  0.09512  1.0000
  C   C41       1.0  0.25806  0.08852  0.79578  1.0000
  C   C42       1.0  0.74194  0.91149  0.20422  1.0000
  C   C43       1.0  0.39649  0.05530  0.77847  1.0000
  C   C44       1.0  0.60351  0.94470  0.22153  1.0000
  C   C45       1.0  0.44390  0.14815  0.67807  1.0000
  C   C46       1.0  0.55610  0.85185  0.32193  1.0000
  C   C47       1.0  0.35285  0.27704  0.59390  1.0000
  C   C48       1.0  0.64715  0.72296  0.40610  1.0000
  C   C49       1.0  0.01723  0.25586  0.71863  1.0000
  C   C50       1.0  0.98277  0.74414  0.28136  1.0000
  C   C51       1.0  0.16671  0.21729  0.70929  1.0000
  C   C52       1.0  0.83329  0.78271  0.29071  1.0000
  C   C53       1.0  0.21502  0.31097  0.60896  1.0000
  C   C54       1.0  0.78498  0.68903  0.39103  1.0000
  N   N1        1.0  0.36094  0.64543  0.17075  1.0000
  N   N2        1.0  0.63907  0.35457  0.82925  1.0000
  N   N3        1.0  0.49169  0.43242  0.17664  1.0000
  N   N4        1.0  0.50831  0.56758  0.82336  1.0000
  N   N5        1.0  0.79232  0.12401  0.69121  1.0000
  N   N6        1.0  0.20768  0.87599  0.30879  1.0000
  N   N7        1.0  0.77297  0.13374  0.49709  1.0000
  N   N8        1.0  0.22703  0.86626  0.50291  1.0000
  O   O1        1.0  0.97812  0.19221  0.83032  1.0000
  O   O2        1.0  0.02188  0.80779  0.16968  1.0000
  O   O3        1.0  0.94091  0.34311  0.62147  1.0000
  O   O4        1.0  0.05909  0.65689  0.37853  1.0000
  O   O5        1.0  0.18777  0.89051  0.88526  1.0000
  O   O6        1.0  0.81223  0.10949  0.11474  1.0000
  O   O7        1.0  0.22581  0.97915  0.01558  1.0000
  O   O8        1.0  0.77419  0.02085  0.98442  1.0000
