data_image0
_chemical_formula_structural       Cu2H32C32N4O10
_chemical_formula_sum              "Cu2 H32 C32 N4 O10"
_cell_length_a       7.22813
_cell_length_b       10.6189
_cell_length_c       10.8573
_cell_angle_alpha    94.0393
_cell_angle_beta     106.263
_cell_angle_gamma    102.552

_space_group_name_H-M_alt    "P 1"
_space_group_IT_number       1

loop_
  _space_group_symop_operation_xyz
  'x, y, z'

loop_
  _atom_site_type_symbol
  _atom_site_label
  _atom_site_symmetry_multiplicity
  _atom_site_fract_x
  _atom_site_fract_y
  _atom_site_fract_z
  _atom_site_occupancy
  Cu  Cu1       1.0  0.12978  0.26596  0.69647  1.0000
  Cu  Cu2       1.0  0.87022  0.73405  0.30353  1.0000
  H   H1        1.0  0.88997  0.10956  0.99687  1.0000
  H   H2        1.0  0.11004  0.89044  0.00314  1.0000
  H   H3        1.0  0.63734  0.90714  0.50132  1.0000
  H   H4        1.0  0.36267  0.09285  0.49867  1.0000
  H   H5        1.0  0.26514  0.46434  0.94023  1.0000
  H   H6        1.0  0.73487  0.53566  0.05978  1.0000
  H   H7        1.0  0.41353  0.70563  0.99281  1.0000
  H   H8        1.0  0.58648  0.29437  0.00719  1.0000
  H   H9        1.0  0.37728  0.70730  0.58836  1.0000
  H   H10       1.0  0.62272  0.29271  0.41165  1.0000
  H   H11       1.0  0.28893  0.59078  0.40712  1.0000
  H   H12       1.0  0.71107  0.40922  0.59288  1.0000
  H   H13       1.0  0.04627  0.19601  0.21101  1.0000
  H   H14       1.0  0.95373  0.80400  0.78899  1.0000
  H   H15       1.0  0.02281  0.12594  0.42067  1.0000
  H   H16       1.0  0.97720  0.87406  0.57933  1.0000
  H   H17       1.0  0.54028  0.91136  0.91738  1.0000
  H   H18       1.0  0.45971  0.08865  0.08262  1.0000
  H   H19       1.0  0.37832  0.91934  0.76362  1.0000
  H   H20       1.0  0.62168  0.08066  0.23639  1.0000
  H   H21       1.0  0.61741  0.89574  0.77551  1.0000
  H   H22       1.0  0.38258  0.10426  0.22450  1.0000
  H   H23       1.0  0.24415  0.55482  0.18109  1.0000
  H   H24       1.0  0.75584  0.44518  0.81890  1.0000
  H   H25       1.0  0.05193  0.41542  0.09121  1.0000
  H   H26       1.0  0.94806  0.58458  0.90879  1.0000
  H   H27       1.0  0.30136  0.40617  0.13725  1.0000
  H   H28       1.0  0.69863  0.59384  0.86275  1.0000
  H   H29       1.0  0.53557  0.21132  0.71512  1.0000
  H   H30       1.0  0.46442  0.78867  0.28487  1.0000
  H   H31       1.0  0.39215  0.14949  0.79883  1.0000
  H   H32       1.0  0.60786  0.85051  0.20117  1.0000
  C   C1        1.0  0.11702  0.11332  0.89540  1.0000
  C   C2        1.0  0.88298  0.88668  0.10460  1.0000
  C   C3        1.0  0.99446  0.05661  0.97715  1.0000
  C   C4        1.0  0.00554  0.94340  0.02285  1.0000
  C   C5        1.0  0.59514  0.99710  0.52163  1.0000
  C   C6        1.0  0.40487  0.00289  0.47837  1.0000
  C   C7        1.0  0.75602  0.11253  0.59415  1.0000
  C   C8        1.0  0.24398  0.88746  0.40585  1.0000
  C   C9        1.0  0.29274  0.52328  0.86610  1.0000
  C   C10       1.0  0.70727  0.47672  0.13390  1.0000
  C   C11       1.0  0.37422  0.65743  0.89347  1.0000
  C   C12       1.0  0.62578  0.34257  0.10654  1.0000
  C   C13       1.0  0.40651  0.72716  0.79318  1.0000
  C   C14       1.0  0.59349  0.27284  0.20683  1.0000
  C   C15       1.0  0.35480  0.65681  0.66903  1.0000
  C   C16       1.0  0.64520  0.34319  0.33098  1.0000
  C   C17       1.0  0.27403  0.52280  0.64854  1.0000
  C   C18       1.0  0.72597  0.47720  0.35146  1.0000
  C   C19       1.0  0.21596  0.44029  0.52222  1.0000
  C   C20       1.0  0.78403  0.55971  0.47778  1.0000
  C   C21       1.0  0.23384  0.48692  0.40808  1.0000
  C   C22       1.0  0.76615  0.51308  0.59192  1.0000
  C   C23       1.0  0.17435  0.40070  0.29257  1.0000
  C   C24       1.0  0.82564  0.59930  0.70743  1.0000
  C   C25       1.0  0.09739  0.26854  0.29729  1.0000
  C   C26       1.0  0.90261  0.73146  0.70271  1.0000
  C   C27       1.0  0.08229  0.22798  0.41382  1.0000
  C   C28       1.0  0.91771  0.77202  0.58618  1.0000
  C   C29       1.0  0.49142  0.87110  0.81463  1.0000
  C   C30       1.0  0.50858  0.12890  0.18537  1.0000
  C   C31       1.0  0.19370  0.44836  0.16922  1.0000
  C   C32       1.0  0.80630  0.55164  0.83078  1.0000
  N   N1        1.0  0.24345  0.45776  0.74710  1.0000
  N   N2        1.0  0.75655  0.54225  0.25290  1.0000
  N   N3        1.0  0.14074  0.31207  0.52378  1.0000
  N   N4        1.0  0.85926  0.68793  0.47622  1.0000
  O   O1        1.0  0.09621  0.22650  0.86503  1.0000
  O   O2        1.0  0.90378  0.77350  0.13497  1.0000
  O   O3        1.0  0.45380  0.23088  0.76992  1.0000
  O   O4        1.0  0.54620  0.76911  0.23008  1.0000
  O   O5        1.0  0.22749  0.05044  0.86107  1.0000
  O   O6        1.0  0.77251  0.94957  0.13894  1.0000
  O   O7        1.0  0.93421  0.09750  0.61330  1.0000
  O   O8        1.0  0.06581  0.90249  0.38670  1.0000
  O   O9        1.0  0.71501  0.21611  0.62952  1.0000
  O   O10       1.0  0.28497  0.78387  0.37046  1.0000
