data_image0
_chemical_formula_structural       Cu2B4H64C28S8O8F16
_chemical_formula_sum              "Cu2 B4 H64 C28 S8 O8 F16"
_cell_length_a       7.68254
_cell_length_b       10.9059
_cell_length_c       15.094
_cell_angle_alpha    90
_cell_angle_beta     96.141
_cell_angle_gamma    90

_space_group_name_H-M_alt    "P 1"
_space_group_IT_number       1

loop_
  _space_group_symop_operation_xyz
  'x, y, z'

loop_
  _atom_site_type_symbol
  _atom_site_label
  _atom_site_symmetry_multiplicity
  _atom_site_fract_x
  _atom_site_fract_y
  _atom_site_fract_z
  _atom_site_occupancy
  Cu  Cu1       1.0  0.00000  0.50000  1.00000  1.0000
  Cu  Cu2       1.0  0.50000  0.00001  0.50000  1.0000
  B   B1        1.0  0.76155  0.25021  0.10119  1.0000
  B   B2        1.0  0.73846  0.75022  0.39882  1.0000
  B   B3        1.0  0.23845  0.74978  0.89881  1.0000
  B   B4        1.0  0.26155  0.24979  0.60118  1.0000
  H   H1        1.0  0.99976  0.47790  0.36119  1.0000
  H   H2        1.0  0.50024  0.97790  0.13881  1.0000
  H   H3        1.0  0.00023  0.52210  0.63881  1.0000
  H   H4        1.0  0.49976  0.02210  0.86119  1.0000
  H   H5        1.0  0.21324  0.43682  0.33740  1.0000
  H   H6        1.0  0.28675  0.93682  0.16259  1.0000
  H   H7        1.0  0.78674  0.56318  0.66259  1.0000
  H   H8        1.0  0.71325  0.06318  0.83740  1.0000
  H   H9        1.0  0.02841  0.40272  0.25892  1.0000
  H   H10       1.0  0.47159  0.90272  0.24108  1.0000
  H   H11       1.0  0.97158  0.59727  0.74108  1.0000
  H   H12       1.0  0.52841  0.09728  0.75892  1.0000
  H   H13       1.0  0.16282  0.66485  0.30888  1.0000
  H   H14       1.0  0.33718  0.16485  0.19111  1.0000
  H   H15       1.0  0.83718  0.33514  0.69111  1.0000
  H   H16       1.0  0.66282  0.83515  0.80888  1.0000
  H   H17       1.0  0.96576  0.63160  0.24152  1.0000
  H   H18       1.0  0.53423  0.13160  0.25848  1.0000
  H   H19       1.0  0.03422  0.36840  0.75848  1.0000
  H   H20       1.0  0.46577  0.86840  0.74152  1.0000
  H   H21       1.0  0.46623  0.61839  0.26721  1.0000
  H   H22       1.0  0.03377  0.11839  0.23279  1.0000
  H   H23       1.0  0.53377  0.38161  0.73279  1.0000
  H   H24       1.0  0.96623  0.88160  0.76721  1.0000
  H   H25       1.0  0.42015  0.46167  0.23607  1.0000
  H   H26       1.0  0.07985  0.96167  0.26393  1.0000
  H   H27       1.0  0.57985  0.53833  0.76393  1.0000
  H   H28       1.0  0.92016  0.03833  0.73607  1.0000
  H   H29       1.0  0.50161  0.50660  0.08182  1.0000
  H   H30       1.0  0.99840  0.00659  0.41818  1.0000
  H   H31       1.0  0.49840  0.49340  0.91818  1.0000
  H   H32       1.0  0.00161  0.99340  0.58182  1.0000
  H   H33       1.0  0.67722  0.52139  0.16544  1.0000
  H   H34       1.0  0.82278  0.02139  0.33456  1.0000
  H   H35       1.0  0.32278  0.47861  0.83456  1.0000
  H   H36       1.0  0.17723  0.97861  0.66544  1.0000
  H   H37       1.0  0.45893  0.73969  0.08333  1.0000
  H   H38       1.0  0.04107  0.23968  0.41668  1.0000
  H   H39       1.0  0.54107  0.26031  0.91667  1.0000
  H   H40       1.0  0.95893  0.76032  0.58332  1.0000
  H   H41       1.0  0.64701  0.74914  0.16558  1.0000
  H   H42       1.0  0.85300  0.24914  0.33442  1.0000
  H   H43       1.0  0.35300  0.25086  0.83442  1.0000
  H   H44       1.0  0.14700  0.75086  0.66558  1.0000
  H   H45       1.0  0.64118  0.90635  0.01147  1.0000
  H   H46       1.0  0.85881  0.40635  0.48853  1.0000
  H   H47       1.0  0.35882  0.09365  0.98854  1.0000
  H   H48       1.0  0.14119  0.59366  0.51147  1.0000
  H   H49       1.0  0.82526  0.86948  0.95358  1.0000
  H   H50       1.0  0.67474  0.36949  0.54641  1.0000
  H   H51       1.0  0.17475  0.13052  0.04642  1.0000
  H   H52       1.0  0.32527  0.63052  0.45359  1.0000
  H   H53       1.0  0.92090  0.99690  0.08792  1.0000
  H   H54       1.0  0.57909  0.49690  0.41208  1.0000
  H   H55       1.0  0.07910  0.00310  0.91209  1.0000
  H   H56       1.0  0.42090  0.50310  0.58792  1.0000
  H   H57       1.0  0.84180  0.88544  0.15903  1.0000
  H   H58       1.0  0.65820  0.38544  0.34097  1.0000
  H   H59       1.0  0.15820  0.11456  0.84097  1.0000
  H   H60       1.0  0.34180  0.61456  0.65903  1.0000
  H   H61       1.0  0.01765  0.84734  0.09597  1.0000
  H   H62       1.0  0.48234  0.34734  0.40403  1.0000
  H   H63       1.0  0.98234  0.15266  0.90403  1.0000
  H   H64       1.0  0.51766  0.65266  0.59597  1.0000
  C   C1        1.0  0.08527  0.47014  0.30772  1.0000
  C   C2        1.0  0.41473  0.97014  0.19227  1.0000
  C   C3        1.0  0.91472  0.52985  0.69227  1.0000
  C   C4        1.0  0.58528  0.02985  0.80773  1.0000
  C   C5        1.0  0.09601  0.59526  0.26460  1.0000
  C   C6        1.0  0.40399  0.09526  0.23540  1.0000
  C   C7        1.0  0.90398  0.40474  0.73540  1.0000
  C   C8        1.0  0.59601  0.90474  0.76460  1.0000
  C   C9        1.0  0.42819  0.55587  0.21120  1.0000
  C   C10       1.0  0.07181  0.05587  0.28880  1.0000
  C   C11       1.0  0.57181  0.44413  0.78880  1.0000
  C   C12       1.0  0.92819  0.94413  0.71120  1.0000
  C   C13       1.0  0.55233  0.56319  0.13908  1.0000
  C   C14       1.0  0.94767  0.06318  0.36092  1.0000
  C   C15       1.0  0.44767  0.43681  0.86092  1.0000
  C   C16       1.0  0.05233  0.93682  0.63908  1.0000
  C   C17       1.0  0.58141  0.69496  0.11053  1.0000
  C   C18       1.0  0.91859  0.19496  0.38947  1.0000
  C   C19       1.0  0.41859  0.30504  0.88947  1.0000
  C   C20       1.0  0.08141  0.80504  0.61053  1.0000
  C   C21       1.0  0.76764  0.85847  0.01655  1.0000
  C   C22       1.0  0.73235  0.35847  0.48345  1.0000
  C   C23       1.0  0.23236  0.14153  0.98346  1.0000
  C   C24       1.0  0.26765  0.64153  0.51655  1.0000
  C   C25       1.0  0.89471  0.89876  0.09498  1.0000
  C   C26       1.0  0.60529  0.39876  0.40501  1.0000
  C   C27       1.0  0.10529  0.10124  0.90502  1.0000
  C   C28       1.0  0.39471  0.60124  0.59498  1.0000
  S   S1        1.0  0.20961  0.59792  0.16549  1.0000
  S   S2        1.0  0.29039  0.09792  0.33451  1.0000
  S   S3        1.0  0.79038  0.40208  0.83451  1.0000
  S   S4        1.0  0.70962  0.90209  0.66549  1.0000
  S   S5        1.0  0.71343  0.69651  0.01860  1.0000
  S   S6        1.0  0.78657  0.19651  0.48140  1.0000
  S   S7        1.0  0.28657  0.30349  0.98140  1.0000
  S   S8        1.0  0.21344  0.80349  0.51860  1.0000
  O   O1        1.0  0.15123  0.48120  0.11210  1.0000
  O   O2        1.0  0.34877  0.98121  0.38790  1.0000
  O   O3        1.0  0.84878  0.51879  0.88789  1.0000
  O   O4        1.0  0.65123  0.01880  0.61210  1.0000
  O   O5        1.0  0.88585  0.63456  0.05775  1.0000
  O   O6        1.0  0.61415  0.13456  0.44224  1.0000
  O   O7        1.0  0.11415  0.36544  0.94224  1.0000
  O   O8        1.0  0.38585  0.86545  0.55776  1.0000
  F   F1        1.0  0.65012  0.15443  0.06512  1.0000
  F   F2        1.0  0.84988  0.65443  0.43488  1.0000
  F   F3        1.0  0.34988  0.84557  0.93488  1.0000
  F   F4        1.0  0.15012  0.34558  0.56512  1.0000
  F   F5        1.0  0.71241  0.28609  0.18539  1.0000
  F   F6        1.0  0.78760  0.78609  0.31462  1.0000
  F   F7        1.0  0.28758  0.71391  0.81461  1.0000
  F   F8        1.0  0.21240  0.21392  0.68539  1.0000
  F   F9        1.0  0.93794  0.20872  0.11199  1.0000
  F   F10       1.0  0.56207  0.70872  0.38802  1.0000
  F   F11       1.0  0.06206  0.79127  0.88801  1.0000
  F   F12       1.0  0.43794  0.29128  0.61199  1.0000
  F   F13       1.0  0.74636  0.35121  0.04152  1.0000
  F   F14       1.0  0.75364  0.85122  0.45848  1.0000
  F   F15       1.0  0.25365  0.64878  0.95848  1.0000
  F   F16       1.0  0.24635  0.14878  0.54152  1.0000
