data_image0
_chemical_formula_structural       Cd2H16C20N6Cl2O4
_chemical_formula_sum              "Cd2 H16 C20 N6 Cl2 O4"
_cell_length_a       8.08929
_cell_length_b       8.39807
_cell_length_c       8.98398
_cell_angle_alpha    87.2868
_cell_angle_beta     75.2041
_cell_angle_gamma    71.7167

_space_group_name_H-M_alt    "P 1"
_space_group_IT_number       1

loop_
  _space_group_symop_operation_xyz
  'x, y, z'

loop_
  _atom_site_type_symbol
  _atom_site_label
  _atom_site_symmetry_multiplicity
  _atom_site_fract_x
  _atom_site_fract_y
  _atom_site_fract_z
  _atom_site_occupancy
  Cd  Cd1       1.0  0.44352  0.69790  0.62695  1.0000
  Cd  Cd2       1.0  0.55648  0.30210  0.37305  1.0000
  H   H1        1.0  0.12795  0.59702  0.88654  1.0000
  H   H2        1.0  0.87206  0.40297  0.11345  1.0000
  H   H3        1.0  0.01632  0.58971  0.17506  1.0000
  H   H4        1.0  0.98369  0.41028  0.82493  1.0000
  H   H5        1.0  0.19235  0.66426  0.33960  1.0000
  H   H6        1.0  0.80765  0.33574  0.66040  1.0000
  H   H7        1.0  0.45675  0.75534  0.21531  1.0000
  H   H8        1.0  0.54325  0.24466  0.78468  1.0000
  H   H9        1.0  0.70954  0.84751  0.07825  1.0000
  H   H10       1.0  0.29045  0.15248  0.92176  1.0000
  H   H11       1.0  0.94147  0.90939  0.81182  1.0000
  H   H12       1.0  0.05853  0.09061  0.18818  1.0000
  H   H13       1.0  0.85801  0.73452  0.47846  1.0000
  H   H14       1.0  0.14199  0.26549  0.52154  1.0000
  H   H15       1.0  0.99344  0.84086  0.53244  1.0000
  H   H16       1.0  0.00655  0.15916  0.46756  1.0000
  C   C1        1.0  0.19536  0.63223  0.96432  1.0000
  C   C2        1.0  0.80464  0.36776  0.03567  1.0000
  C   C3        1.0  0.13498  0.62766  0.12358  1.0000
  C   C4        1.0  0.86503  0.37233  0.87641  1.0000
  C   C5        1.0  0.23133  0.67104  0.21479  1.0000
  C   C6        1.0  0.76868  0.32895  0.78520  1.0000
  C   C7        1.0  0.38180  0.71926  0.14522  1.0000
  C   C8        1.0  0.61819  0.28074  0.85478  1.0000
  C   C9        1.0  0.43262  0.72333  0.98449  1.0000
  C   C10       1.0  0.56738  0.27667  0.01550  1.0000
  C   C11       1.0  0.58693  0.77573  0.90349  1.0000
  C   C12       1.0  0.41308  0.22427  0.09651  1.0000
  C   C13       1.0  0.70839  0.83123  0.95951  1.0000
  C   C14       1.0  0.29161  0.16877  0.04049  1.0000
  C   C15       1.0  0.82705  0.86297  0.82874  1.0000
  C   C16       1.0  0.17295  0.13703  0.17127  1.0000
  C   C17       1.0  0.85460  0.84347  0.54368  1.0000
  C   C18       1.0  0.14539  0.15654  0.45633  1.0000
  C   C19       1.0  0.75586  0.00340  0.47331  1.0000
  C   C20       1.0  0.24412  0.99662  0.52671  1.0000
  N   N1        1.0  0.34022  0.67871  0.89631  1.0000
  N   N2        1.0  0.65978  0.32128  0.10369  1.0000
  N   N3        1.0  0.63065  0.77393  0.74836  1.0000
  N   N4        1.0  0.36935  0.22607  0.25164  1.0000
  N   N5        1.0  0.77622  0.82602  0.70490  1.0000
  N   N6        1.0  0.22378  0.17399  0.29510  1.0000
  Cl  Cl1       1.0  0.27136  0.49738  0.58014  1.0000
  Cl  Cl2       1.0  0.72864  0.50262  0.41986  1.0000
  O   O1        1.0  0.61214  0.10415  0.55665  1.0000
  O   O2        1.0  0.38783  0.89585  0.44336  1.0000
  O   O3        1.0  0.82584  0.02639  0.33460  1.0000
  O   O4        1.0  0.17414  0.97364  0.66542  1.0000
