data_image0
_chemical_formula_structural       Mn2H16C20N6Cl2O4
_chemical_formula_sum              "Mn2 H16 C20 N6 Cl2 O4"
_cell_length_a       7.88419
_cell_length_b       8.4841
_cell_length_c       8.99781
_cell_angle_alpha    91.1344
_cell_angle_beta     103.728
_cell_angle_gamma    109.636

_space_group_name_H-M_alt    "P 1"
_space_group_IT_number       1

loop_
  _space_group_symop_operation_xyz
  'x, y, z'

loop_
  _atom_site_type_symbol
  _atom_site_label
  _atom_site_symmetry_multiplicity
  _atom_site_fract_x
  _atom_site_fract_y
  _atom_site_fract_z
  _atom_site_occupancy
  Mn  Mn1       1.0  0.44259  0.30299  0.38022  1.0000
  Mn  Mn2       1.0  0.55740  0.69700  0.61978  1.0000
  H   H1        1.0  0.94430  0.08788  0.20943  1.0000
  H   H2        1.0  0.05570  0.91212  0.79056  1.0000
  H   H3        1.0  0.72608  0.15238  0.94385  1.0000
  H   H4        1.0  0.27393  0.84765  0.05615  1.0000
  H   H5        1.0  0.46420  0.24069  0.80434  1.0000
  H   H6        1.0  0.53581  0.75933  0.19566  1.0000
  H   H7        1.0  0.20297  0.33644  0.68781  1.0000
  H   H8        1.0  0.79703  0.66358  0.31220  1.0000
  H   H9        1.0  0.02350  0.41176  0.85745  1.0000
  H   H10       1.0  0.97651  0.58825  0.14256  1.0000
  H   H11       1.0  0.13146  0.40414  0.14323  1.0000
  H   H12       1.0  0.86854  0.59586  0.85677  1.0000
  H   H13       1.0  0.82974  0.25056  0.54452  1.0000
  H   H14       1.0  0.17025  0.74942  0.45547  1.0000
  H   H15       1.0  0.98409  0.16256  0.49116  1.0000
  H   H16       1.0  0.01590  0.83742  0.50883  1.0000
  C   C1        1.0  0.82706  0.13171  0.19180  1.0000
  C   C2        1.0  0.17293  0.86829  0.80819  1.0000
  C   C3        1.0  0.71583  0.16571  0.06120  1.0000
  C   C4        1.0  0.28417  0.83430  0.93880  1.0000
  C   C5        1.0  0.58753  0.21884  0.11504  1.0000
  C   C6        1.0  0.41247  0.78117  0.88496  1.0000
  C   C7        1.0  0.43657  0.27379  0.03629  1.0000
  C   C8        1.0  0.56343  0.72622  0.96372  1.0000
  C   C9        1.0  0.38875  0.27832  0.87700  1.0000
  C   C10       1.0  0.61125  0.72169  0.12299  1.0000
  C   C11       1.0  0.23959  0.32885  0.81133  1.0000
  C   C12       1.0  0.76042  0.67117  0.18868  1.0000
  C   C13       1.0  0.14181  0.37297  0.90549  1.0000
  C   C14       1.0  0.85820  0.62704  0.09452  1.0000
  C   C15       1.0  0.19988  0.36814  0.06338  1.0000
  C   C16       1.0  0.80013  0.63187  0.93663  1.0000
  C   C17       1.0  0.83678  0.14709  0.47357  1.0000
  C   C18       1.0  0.16322  0.85290  0.52642  1.0000
  C   C19       1.0  0.73569  0.98083  0.52857  1.0000
  C   C20       1.0  0.26431  0.01915  0.47142  1.0000
  N   N1        1.0  0.76534  0.16458  0.31358  1.0000
  N   N2        1.0  0.23466  0.83541  0.68642  1.0000
  N   N3        1.0  0.61956  0.21699  0.26917  1.0000
  N   N4        1.0  0.38044  0.78300  0.73083  1.0000
  N   N5        1.0  0.34397  0.32035  0.12834  1.0000
  N   N6        1.0  0.65604  0.67966  0.87167  1.0000
  Cl  Cl1       1.0  0.73180  0.52118  0.55443  1.0000
  Cl  Cl2       1.0  0.26819  0.47880  0.44558  1.0000
  O   O1        1.0  0.58954  0.87282  0.44069  1.0000
  O   O2        1.0  0.41046  0.12716  0.55931  1.0000
  O   O3        1.0  0.80577  0.95699  0.66490  1.0000
  O   O4        1.0  0.19422  0.04300  0.33510  1.0000
