data_image0
_chemical_formula_structural       Cu4H16C24N20
_chemical_formula_sum              "Cu4 H16 C24 N20"
_cell_length_a       3.63087
_cell_length_b       13.0913
_cell_length_c       17.5158
_cell_angle_alpha    90.001
_cell_angle_beta     90.0013
_cell_angle_gamma    91.0694

_space_group_name_H-M_alt    "P 1"
_space_group_IT_number       1

loop_
  _space_group_symop_operation_xyz
  'x, y, z'

loop_
  _atom_site_type_symbol
  _atom_site_label
  _atom_site_symmetry_multiplicity
  _atom_site_fract_x
  _atom_site_fract_y
  _atom_site_fract_z
  _atom_site_occupancy
  Cu  Cu1       1.0  0.63845  0.40349  0.56178  1.0000
  Cu  Cu2       1.0  0.36156  0.09651  0.06178  1.0000
  Cu  Cu3       1.0  0.36156  0.59651  0.43822  1.0000
  Cu  Cu4       1.0  0.63844  0.90349  0.93822  1.0000
  H   H1        1.0  0.92433  0.19464  0.58197  1.0000
  H   H2        1.0  0.07568  0.30536  0.08197  1.0000
  H   H3        1.0  0.07567  0.80536  0.41803  1.0000
  H   H4        1.0  0.92431  0.69464  0.91803  1.0000
  H   H5        1.0  0.67682  0.43740  0.72357  1.0000
  H   H6        1.0  0.32318  0.06260  0.22357  1.0000
  H   H7        1.0  0.32318  0.56260  0.27643  1.0000
  H   H8        1.0  0.67682  0.93740  0.77643  1.0000
  H   H9        1.0  0.88192  0.34194  0.83973  1.0000
  H   H10       1.0  0.11808  0.15805  0.33972  1.0000
  H   H11       1.0  0.11808  0.65806  0.16028  1.0000
  H   H12       1.0  0.88193  0.84195  0.66028  1.0000
  H   H13       1.0  0.13071  0.08867  0.69256  1.0000
  H   H14       1.0  0.86929  0.41133  0.19256  1.0000
  H   H15       1.0  0.86929  0.91133  0.30744  1.0000
  H   H16       1.0  0.13071  0.58867  0.80744  1.0000
  C   C1        1.0  0.91731  0.22421  0.64017  1.0000
  C   C2        1.0  0.08269  0.27579  0.14017  1.0000
  C   C3        1.0  0.08269  0.77580  0.35983  1.0000
  C   C4        1.0  0.91730  0.72421  0.85983  1.0000
  C   C5        1.0  0.78358  0.36036  0.71937  1.0000
  C   C6        1.0  0.21642  0.13964  0.21937  1.0000
  C   C7        1.0  0.21642  0.63964  0.28063  1.0000
  C   C8        1.0  0.78358  0.86037  0.78063  1.0000
  C   C9        1.0  0.89644  0.30715  0.78338  1.0000
  C   C10       1.0  0.10355  0.19285  0.28337  1.0000
  C   C11       1.0  0.10355  0.69285  0.21663  1.0000
  C   C12       1.0  0.89645  0.80715  0.71662  1.0000
  C   C13       1.0  0.02665  0.20761  0.77525  1.0000
  C   C14       1.0  0.97334  0.29238  0.27525  1.0000
  C   C15       1.0  0.97334  0.79239  0.22475  1.0000
  C   C16       1.0  0.02666  0.70761  0.72475  1.0000
  C   C17       1.0  0.03260  0.16585  0.70140  1.0000
  C   C18       1.0  0.96740  0.33415  0.20140  1.0000
  C   C19       1.0  0.96740  0.83415  0.29860  1.0000
  C   C20       1.0  0.03259  0.66586  0.79860  1.0000
  C   C21       1.0  0.15262  0.14949  0.84056  1.0000
  C   C22       1.0  0.84737  0.35050  0.34056  1.0000
  C   C23       1.0  0.84738  0.85051  0.15944  1.0000
  C   C24       1.0  0.15263  0.64950  0.65944  1.0000
  N   N1        1.0  0.37083  0.02832  0.90612  1.0000
  N   N2        1.0  0.62917  0.47168  0.40612  1.0000
  N   N3        1.0  0.62916  0.97168  0.09388  1.0000
  N   N4        1.0  0.37083  0.52832  0.59388  1.0000
  N   N5        1.0  0.28911  0.05454  0.83501  1.0000
  N   N6        1.0  0.71089  0.44546  0.33501  1.0000
  N   N7        1.0  0.71089  0.94546  0.16499  1.0000
  N   N8        1.0  0.28911  0.55454  0.66499  1.0000
  N   N9        1.0  0.14930  0.18279  0.91361  1.0000
  N   N10       1.0  0.85070  0.31721  0.41361  1.0000
  N   N11       1.0  0.85070  0.81721  0.08639  1.0000
  N   N12       1.0  0.14930  0.68279  0.58639  1.0000
  N   N13       1.0  0.28587  0.10610  0.95366  1.0000
  N   N14       1.0  0.71413  0.39390  0.45366  1.0000
  N   N15       1.0  0.71413  0.89390  0.04634  1.0000
  N   N16       1.0  0.28587  0.60610  0.54634  1.0000
  N   N17       1.0  0.79376  0.32061  0.64802  1.0000
  N   N18       1.0  0.20624  0.17939  0.14802  1.0000
  N   N19       1.0  0.20624  0.67939  0.35198  1.0000
  N   N20       1.0  0.79376  0.82061  0.85198  1.0000
