data_image0
_chemical_formula_structural       Cu4H10C12I4N10
_chemical_formula_sum              "Cu4 H10 C12 I4 N10"
_cell_length_a       4.11491
_cell_length_b       9.54403
_cell_length_c       13.5791
_cell_angle_alpha    88.5798
_cell_angle_beta     83.0574
_cell_angle_gamma    77.63

_space_group_name_H-M_alt    "P 1"
_space_group_IT_number       1

loop_
  _space_group_symop_operation_xyz
  'x, y, z'

loop_
  _atom_site_type_symbol
  _atom_site_label
  _atom_site_symmetry_multiplicity
  _atom_site_fract_x
  _atom_site_fract_y
  _atom_site_fract_z
  _atom_site_occupancy
  Cu  Cu1       1.0  0.90874  0.98531  0.63776  1.0000
  Cu  Cu2       1.0  0.89497  0.01480  0.13802  1.0000
  Cu  Cu3       1.0  0.35784  0.03385  0.93555  1.0000
  Cu  Cu4       1.0  0.39019  0.96595  0.43541  1.0000
  H   H1        1.0  0.68807  0.75947  0.31157  1.0000
  H   H2        1.0  0.44951  0.23998  0.81158  1.0000
  H   H3        1.0  0.14915  0.63728  0.18613  1.0000
  H   H4        1.0  0.78945  0.36237  0.68647  1.0000
  H   H5        1.0  0.84788  0.36868  0.48615  1.0000
  H   H6        1.0  0.21469  0.63173  0.98600  1.0000
  H   H7        1.0  0.31350  0.26401  0.35515  1.0000
  H   H8        1.0  0.57666  0.73652  0.85539  1.0000
  H   H9        1.0  0.43798  0.40069  0.21439  1.0000
  H   H10       1.0  0.84008  0.59943  0.71482  1.0000
  C   C1        1.0  0.47546  0.64039  0.48883  1.0000
  C   C2        1.0  0.11596  0.35948  0.98868  1.0000
  C   C3        1.0  0.73338  0.57464  0.41107  1.0000
  C   C4        1.0  0.30820  0.42530  0.91098  1.0000
  C   C5        1.0  0.81903  0.64993  0.32453  1.0000
  C   C6        1.0  0.47001  0.34982  0.82452  1.0000
  C   C7        1.0  0.07261  0.58394  0.25405  1.0000
  C   C8        1.0  0.65873  0.41580  0.75434  1.0000
  C   C9        1.0  0.90698  0.43203  0.42137  1.0000
  C   C10       1.0  0.33855  0.56815  0.92139  1.0000
  C   C11       1.0  0.16221  0.37195  0.34943  1.0000
  C   C12       1.0  0.53369  0.62841  0.84955  1.0000
  I   I1        1.0  0.92681  0.95838  0.83007  1.0000
  I   I2        1.0  0.88427  0.04182  0.33028  1.0000
  I   I3        1.0  0.36353  0.14465  0.59093  1.0000
  I   I4        1.0  0.50783  0.85545  0.09091  1.0000
  N   N1        1.0  0.34190  0.78274  0.49969  1.0000
  N   N2        1.0  0.12584  0.21705  0.99986  1.0000
  N   N3        1.0  0.11732  0.79385  0.58116  1.0000
  N   N4        1.0  0.91181  0.20602  0.08117  1.0000
  N   N5        1.0  0.11491  0.66272  0.61784  1.0000
  N   N6        1.0  0.77661  0.33731  0.11747  1.0000
  N   N7        1.0  0.33669  0.56576  0.56223  1.0000
  N   N8        1.0  0.90106  0.43428  0.06175  1.0000
  N   N9        1.0  0.24073  0.44838  0.26829  1.0000
  N   N10       1.0  0.69026  0.55167  0.76860  1.0000
