data_image0
_chemical_formula_structural       Ba2H28C32O16
_chemical_formula_sum              "Ba2 H28 C32 O16"
_cell_length_a       8.36557
_cell_length_b       10.5866
_cell_length_c       10.5867
_cell_angle_alpha    66.7297
_cell_angle_beta     83.2404
_cell_angle_gamma    83.2414

_space_group_name_H-M_alt    "P 1"
_space_group_IT_number       1

loop_
  _space_group_symop_operation_xyz
  'x, y, z'

loop_
  _atom_site_type_symbol
  _atom_site_label
  _atom_site_symmetry_multiplicity
  _atom_site_fract_x
  _atom_site_fract_y
  _atom_site_fract_z
  _atom_site_occupancy
  Ba  Ba1       1.0  0.75000  0.93054  0.06946  1.0000
  Ba  Ba2       1.0  0.25000  0.06946  0.93054  1.0000
  H   H1        1.0  0.45956  0.35466  0.70812  1.0000
  H   H2        1.0  0.04045  0.29187  0.64533  1.0000
  H   H3        1.0  0.54044  0.64535  0.29187  1.0000
  H   H4        1.0  0.95956  0.70812  0.35467  1.0000
  H   H5        1.0  0.39997  0.60020  0.55287  1.0000
  H   H6        1.0  0.10003  0.44713  0.39979  1.0000
  H   H7        1.0  0.60001  0.39981  0.44713  1.0000
  H   H8        1.0  0.89999  0.55286  0.60021  1.0000
  H   H9        1.0  0.49114  0.78899  0.60478  1.0000
  H   H10       1.0  0.00885  0.39522  0.21101  1.0000
  H   H11       1.0  0.50884  0.21101  0.39523  1.0000
  H   H12       1.0  0.99115  0.60478  0.78900  1.0000
  H   H13       1.0  0.64636  0.73128  0.81038  1.0000
  H   H14       1.0  0.85363  0.18962  0.26872  1.0000
  H   H15       1.0  0.35364  0.26871  0.18963  1.0000
  H   H16       1.0  0.14637  0.81038  0.73129  1.0000
  H   H17       1.0  0.71907  0.38618  0.08181  1.0000
  H   H18       1.0  0.78094  0.91819  0.61383  1.0000
  H   H19       1.0  0.28093  0.61382  0.91819  1.0000
  H   H20       1.0  0.21908  0.08181  0.38617  1.0000
  H   H21       1.0  0.91012  0.62857  0.10384  1.0000
  H   H22       1.0  0.58987  0.89616  0.37143  1.0000
  H   H23       1.0  0.08987  0.37143  0.89616  1.0000
  H   H24       1.0  0.41013  0.10384  0.62857  1.0000
  H   H25       1.0  0.05801  0.71237  0.09996  1.0000
  H   H26       1.0  0.44199  0.90005  0.28762  1.0000
  H   H27       1.0  0.94198  0.28762  0.90004  1.0000
  H   H28       1.0  0.55802  0.09995  0.71238  1.0000
  C   C1        1.0  0.62422  0.25591  0.93674  1.0000
  C   C2        1.0  0.87577  0.06327  0.74409  1.0000
  C   C3        1.0  0.37577  0.74410  0.06325  1.0000
  C   C4        1.0  0.12423  0.93673  0.25591  1.0000
  C   C5        1.0  0.58771  0.40483  0.84539  1.0000
  C   C6        1.0  0.91227  0.15462  0.59516  1.0000
  C   C7        1.0  0.41229  0.59517  0.15460  1.0000
  C   C8        1.0  0.08773  0.84539  0.40484  1.0000
  C   C9        1.0  0.49989  0.43770  0.73022  1.0000
  C   C10       1.0  0.00012  0.26978  0.56229  1.0000
  C   C11       1.0  0.50011  0.56230  0.26977  1.0000
  C   C12       1.0  0.99990  0.73022  0.43771  1.0000
  C   C13       1.0  0.46784  0.57520  0.64271  1.0000
  C   C14       1.0  0.03215  0.35729  0.42479  1.0000
  C   C15       1.0  0.53215  0.42480  0.35729  1.0000
  C   C16       1.0  0.96786  0.64270  0.57521  1.0000
  C   C17       1.0  0.52027  0.68171  0.67052  1.0000
  C   C18       1.0  0.97972  0.32948  0.31829  1.0000
  C   C19       1.0  0.47972  0.31829  0.32948  1.0000
  C   C20       1.0  0.02028  0.67052  0.68171  1.0000
  C   C21       1.0  0.60771  0.65021  0.78437  1.0000
  C   C22       1.0  0.89227  0.21563  0.34979  1.0000
  C   C23       1.0  0.39229  0.34979  0.21563  1.0000
  C   C24       1.0  0.10773  0.78437  0.65022  1.0000
  C   C25       1.0  0.64374  0.51220  0.87179  1.0000
  C   C26       1.0  0.85625  0.12821  0.48780  1.0000
  C   C27       1.0  0.35627  0.48780  0.12820  1.0000
  C   C28       1.0  0.14375  0.87179  0.51220  1.0000
  C   C29       1.0  0.73160  0.48589  0.99348  1.0000
  C   C30       1.0  0.76839  0.00652  0.51412  1.0000
  C   C31       1.0  0.26840  0.51411  0.00652  1.0000
  C   C32       1.0  0.23161  0.99348  0.48589  1.0000
  O   O1        1.0  0.51445  0.17327  0.96595  1.0000
  O   O2        1.0  0.98555  0.03406  0.82672  1.0000
  O   O3        1.0  0.48555  0.82674  0.03404  1.0000
  O   O4        1.0  0.01444  0.96595  0.17329  1.0000
  O   O5        1.0  0.76512  0.21835  0.98052  1.0000
  O   O6        1.0  0.73487  0.01948  0.78165  1.0000
  O   O7        1.0  0.23488  0.78165  0.01948  1.0000
  O   O8        1.0  0.26513  0.98052  0.21835  1.0000
  O   O9        1.0  0.81460  0.57250  0.99884  1.0000
  O   O10       1.0  0.68538  0.00115  0.42752  1.0000
  O   O11       1.0  0.18540  0.42750  0.00116  1.0000
  O   O12       1.0  0.31462  0.99885  0.57249  1.0000
  O   O13       1.0  0.94738  0.68880  0.14372  1.0000
  O   O14       1.0  0.55262  0.85629  0.31119  1.0000
  O   O15       1.0  0.05261  0.31120  0.85628  1.0000
  O   O16       1.0  0.44739  0.14372  0.68881  1.0000
