data_image0
_chemical_formula_structural       Cu2H16C24N20
_chemical_formula_sum              "Cu2 H16 C24 N20"
_cell_length_a       7.14982
_cell_length_b       9.54573
_cell_length_c       9.54573
_cell_angle_alpha    72.0952
_cell_angle_beta     86.7192
_cell_angle_gamma    86.7191

_space_group_name_H-M_alt    "P 1"
_space_group_IT_number       1

loop_
  _space_group_symop_operation_xyz
  'x, y, z'

loop_
  _atom_site_type_symbol
  _atom_site_label
  _atom_site_symmetry_multiplicity
  _atom_site_fract_x
  _atom_site_fract_y
  _atom_site_fract_z
  _atom_site_occupancy
  Cu  Cu1       1.0  0.25000  0.88712  0.11288  1.0000
  Cu  Cu2       1.0  0.75000  0.11288  0.88712  1.0000
  H   H1        1.0  0.52991  0.70183  0.71574  1.0000
  H   H2        1.0  0.97008  0.28426  0.29816  1.0000
  H   H3        1.0  0.47009  0.29816  0.28426  1.0000
  H   H4        1.0  0.02991  0.71574  0.70184  1.0000
  H   H5        1.0  0.65549  0.58688  0.52446  1.0000
  H   H6        1.0  0.84450  0.47554  0.41311  1.0000
  H   H7        1.0  0.34450  0.41312  0.47554  1.0000
  H   H8        1.0  0.15550  0.52446  0.58687  1.0000
  H   H9        1.0  0.17349  0.98815  0.38811  1.0000
  H   H10       1.0  0.32651  0.61189  0.01185  1.0000
  H   H11       1.0  0.82651  0.01185  0.61189  1.0000
  H   H12       1.0  0.67350  0.38811  0.98815  1.0000
  H   H13       1.0  0.52168  0.67436  0.27344  1.0000
  H   H14       1.0  0.97831  0.72656  0.32564  1.0000
  H   H15       1.0  0.47831  0.32565  0.72656  1.0000
  H   H16       1.0  0.02169  0.27344  0.67435  1.0000
  C   C1        1.0  0.26537  0.91312  0.68406  1.0000
  C   C2        1.0  0.23463  0.31594  0.08688  1.0000
  C   C3        1.0  0.73463  0.08688  0.31595  1.0000
  C   C4        1.0  0.76537  0.68406  0.91312  1.0000
  C   C5        1.0  0.34192  0.85325  0.56810  1.0000
  C   C6        1.0  0.15808  0.43190  0.14675  1.0000
  C   C7        1.0  0.65808  0.14675  0.43190  1.0000
  C   C8        1.0  0.84192  0.56810  0.85325  1.0000
  C   C9        1.0  0.47965  0.73878  0.60452  1.0000
  C   C10       1.0  0.02035  0.39548  0.26122  1.0000
  C   C11       1.0  0.52035  0.26122  0.39548  1.0000
  C   C12       1.0  0.97965  0.60453  0.73878  1.0000
  C   C13       1.0  0.54755  0.67485  0.49867  1.0000
  C   C14       1.0  0.95245  0.50133  0.32514  1.0000
  C   C15       1.0  0.45245  0.32515  0.50134  1.0000
  C   C16       1.0  0.04755  0.49866  0.67485  1.0000
  C   C17       1.0  0.27908  0.89936  0.42389  1.0000
  C   C18       1.0  0.22092  0.57611  0.10064  1.0000
  C   C19       1.0  0.72091  0.10064  0.57612  1.0000
  C   C20       1.0  0.77909  0.42388  0.89936  1.0000
  C   C21       1.0  0.47486  0.72313  0.35916  1.0000
  C   C22       1.0  0.02514  0.64084  0.27686  1.0000
  C   C23       1.0  0.52514  0.27686  0.64084  1.0000
  C   C24       1.0  0.97485  0.35916  0.72313  1.0000
  N   N1        1.0  0.11338  0.03770  0.80848  1.0000
  N   N2        1.0  0.38663  0.19152  0.96230  1.0000
  N   N3        1.0  0.88663  0.96230  0.19152  1.0000
  N   N4        1.0  0.61338  0.80848  0.03770  1.0000
  N   N5        1.0  0.20853  0.92523  0.89927  1.0000
  N   N6        1.0  0.29147  0.10073  0.07477  1.0000
  N   N7        1.0  0.79147  0.07477  0.10075  1.0000
  N   N8        1.0  0.70853  0.89925  0.92523  1.0000
  N   N9        1.0  0.30430  0.84524  0.82606  1.0000
  N   N10       1.0  0.19570  0.17394  0.15476  1.0000
  N   N11       1.0  0.69571  0.15475  0.17394  1.0000
  N   N12       1.0  0.80429  0.82606  0.84525  1.0000
  N   N13       1.0  0.14754  0.03224  0.67132  1.0000
  N   N14       1.0  0.35246  0.32868  0.96776  1.0000
  N   N15       1.0  0.85246  0.96776  0.32868  1.0000
  N   N16       1.0  0.64754  0.67132  0.03224  1.0000
  N   N17       1.0  0.34373  0.83406  0.32300  1.0000
  N   N18       1.0  0.15627  0.67700  0.16594  1.0000
  N   N19       1.0  0.65627  0.16594  0.67700  1.0000
  N   N20       1.0  0.84373  0.32300  0.83406  1.0000
