data_image0
_chemical_formula_structural       Hg2H48C38S4Br4
_chemical_formula_sum              "Hg2 H48 C38 S4 Br4"
_cell_length_a       7.43849
_cell_length_b       9.32861
_cell_length_c       16.0476
_cell_angle_alpha    104.002
_cell_angle_beta     96.9726
_cell_angle_gamma    100.104

_space_group_name_H-M_alt    "P 1"
_space_group_IT_number       1

loop_
  _space_group_symop_operation_xyz
  'x, y, z'

loop_
  _atom_site_type_symbol
  _atom_site_label
  _atom_site_symmetry_multiplicity
  _atom_site_fract_x
  _atom_site_fract_y
  _atom_site_fract_z
  _atom_site_occupancy
  Hg  Hg1       1.0  0.84552  0.69198  0.73805  1.0000
  Hg  Hg2       1.0  0.15448  0.30802  0.26195  1.0000
  H   H1        1.0  0.19837  0.18274  0.01654  1.0000
  H   H2        1.0  0.80162  0.81726  0.98346  1.0000
  H   H3        1.0  0.44462  0.41131  0.07812  1.0000
  H   H4        1.0  0.55537  0.58869  0.92188  1.0000
  H   H5        1.0  0.74809  0.43201  0.02508  1.0000
  H   H6        1.0  0.25191  0.56800  0.97493  1.0000
  H   H7        1.0  0.80144  0.21857  0.91028  1.0000
  H   H8        1.0  0.19857  0.78143  0.08972  1.0000
  H   H9        1.0  0.55407  0.98538  0.85011  1.0000
  H   H10       1.0  0.44593  0.01463  0.14989  1.0000
  H   H11       1.0  0.14867  0.88125  0.93621  1.0000
  H   H12       1.0  0.85133  0.11876  0.06379  1.0000
  H   H13       1.0  0.25755  0.84303  0.84340  1.0000
  H   H14       1.0  0.74245  0.15697  0.15660  1.0000
  H   H15       1.0  0.21181  0.98550  0.72314  1.0000
  H   H16       1.0  0.78819  0.01450  0.27686  1.0000
  H   H17       1.0  0.99199  0.01920  0.68823  1.0000
  H   H18       1.0  0.00801  0.98080  0.31177  1.0000
  H   H19       1.0  0.29460  0.24726  0.83044  1.0000
  H   H20       1.0  0.70540  0.75274  0.16956  1.0000
  H   H21       1.0  0.07120  0.27579  0.79761  1.0000
  H   H22       1.0  0.92880  0.72421  0.20239  1.0000
  H   H23       1.0  0.13246  0.26071  0.64818  1.0000
  H   H24       1.0  0.86755  0.73929  0.35182  1.0000
  H   H25       1.0  0.35040  0.21726  0.67404  1.0000
  H   H26       1.0  0.64961  0.78274  0.32596  1.0000
  H   H27       1.0  0.24322  0.51119  0.76588  1.0000
  H   H28       1.0  0.75679  0.48881  0.23412  1.0000
  H   H29       1.0  0.46539  0.46692  0.78054  1.0000
  H   H30       1.0  0.53461  0.53308  0.21946  1.0000
  H   H31       1.0  0.25855  0.49982  0.60991  1.0000
  H   H32       1.0  0.74145  0.50018  0.39009  1.0000
  H   H33       1.0  0.48015  0.44918  0.62124  1.0000
  H   H34       1.0  0.51984  0.55083  0.37876  1.0000
  H   H35       1.0  0.56697  0.66489  0.54984  1.0000
  H   H36       1.0  0.43303  0.33511  0.45016  1.0000
  H   H37       1.0  0.35575  0.73043  0.55784  1.0000
  H   H38       1.0  0.64425  0.26957  0.44216  1.0000
  H   H39       1.0  0.52388  0.01505  0.71597  1.0000
  H   H40       1.0  0.47611  0.98496  0.28403  1.0000
  H   H41       1.0  0.68707  0.27236  0.71956  1.0000
  H   H42       1.0  0.31292  0.72764  0.28044  1.0000
  H   H43       1.0  0.85079  0.31356  0.59824  1.0000
  H   H44       1.0  0.14921  0.68644  0.40176  1.0000
  H   H45       1.0  0.87090  0.09221  0.47904  1.0000
  H   H46       1.0  0.12910  0.90778  0.52096  1.0000
  H   H47       1.0  0.71752  0.83295  0.47865  1.0000
  H   H48       1.0  0.28248  0.16704  0.52135  1.0000
  C   C1        1.0  0.33119  0.18872  0.99364  1.0000
  C   C2        1.0  0.66880  0.81128  0.00636  1.0000
  C   C3        1.0  0.47044  0.31840  0.02837  1.0000
  C   C4        1.0  0.52956  0.68160  0.97164  1.0000
  C   C5        1.0  0.63955  0.33029  0.99815  1.0000
  C   C6        1.0  0.36045  0.66971  0.00185  1.0000
  C   C7        1.0  0.66944  0.21051  0.93379  1.0000
  C   C8        1.0  0.33056  0.78950  0.06622  1.0000
  C   C9        1.0  0.53002  0.08021  0.89936  1.0000
  C   C10       1.0  0.46998  0.91980  0.10064  1.0000
  C   C11       1.0  0.35907  0.06867  0.92825  1.0000
  C   C12       1.0  0.64093  0.93133  0.07176  1.0000
  C   C13       1.0  0.20788  0.93124  0.88759  1.0000
  C   C14       1.0  0.79212  0.06877  0.11241  1.0000
  C   C15       1.0  0.10614  0.04886  0.74388  1.0000
  C   C16       1.0  0.89386  0.95114  0.25612  1.0000
  C   C17       1.0  0.18117  0.21934  0.77467  1.0000
  C   C18       1.0  0.81883  0.78066  0.22533  1.0000
  C   C19       1.0  0.24956  0.28025  0.70144  1.0000
  C   C20       1.0  0.75044  0.71975  0.29856  1.0000
  C   C21       1.0  0.33859  0.44875  0.73262  1.0000
  C   C22       1.0  0.66142  0.55125  0.26738  1.0000
  C   C23       1.0  0.38486  0.50906  0.65607  1.0000
  C   C24       1.0  0.61514  0.49094  0.34393  1.0000
  C   C25       1.0  0.50161  0.74886  0.58856  1.0000
  C   C26       1.0  0.49839  0.25114  0.41144  1.0000
  C   C27       1.0  0.60572  0.90607  0.59579  1.0000
  C   C28       1.0  0.39428  0.09393  0.40421  1.0000
  C   C29       1.0  0.59982  0.03087  0.66371  1.0000
  C   C30       1.0  0.40017  0.96912  0.33629  1.0000
  C   C31       1.0  0.68939  0.17653  0.66528  1.0000
  C   C32       1.0  0.31061  0.82347  0.33472  1.0000
  C   C33       1.0  0.78394  0.19941  0.59802  1.0000
  C   C34       1.0  0.21606  0.80058  0.40198  1.0000
  C   C35       1.0  0.79393  0.07516  0.53083  1.0000
  C   C36       1.0  0.20608  0.92484  0.46917  1.0000
  C   C37       1.0  0.70721  0.92967  0.53039  1.0000
  C   C38       1.0  0.29279  0.07032  0.46961  1.0000
  S   S1        1.0  0.00744  0.97394  0.82692  1.0000
  S   S2        1.0  0.99256  0.02606  0.17308  1.0000
  S   S3        1.0  0.49338  0.70898  0.69375  1.0000
  S   S4        1.0  0.50662  0.29101  0.30625  1.0000
  Br  Br1       1.0  0.94895  0.63627  0.58650  1.0000
  Br  Br2       1.0  0.05106  0.36373  0.41351  1.0000
  Br  Br3       1.0  0.89098  0.53702  0.84941  1.0000
  Br  Br4       1.0  0.10902  0.46298  0.15060  1.0000
