data_image0
_chemical_formula_structural       Cu4H44C44N20O8
_chemical_formula_sum              "Cu4 H44 C44 N20 O8"
_cell_length_a       9.17965
_cell_length_b       10.8015
_cell_length_c       13.4609
_cell_angle_alpha    90
_cell_angle_beta     90
_cell_angle_gamma    101.114

_space_group_name_H-M_alt    "P 1"
_space_group_IT_number       1

loop_
  _space_group_symop_operation_xyz
  'x, y, z'

loop_
  _atom_site_type_symbol
  _atom_site_label
  _atom_site_symmetry_multiplicity
  _atom_site_fract_x
  _atom_site_fract_y
  _atom_site_fract_z
  _atom_site_occupancy
  Cu  Cu1       1.0  0.77323  0.41690  0.99781  1.0000
  Cu  Cu2       1.0  0.72677  0.08311  0.49780  1.0000
  Cu  Cu3       1.0  0.22678  0.58310  0.00218  1.0000
  Cu  Cu4       1.0  0.27324  0.91691  0.50219  1.0000
  H   H1        1.0  0.94266  0.09601  0.15373  1.0000
  H   H2        1.0  0.55734  0.40399  0.65373  1.0000
  H   H3        1.0  0.05735  0.90396  0.84627  1.0000
  H   H4        1.0  0.44266  0.59602  0.34626  1.0000
  H   H5        1.0  0.77187  0.98680  0.14852  1.0000
  H   H6        1.0  0.72814  0.51320  0.64851  1.0000
  H   H7        1.0  0.22813  0.01320  0.85150  1.0000
  H   H8        1.0  0.27186  0.48680  0.35151  1.0000
  H   H9        1.0  0.79383  0.11994  0.23087  1.0000
  H   H10       1.0  0.70616  0.38005  0.73087  1.0000
  H   H11       1.0  0.20619  0.88007  0.76912  1.0000
  H   H12       1.0  0.29381  0.61993  0.26913  1.0000
  H   H13       1.0  0.67657  0.00748  0.98951  1.0000
  H   H14       1.0  0.82346  0.49252  0.48953  1.0000
  H   H15       1.0  0.32340  0.99250  0.01049  1.0000
  H   H16       1.0  0.17657  0.50749  0.51048  1.0000
  H   H17       1.0  0.45141  0.13283  0.81944  1.0000
  H   H18       1.0  0.04859  0.36718  0.31943  1.0000
  H   H19       1.0  0.54856  0.86716  0.18057  1.0000
  H   H20       1.0  0.95143  0.63282  0.68059  1.0000
  H   H21       1.0  0.53798  0.00086  0.84386  1.0000
  H   H22       1.0  0.96202  0.49915  0.34386  1.0000
  H   H23       1.0  0.46199  0.99913  0.15616  1.0000
  H   H24       1.0  0.03801  0.50087  0.65615  1.0000
  H   H25       1.0  0.62466  0.12794  0.76507  1.0000
  H   H26       1.0  0.87532  0.37205  0.26508  1.0000
  H   H27       1.0  0.37529  0.87204  0.23493  1.0000
  H   H28       1.0  0.12472  0.62795  0.73492  1.0000
  H   H29       1.0  0.63878  0.68672  0.28799  1.0000
  H   H30       1.0  0.86123  0.81327  0.78799  1.0000
  H   H31       1.0  0.36123  0.31327  0.71202  1.0000
  H   H32       1.0  0.13876  0.18674  0.21202  1.0000
  H   H33       1.0  0.57848  0.84447  0.40974  1.0000
  H   H34       1.0  0.92150  0.65554  0.90977  1.0000
  H   H35       1.0  0.42153  0.15553  0.59026  1.0000
  H   H36       1.0  0.07849  0.34446  0.09023  1.0000
  H   H37       1.0  0.09263  0.89002  0.28950  1.0000
  H   H38       1.0  0.40737  0.60998  0.78949  1.0000
  H   H39       1.0  0.90737  0.11000  0.71050  1.0000
  H   H40       1.0  0.59263  0.39001  0.21050  1.0000
  H   H41       1.0  0.01382  0.04340  0.40547  1.0000
  H   H42       1.0  0.48617  0.45661  0.90547  1.0000
  H   H43       1.0  0.98618  0.95660  0.59453  1.0000
  H   H44       1.0  0.51382  0.54339  0.09453  1.0000
  C   C1        1.0  0.82147  0.08672  0.15740  1.0000
  C   C2        1.0  0.67852  0.41328  0.65739  1.0000
  C   C3        1.0  0.17853  0.91327  0.84260  1.0000
  C   C4        1.0  0.32147  0.58672  0.34260  1.0000
  C   C5        1.0  0.77215  0.16730  0.07764  1.0000
  C   C6        1.0  0.72784  0.33270  0.57764  1.0000
  C   C7        1.0  0.22787  0.83269  0.92234  1.0000
  C   C8        1.0  0.27215  0.66730  0.42235  1.0000
  C   C9        1.0  0.69510  0.10982  0.99462  1.0000
  C   C10       1.0  0.80492  0.39018  0.49463  1.0000
  C   C11       1.0  0.30490  0.89017  0.00538  1.0000
  C   C12       1.0  0.19509  0.60983  0.50537  1.0000
  C   C13       1.0  0.63568  0.17475  0.91900  1.0000
  C   C14       1.0  0.86435  0.32526  0.41901  1.0000
  C   C15       1.0  0.36430  0.82523  0.08101  1.0000
  C   C16       1.0  0.13567  0.67476  0.58099  1.0000
  C   C17       1.0  0.55750  0.10308  0.83253  1.0000
  C   C18       1.0  0.94250  0.39693  0.33253  1.0000
  C   C19       1.0  0.44247  0.89691  0.16748  1.0000
  C   C20       1.0  0.05752  0.60308  0.66748  1.0000
  C   C21       1.0  0.90429  0.68828  0.20391  1.0000
  C   C22       1.0  0.59571  0.81172  0.70391  1.0000
  C   C23       1.0  0.09572  0.31173  0.79609  1.0000
  C   C24       1.0  0.40429  0.18828  0.29609  1.0000
  C   C25       1.0  0.87052  0.77518  0.27907  1.0000
  C   C26       1.0  0.62948  0.72482  0.77906  1.0000
  C   C27       1.0  0.12949  0.22482  0.72094  1.0000
  C   C28       1.0  0.37051  0.27518  0.22094  1.0000
  C   C29       1.0  0.72497  0.76282  0.31501  1.0000
  C   C30       1.0  0.77503  0.73717  0.81501  1.0000
  C   C31       1.0  0.27505  0.23717  0.68499  1.0000
  C   C32       1.0  0.22495  0.26284  0.18499  1.0000
  C   C33       1.0  0.69132  0.85022  0.38227  1.0000
  C   C34       1.0  0.80866  0.64978  0.88228  1.0000
  C   C35       1.0  0.30869  0.14978  0.61773  1.0000
  C   C36       1.0  0.19132  0.35021  0.11772  1.0000
  C   C37       1.0  0.97783  0.87587  0.31450  1.0000
  C   C38       1.0  0.52218  0.62413  0.81450  1.0000
  C   C39       1.0  0.02219  0.12414  0.68550  1.0000
  C   C40       1.0  0.47781  0.37587  0.18550  1.0000
  C   C41       1.0  0.93473  0.96074  0.38060  1.0000
  C   C42       1.0  0.56527  0.53927  0.88060  1.0000
  C   C43       1.0  0.06528  0.03927  0.61940  1.0000
  C   C44       1.0  0.43472  0.46074  0.11940  1.0000
  N   N1        1.0  0.87576  0.54827  0.09262  1.0000
  N   N2        1.0  0.62423  0.95174  0.59262  1.0000
  N   N3        1.0  0.12422  0.45176  0.90736  1.0000
  N   N4        1.0  0.37579  0.04824  0.40735  1.0000
  N   N5        1.0  0.02163  0.59430  0.10121  1.0000
  N   N6        1.0  0.47836  0.90571  0.60122  1.0000
  N   N7        1.0  0.97835  0.40567  0.89880  1.0000
  N   N8        1.0  0.52166  0.09433  0.39879  1.0000
  N   N9        1.0  0.79911  0.60479  0.15592  1.0000
  N   N10       1.0  0.70088  0.89520  0.65591  1.0000
  N   N11       1.0  0.20088  0.39526  0.84406  1.0000
  N   N12       1.0  0.29913  0.10474  0.34405  1.0000
  N   N13       1.0  0.04195  0.68299  0.17093  1.0000
  N   N14       1.0  0.45805  0.81702  0.67094  1.0000
  N   N15       1.0  0.95805  0.31696  0.82910  1.0000
  N   N16       1.0  0.54195  0.18305  0.32909  1.0000
  N   N17       1.0  0.79425  0.94853  0.41392  1.0000
  N   N18       1.0  0.70574  0.55148  0.91393  1.0000
  N   N19       1.0  0.20576  0.05148  0.58608  1.0000
  N   N20       1.0  0.29425  0.44852  0.08607  1.0000
  O   O1        1.0  0.64157  0.29449  0.91636  1.0000
  O   O2        1.0  0.85848  0.20551  0.41639  1.0000
  O   O3        1.0  0.35843  0.70549  0.08364  1.0000
  O   O4        1.0  0.14153  0.79450  0.58361  1.0000
  O   O5        1.0  0.80798  0.28706  0.09285  1.0000
  O   O6        1.0  0.69196  0.21294  0.59283  1.0000
  O   O7        1.0  0.19205  0.71293  0.90712  1.0000
  O   O8        1.0  0.30801  0.78706  0.40714  1.0000
