data_image0
_chemical_formula_structural       Cd2H36C48N4O12
_chemical_formula_sum              "Cd2 H36 C48 N4 O12"
_cell_length_a       10.3607
_cell_length_b       10.9499
_cell_length_c       10.963
_cell_angle_alpha    63.2093
_cell_angle_beta     80.3079
_cell_angle_gamma    82.8008

_space_group_name_H-M_alt    "P 1"
_space_group_IT_number       1

loop_
  _space_group_symop_operation_xyz
  'x, y, z'

loop_
  _atom_site_type_symbol
  _atom_site_label
  _atom_site_symmetry_multiplicity
  _atom_site_fract_x
  _atom_site_fract_y
  _atom_site_fract_z
  _atom_site_occupancy
  Cd  Cd1       1.0  0.89140  0.11676  0.57948  1.0000
  Cd  Cd2       1.0  0.10859  0.88324  0.42052  1.0000
  H   H1        1.0  0.68254  0.66951  0.99606  1.0000
  H   H2        1.0  0.31746  0.33049  0.00394  1.0000
  H   H3        1.0  0.75141  0.46729  0.20553  1.0000
  H   H4        1.0  0.24859  0.53271  0.79447  1.0000
  H   H5        1.0  0.36297  0.74647  0.69319  1.0000
  H   H6        1.0  0.63703  0.25354  0.30681  1.0000
  H   H7        1.0  0.69663  0.61397  0.70417  1.0000
  H   H8        1.0  0.30337  0.38603  0.29582  1.0000
  H   H9        1.0  0.43525  0.94813  0.70078  1.0000
  H   H10       1.0  0.56475  0.05187  0.29922  1.0000
  H   H11       1.0  0.52482  0.87113  0.59787  1.0000
  H   H12       1.0  0.47518  0.12887  0.40213  1.0000
  H   H13       1.0  0.92982  0.53068  0.69997  1.0000
  H   H14       1.0  0.07018  0.46933  0.30002  1.0000
  H   H15       1.0  0.33628  0.35296  0.70421  1.0000
  H   H16       1.0  0.66372  0.64703  0.29579  1.0000
  H   H17       1.0  0.20036  0.05407  0.60634  1.0000
  H   H18       1.0  0.79964  0.94593  0.39366  1.0000
  H   H19       1.0  0.61392  0.28514  0.61752  1.0000
  H   H20       1.0  0.38607  0.71486  0.38248  1.0000
  H   H21       1.0  0.24254  0.02591  0.06255  1.0000
  H   H22       1.0  0.75746  0.97409  0.93745  1.0000
  H   H23       1.0  0.97813  0.37248  0.07938  1.0000
  H   H24       1.0  0.02188  0.62753  0.92062  1.0000
  H   H25       1.0  0.13095  0.33284  0.14607  1.0000
  H   H26       1.0  0.86906  0.66716  0.85393  1.0000
  H   H27       1.0  0.38864  0.15696  0.64047  1.0000
  H   H28       1.0  0.61136  0.84304  0.35953  1.0000
  H   H29       1.0  0.10727  0.44933  0.71277  1.0000
  H   H30       1.0  0.89273  0.55068  0.28723  1.0000
  H   H31       1.0  0.82387  0.26828  0.07682  1.0000
  H   H32       1.0  0.17613  0.73172  0.92318  1.0000
  H   H33       1.0  0.53185  0.48973  0.66502  1.0000
  H   H34       1.0  0.46814  0.51026  0.33499  1.0000
  H   H35       1.0  0.32351  0.83453  0.00028  1.0000
  H   H36       1.0  0.67649  0.16547  0.99972  1.0000
  C   C1        1.0  0.63498  0.57303  0.03838  1.0000
  C   C2        1.0  0.36502  0.42697  0.96162  1.0000
  C   C3        1.0  0.49262  0.67335  0.85042  1.0000
  C   C4        1.0  0.50738  0.32665  0.14958  1.0000
  C   C5        1.0  0.97244  0.23069  0.29390  1.0000
  C   C6        1.0  0.02756  0.76931  0.70610  1.0000
  C   C7        1.0  0.53263  0.56222  0.97291  1.0000
  C   C8        1.0  0.46737  0.43778  0.02709  1.0000
  C   C9        1.0  0.03236  0.30320  0.66275  1.0000
  C   C10       1.0  0.96764  0.69680  0.33725  1.0000
  C   C11       1.0  0.67174  0.46190  0.15489  1.0000
  C   C12       1.0  0.32826  0.53810  0.84511  1.0000
  C   C13       1.0  0.89408  0.35921  0.66337  1.0000
  C   C14       1.0  0.10591  0.64080  0.33663  1.0000
  C   C15       1.0  0.63698  0.00378  0.62936  1.0000
  C   C16       1.0  0.36302  0.99622  0.37064  1.0000
  C   C17       1.0  0.39198  0.66243  0.78762  1.0000
  C   C18       1.0  0.60802  0.33757  0.21238  1.0000
  C   C19       1.0  0.72641  0.52344  0.68695  1.0000
  C   C20       1.0  0.27359  0.47656  0.31305  1.0000
  C   C21       1.0  0.53155  0.90107  0.68019  1.0000
  C   C22       1.0  0.46845  0.09893  0.31982  1.0000
  C   C23       1.0  0.85720  0.47563  0.68616  1.0000
  C   C24       1.0  0.14279  0.52437  0.31384  1.0000
  C   C25       1.0  0.04421  0.02984  0.02112  1.0000
  C   C26       1.0  0.95580  0.97016  0.97888  1.0000
  C   C27       1.0  0.25911  0.30799  0.68390  1.0000
  C   C28       1.0  0.74089  0.69201  0.31610  1.0000
  C   C29       1.0  0.18520  0.14251  0.62894  1.0000
  C   C30       1.0  0.81480  0.85749  0.37106  1.0000
  C   C31       1.0  0.67909  0.34165  0.63962  1.0000
  C   C32       1.0  0.32091  0.65834  0.36038  1.0000
  C   C33       1.0  0.17733  0.97979  0.02888  1.0000
  C   C34       1.0  0.82267  0.02021  0.97112  1.0000
  C   C35       1.0  0.99356  0.13953  0.05558  1.0000
  C   C36       1.0  0.00644  0.86047  0.94442  1.0000
  C   C37       1.0  0.04141  0.28853  0.14634  1.0000
  C   C38       1.0  0.95860  0.71147  0.85365  1.0000
  C   C39       1.0  0.28800  0.19764  0.65123  1.0000
  C   C40       1.0  0.71200  0.80236  0.34877  1.0000
  C   C41       1.0  0.13049  0.36145  0.69001  1.0000
  C   C42       1.0  0.86951  0.63855  0.30999  1.0000
  C   C43       1.0  0.86319  0.18621  0.04883  1.0000
  C   C44       1.0  0.13681  0.81379  0.95117  1.0000
  C   C45       1.0  0.63503  0.45501  0.66430  1.0000
  C   C46       1.0  0.36496  0.54498  0.33570  1.0000
  C   C47       1.0  0.22156  0.87395  0.99429  1.0000
  C   C48       1.0  0.77844  0.12605  0.00571  1.0000
  N   N1        1.0  0.06099  0.19417  0.63436  1.0000
  N   N2        1.0  0.93901  0.80583  0.36564  1.0000
  N   N3        1.0  0.80522  0.29500  0.63954  1.0000
  N   N4        1.0  0.19477  0.70500  0.36046  1.0000
  O   O1        1.0  0.95985  0.10199  0.36585  1.0000
  O   O2        1.0  0.04015  0.89801  0.63415  1.0000
  O   O3        1.0  0.93332  0.31766  0.34037  1.0000
  O   O4        1.0  0.06669  0.68233  0.65963  1.0000
  O   O5        1.0  0.56419  0.78563  0.80239  1.0000
  O   O6        1.0  0.43581  0.21437  0.19761  1.0000
  O   O7        1.0  0.75002  0.95566  0.66754  1.0000
  O   O8        1.0  0.24998  0.04434  0.33246  1.0000
  O   O9        1.0  0.08465  0.19173  0.09356  1.0000
  O   O10       1.0  0.91535  0.80827  0.90644  1.0000
  O   O11       1.0  0.60706  0.12645  0.55056  1.0000
  O   O12       1.0  0.39293  0.87355  0.44944  1.0000
