data_image0
_chemical_formula_structural       Tb2H36C60N10O22
_chemical_formula_sum              "Tb2 H36 C60 N10 O22"
_cell_length_a       9.19087
_cell_length_b       12.8392
_cell_length_c       13.1499
_cell_angle_alpha    61.3577
_cell_angle_beta     82.2467
_cell_angle_gamma    74.0055

_space_group_name_H-M_alt    "P 1"
_space_group_IT_number       1

loop_
  _space_group_symop_operation_xyz
  'x, y, z'

loop_
  _atom_site_type_symbol
  _atom_site_label
  _atom_site_symmetry_multiplicity
  _atom_site_fract_x
  _atom_site_fract_y
  _atom_site_fract_z
  _atom_site_occupancy
  Tb  Tb1       1.0  0.75016  0.56963  0.86162  1.0000
  Tb  Tb2       1.0  0.24984  0.43037  0.13838  1.0000
  H   H1        1.0  0.67936  0.82826  0.25894  1.0000
  H   H2        1.0  0.82012  0.91348  0.25782  1.0000
  H   H3        1.0  0.32064  0.17174  0.74106  1.0000
  H   H4        1.0  0.17988  0.08652  0.74218  1.0000
  H   H5        1.0  0.64466  0.90477  0.04679  1.0000
  H   H6        1.0  0.85444  0.04872  0.04631  1.0000
  H   H7        1.0  0.35534  0.09523  0.95321  1.0000
  H   H8        1.0  0.14556  0.95128  0.95369  1.0000
  H   H9        1.0  0.44195  0.86326  0.97703  1.0000
  H   H10       1.0  0.05725  0.15906  0.97772  1.0000
  H   H11       1.0  0.55805  0.13674  0.02297  1.0000
  H   H12       1.0  0.94275  0.84094  0.02228  1.0000
  H   H13       1.0  0.26049  0.74589  0.11699  1.0000
  H   H14       1.0  0.23927  0.13596  0.11835  1.0000
  H   H15       1.0  0.73951  0.25412  0.88301  1.0000
  H   H16       1.0  0.76073  0.86404  0.88165  1.0000
  H   H17       1.0  0.11538  0.53799  0.52193  1.0000
  H   H18       1.0  0.38469  0.93957  0.52315  1.0000
  H   H19       1.0  0.88462  0.46201  0.47807  1.0000
  H   H20       1.0  0.61531  0.06043  0.47686  1.0000
  H   H21       1.0  0.15829  0.40123  0.88802  1.0000
  H   H22       1.0  0.34280  0.71066  0.88832  1.0000
  H   H23       1.0  0.84171  0.59877  0.11198  1.0000
  H   H24       1.0  0.65720  0.28935  0.11168  1.0000
  H   H25       1.0  0.49411  0.57235  0.65810  1.0000
  H   H26       1.0  0.00604  0.77002  0.65794  1.0000
  H   H27       1.0  0.50589  0.42765  0.34190  1.0000
  H   H28       1.0  0.99396  0.22998  0.34206  1.0000
  H   H29       1.0  0.18972  0.63489  0.35462  1.0000
  H   H30       1.0  0.30985  0.01064  0.35513  1.0000
  H   H31       1.0  0.81028  0.36511  0.64538  1.0000
  H   H32       1.0  0.69015  0.98936  0.64487  1.0000
  H   H33       1.0  0.54298  0.69172  0.48075  1.0000
  H   H34       1.0  0.95698  0.82809  0.47969  1.0000
  H   H35       1.0  0.45702  0.30829  0.51925  1.0000
  H   H36       1.0  0.04302  0.17191  0.52031  1.0000
  C   C1        1.0  0.48653  0.74916  0.30363  1.0000
  C   C2        1.0  0.01332  0.94721  0.30337  1.0000
  C   C3        1.0  0.51347  0.25084  0.69637  1.0000
  C   C4        1.0  0.98668  0.05280  0.69663  1.0000
  C   C5        1.0  0.58796  0.81376  0.22694  1.0000
  C   C6        1.0  0.91164  0.95955  0.22634  1.0000
  C   C7        1.0  0.41204  0.18624  0.77305  1.0000
  C   C8        1.0  0.08836  0.04045  0.77366  1.0000
  C   C9        1.0  0.56753  0.85440  0.10973  1.0000
  C   C10       1.0  0.93180  0.03596  0.10949  1.0000
  C   C11       1.0  0.43247  0.14560  0.89027  1.0000
  C   C12       1.0  0.06820  0.96404  0.89051  1.0000
  C   C13       1.0  0.45047  0.83185  0.06962  1.0000
  C   C14       1.0  0.04892  0.09812  0.07005  1.0000
  C   C15       1.0  0.54952  0.16816  0.93038  1.0000
  C   C16       1.0  0.95108  0.90188  0.92995  1.0000
  C   C17       1.0  0.34846  0.76792  0.14560  1.0000
  C   C18       1.0  0.15121  0.08575  0.14638  1.0000
  C   C19       1.0  0.65154  0.23208  0.85440  1.0000
  C   C20       1.0  0.84878  0.91425  0.85362  1.0000
  C   C21       1.0  0.36901  0.72711  0.26326  1.0000
  C   C22       1.0  0.13085  0.00915  0.26368  1.0000
  C   C23       1.0  0.63099  0.27289  0.73674  1.0000
  C   C24       1.0  0.86915  0.99085  0.73632  1.0000
  C   C25       1.0  0.35761  0.63773  0.45590  1.0000
  C   C26       1.0  0.14234  0.90635  0.45622  1.0000
  C   C27       1.0  0.64239  0.36228  0.54410  1.0000
  C   C28       1.0  0.85766  0.09365  0.54378  1.0000
  C   C29       1.0  0.30946  0.56770  0.57403  1.0000
  C   C30       1.0  0.19058  0.85832  0.57453  1.0000
  C   C31       1.0  0.69054  0.43231  0.42597  1.0000
  C   C32       1.0  0.80942  0.14168  0.42547  1.0000
  C   C33       1.0  0.17923  0.52384  0.59337  1.0000
  C   C34       1.0  0.32101  0.88244  0.59428  1.0000
  C   C35       1.0  0.82078  0.47616  0.40663  1.0000
  C   C36       1.0  0.67899  0.11756  0.40572  1.0000
  C   C37       1.0  0.12576  0.46376  0.70576  1.0000
  C   C38       1.0  0.37495  0.83001  0.70662  1.0000
  C   C39       1.0  0.87425  0.53624  0.29424  1.0000
  C   C40       1.0  0.62505  0.16999  0.29338  1.0000
  C   C41       1.0  0.98113  0.42575  0.71794  1.0000
  C   C42       1.0  0.52011  0.85523  0.71894  1.0000
  C   C43       1.0  0.01888  0.57425  0.28205  1.0000
  C   C44       1.0  0.47988  0.14478  0.28106  1.0000
  C   C45       1.0  0.20281  0.44463  0.80039  1.0000
  C   C46       1.0  0.29795  0.75488  0.80083  1.0000
  C   C47       1.0  0.79719  0.55537  0.19961  1.0000
  C   C48       1.0  0.70205  0.24512  0.19917  1.0000
  C   C49       1.0  0.33814  0.48183  0.78193  1.0000
  C   C50       1.0  0.16249  0.73629  0.78218  1.0000
  C   C51       1.0  0.66186  0.51817  0.21807  1.0000
  C   C52       1.0  0.83751  0.26371  0.21782  1.0000
  C   C53       1.0  0.39041  0.54325  0.66924  1.0000
  C   C54       1.0  0.10982  0.78774  0.66948  1.0000
  C   C55       1.0  0.60958  0.45675  0.33076  1.0000
  C   C56       1.0  0.89019  0.21226  0.33052  1.0000
  C   C57       1.0  0.42534  0.46253  0.88134  1.0000
  C   C58       1.0  0.07614  0.65575  0.88130  1.0000
  C   C59       1.0  0.57465  0.53746  0.11867  1.0000
  C   C60       1.0  0.92388  0.34424  0.11871  1.0000
  N   N1        1.0  0.29240  0.65863  0.35982  1.0000
  N   N2        1.0  0.20753  0.98108  0.36054  1.0000
  N   N3        1.0  0.70759  0.34137  0.64018  1.0000
  N   N4        1.0  0.79247  0.01892  0.63945  1.0000
  N   N5        1.0  0.47468  0.69263  0.42368  1.0000
  N   N6        1.0  0.02523  0.88394  0.42333  1.0000
  N   N7        1.0  0.52532  0.30737  0.57632  1.0000
  N   N8        1.0  0.97477  0.11606  0.57667  1.0000
  N   N9        1.0  0.75023  0.72250  0.55460  1.0000
  N   N10       1.0  0.24977  0.27750  0.44540  1.0000
  O   O1        1.0  0.96481  0.38284  0.65250  1.0000
  O   O2        1.0  0.53698  0.96242  0.65398  1.0000
  O   O3        1.0  0.03519  0.61716  0.34750  1.0000
  O   O4        1.0  0.46302  0.03758  0.34603  1.0000
  O   O5        1.0  0.88266  0.44081  0.79084  1.0000
  O   O6        1.0  0.61815  0.76812  0.79119  1.0000
  O   O7        1.0  0.11734  0.55919  0.20916  1.0000
  O   O8        1.0  0.38185  0.23187  0.20881  1.0000
  O   O9        1.0  0.37049  0.41245  0.98220  1.0000
  O   O10       1.0  0.13253  0.60362  0.98171  1.0000
  O   O11       1.0  0.62952  0.58755  0.01780  1.0000
  O   O12       1.0  0.86747  0.39638  0.01828  1.0000
  O   O13       1.0  0.54778  0.49759  0.85877  1.0000
  O   O14       1.0  0.95288  0.64405  0.85882  1.0000
  O   O15       1.0  0.45223  0.50241  0.14123  1.0000
  O   O16       1.0  0.04711  0.35595  0.14118  1.0000
  O   O17       1.0  0.64801  0.66649  0.61112  1.0000
  O   O18       1.0  0.85299  0.72086  0.61170  1.0000
  O   O19       1.0  0.35199  0.33351  0.38889  1.0000
  O   O20       1.0  0.14701  0.27915  0.38829  1.0000
  O   O21       1.0  0.74954  0.77743  0.44636  1.0000
  O   O22       1.0  0.25046  0.22257  0.55364  1.0000
