data_image0
_chemical_formula_structural       Cu4H32C48N8O16
_chemical_formula_sum              "Cu4 H32 C48 N8 O16"
_cell_length_a       9.32094
_cell_length_b       11.8157
_cell_length_c       12.068
_cell_angle_alpha    90
_cell_angle_beta     113.987
_cell_angle_gamma    90

_space_group_name_H-M_alt    "P 1"
_space_group_IT_number       1

loop_
  _space_group_symop_operation_xyz
  'x, y, z'

loop_
  _atom_site_type_symbol
  _atom_site_label
  _atom_site_symmetry_multiplicity
  _atom_site_fract_x
  _atom_site_fract_y
  _atom_site_fract_z
  _atom_site_occupancy
  Cu  Cu1       1.0  0.65309  0.35816  0.01547  1.0000
  Cu  Cu2       1.0  0.34691  0.85816  0.48452  1.0000
  Cu  Cu3       1.0  0.34692  0.64184  0.98452  1.0000
  Cu  Cu4       1.0  0.65309  0.14184  0.51548  1.0000
  H   H1        1.0  0.25139  0.91998  0.23757  1.0000
  H   H2        1.0  0.74862  0.41997  0.26243  1.0000
  H   H3        1.0  0.74862  0.08003  0.76243  1.0000
  H   H4        1.0  0.25139  0.58002  0.73757  1.0000
  H   H5        1.0  0.07721  0.06311  0.08893  1.0000
  H   H6        1.0  0.92280  0.56310  0.41107  1.0000
  H   H7        1.0  0.92280  0.93690  0.91107  1.0000
  H   H8        1.0  0.07721  0.43690  0.58893  1.0000
  H   H9        1.0  0.94777  0.18382  0.37347  1.0000
  H   H10       1.0  0.05225  0.68381  0.12653  1.0000
  H   H11       1.0  0.05224  0.81618  0.62653  1.0000
  H   H12       1.0  0.94777  0.31618  0.87347  1.0000
  H   H13       1.0  0.13715  0.04476  0.51212  1.0000
  H   H14       1.0  0.86287  0.54475  0.98788  1.0000
  H   H15       1.0  0.86286  0.95524  0.48787  1.0000
  H   H16       1.0  0.13714  0.45524  0.01213  1.0000
  H   H17       1.0  0.58271  0.27300  0.28949  1.0000
  H   H18       1.0  0.41729  0.77299  0.21051  1.0000
  H   H19       1.0  0.41728  0.72700  0.71051  1.0000
  H   H20       1.0  0.58272  0.22700  0.78949  1.0000
  H   H21       1.0  0.27874  0.54585  0.29576  1.0000
  H   H22       1.0  0.72125  0.04584  0.20424  1.0000
  H   H23       1.0  0.72126  0.45416  0.70425  1.0000
  H   H24       1.0  0.27874  0.95416  0.79575  1.0000
  H   H25       1.0  0.26380  0.45344  0.48019  1.0000
  H   H26       1.0  0.73619  0.95343  0.01981  1.0000
  H   H27       1.0  0.73619  0.54657  0.51981  1.0000
  H   H28       1.0  0.26380  0.04657  0.98019  1.0000
  H   H29       1.0  0.42418  0.27793  0.56383  1.0000
  H   H30       1.0  0.57581  0.77793  0.93617  1.0000
  H   H31       1.0  0.57582  0.72207  0.43618  1.0000
  H   H32       1.0  0.42417  0.22207  0.06382  1.0000
  C   C1        1.0  0.18587  0.98248  0.26418  1.0000
  C   C2        1.0  0.81414  0.48247  0.23581  1.0000
  C   C3        1.0  0.81414  0.01753  0.73582  1.0000
  C   C4        1.0  0.18586  0.51752  0.76419  1.0000
  C   C5        1.0  0.08763  0.05995  0.18210  1.0000
  C   C6        1.0  0.91238  0.55995  0.31790  1.0000
  C   C7        1.0  0.91238  0.94005  0.81790  1.0000
  C   C8        1.0  0.08762  0.44005  0.68211  1.0000
  C   C9        1.0  0.99840  0.13360  0.21917  1.0000
  C   C10       1.0  0.00160  0.63360  0.28083  1.0000
  C   C11       1.0  0.00161  0.86640  0.78083  1.0000
  C   C12       1.0  0.99840  0.36640  0.71917  1.0000
  C   C13       1.0  0.01492  0.12883  0.33963  1.0000
  C   C14       1.0  0.98509  0.62882  0.16037  1.0000
  C   C15       1.0  0.98509  0.87117  0.66036  1.0000
  C   C16       1.0  0.01491  0.37117  0.83964  1.0000
  C   C17       1.0  0.11988  0.05097  0.41749  1.0000
  C   C18       1.0  0.88013  0.55096  0.08251  1.0000
  C   C19       1.0  0.88012  0.94903  0.58251  1.0000
  C   C20       1.0  0.11988  0.44903  0.91749  1.0000
  C   C21       1.0  0.88451  0.21218  0.12668  1.0000
  C   C22       1.0  0.11548  0.71217  0.37331  1.0000
  C   C23       1.0  0.11549  0.78783  0.87331  1.0000
  C   C24       1.0  0.88451  0.28783  0.62669  1.0000
  C   C25       1.0  0.51216  0.31665  0.32952  1.0000
  C   C26       1.0  0.48784  0.81664  0.17049  1.0000
  C   C27       1.0  0.48783  0.68335  0.67049  1.0000
  C   C28       1.0  0.51216  0.18335  0.82952  1.0000
  C   C29       1.0  0.42955  0.41570  0.27833  1.0000
  C   C30       1.0  0.57045  0.91569  0.22167  1.0000
  C   C31       1.0  0.57044  0.58430  0.72167  1.0000
  C   C32       1.0  0.42955  0.08431  0.77833  1.0000
  C   C33       1.0  0.34005  0.46718  0.33324  1.0000
  C   C34       1.0  0.65994  0.96717  0.16675  1.0000
  C   C35       1.0  0.65994  0.53282  0.66676  1.0000
  C   C36       1.0  0.34006  0.03282  0.83324  1.0000
  C   C37       1.0  0.33344  0.41691  0.43531  1.0000
  C   C38       1.0  0.66656  0.91691  0.06469  1.0000
  C   C39       1.0  0.66655  0.58309  0.56469  1.0000
  C   C40       1.0  0.33344  0.08309  0.93530  1.0000
  C   C41       1.0  0.42146  0.31989  0.48272  1.0000
  C   C42       1.0  0.57854  0.81989  0.01728  1.0000
  C   C43       1.0  0.57853  0.68011  0.51728  1.0000
  C   C44       1.0  0.42146  0.18011  0.98272  1.0000
  C   C45       1.0  0.43448  0.46313  0.16420  1.0000
  C   C46       1.0  0.56551  0.96312  0.33581  1.0000
  C   C47       1.0  0.56551  0.53688  0.83581  1.0000
  C   C48       1.0  0.43449  0.03689  0.66419  1.0000
  N   N1        1.0  0.20296  0.97862  0.38054  1.0000
  N   N2        1.0  0.79705  0.47861  0.11946  1.0000
  N   N3        1.0  0.79704  0.02138  0.61946  1.0000
  N   N4        1.0  0.20296  0.52138  0.88054  1.0000
  N   N5        1.0  0.50966  0.27120  0.43071  1.0000
  N   N6        1.0  0.49035  0.77120  0.06930  1.0000
  N   N7        1.0  0.49034  0.72880  0.56930  1.0000
  N   N8        1.0  0.50966  0.22880  0.93070  1.0000
  O   O1        1.0  0.90273  0.23427  0.03172  1.0000
  O   O2        1.0  0.09726  0.73426  0.46828  1.0000
  O   O3        1.0  0.09727  0.76573  0.96828  1.0000
  O   O4        1.0  0.90273  0.26573  0.53172  1.0000
  O   O5        1.0  0.77178  0.24958  0.15309  1.0000
  O   O6        1.0  0.22821  0.74958  0.34691  1.0000
  O   O7        1.0  0.22822  0.75042  0.84691  1.0000
  O   O8        1.0  0.77178  0.25042  0.65309  1.0000
  O   O9        1.0  0.47542  0.39888  0.09966  1.0000
  O   O10       1.0  0.52458  0.89888  0.40034  1.0000
  O   O11       1.0  0.52458  0.60111  0.90034  1.0000
  O   O12       1.0  0.47541  0.10112  0.59966  1.0000
  O   O13       1.0  0.39096  0.56699  0.14175  1.0000
  O   O14       1.0  0.60903  0.06699  0.35825  1.0000
  O   O15       1.0  0.60903  0.43301  0.85825  1.0000
  O   O16       1.0  0.39097  0.93301  0.64175  1.0000
