data_image0
_chemical_formula_structural       Cu2H28C26I2N4
_chemical_formula_sum              "Cu2 H28 C26 I2 N4"
_cell_length_a       8.18035
_cell_length_b       10.3379
_cell_length_c       10.3379
_cell_angle_alpha    79.6359
_cell_angle_beta     84.8517
_cell_angle_gamma    84.8518

_space_group_name_H-M_alt    "P 1"
_space_group_IT_number       1

loop_
  _space_group_symop_operation_xyz
  'x, y, z'

loop_
  _atom_site_type_symbol
  _atom_site_label
  _atom_site_symmetry_multiplicity
  _atom_site_fract_x
  _atom_site_fract_y
  _atom_site_fract_z
  _atom_site_occupancy
  Cu  Cu1       1.0  0.61947  0.43692  0.43691  1.0000
  Cu  Cu2       1.0  0.38052  0.56308  0.56309  1.0000
  H   H1        1.0  0.56039  0.15609  0.44035  1.0000
  H   H2        1.0  0.43960  0.55966  0.84391  1.0000
  H   H3        1.0  0.43960  0.84390  0.55966  1.0000
  H   H4        1.0  0.56039  0.44036  0.15609  1.0000
  H   H5        1.0  0.69005  0.93346  0.53436  1.0000
  H   H6        1.0  0.30994  0.46565  0.06654  1.0000
  H   H7        1.0  0.30995  0.06654  0.46566  1.0000
  H   H8        1.0  0.69005  0.53437  0.93345  1.0000
  H   H9        1.0  0.02702  0.13348  0.71267  1.0000
  H   H10       1.0  0.97299  0.28731  0.86655  1.0000
  H   H11       1.0  0.97300  0.86654  0.28732  1.0000
  H   H12       1.0  0.02701  0.71268  0.13347  1.0000
  H   H13       1.0  0.88018  0.34686  0.61459  1.0000
  H   H14       1.0  0.11982  0.38537  0.65315  1.0000
  H   H15       1.0  0.11983  0.65315  0.38538  1.0000
  H   H16       1.0  0.88018  0.61461  0.34685  1.0000
  H   H17       1.0  0.07877  0.89507  0.70695  1.0000
  H   H18       1.0  0.92123  0.29305  0.10494  1.0000
  H   H19       1.0  0.92124  0.10494  0.29306  1.0000
  H   H20       1.0  0.07878  0.70695  0.89506  1.0000
  H   H21       1.0  0.94798  0.81313  0.62580  1.0000
  H   H22       1.0  0.05203  0.37420  0.18689  1.0000
  H   H23       1.0  0.05204  0.18688  0.37420  1.0000
  H   H24       1.0  0.94798  0.62580  0.81312  1.0000
  H   H25       1.0  0.73341  0.81257  0.81257  1.0000
  H   H26       1.0  0.26660  0.18743  0.18743  1.0000
  H   H27       1.0  0.86012  0.89580  0.89580  1.0000
  H   H28       1.0  0.13988  0.10420  0.10420  1.0000
  C   C1        1.0  0.66372  0.14593  0.50229  1.0000
  C   C2        1.0  0.33626  0.49770  0.85407  1.0000
  C   C3        1.0  0.33627  0.85407  0.49771  1.0000
  C   C4        1.0  0.66372  0.50230  0.14592  1.0000
  C   C5        1.0  0.73553  0.02308  0.55531  1.0000
  C   C6        1.0  0.26447  0.44469  0.97692  1.0000
  C   C7        1.0  0.26447  0.97691  0.44470  1.0000
  C   C8        1.0  0.73552  0.55532  0.02308  1.0000
  C   C9        1.0  0.86891  0.01428  0.63350  1.0000
  C   C10       1.0  0.13109  0.36649  0.98572  1.0000
  C   C11       1.0  0.13110  0.98572  0.36649  1.0000
  C   C12       1.0  0.86890  0.63351  0.01428  1.0000
  C   C13       1.0  0.92202  0.13337  0.65450  1.0000
  C   C14       1.0  0.07798  0.34547  0.86664  1.0000
  C   C15       1.0  0.07798  0.86664  0.34548  1.0000
  C   C16       1.0  0.92201  0.65452  0.13336  1.0000
  C   C17       1.0  0.84323  0.25242  0.59906  1.0000
  C   C18       1.0  0.15678  0.40092  0.74759  1.0000
  C   C19       1.0  0.15678  0.74758  0.40093  1.0000
  C   C20       1.0  0.84323  0.59908  0.25242  1.0000
  C   C21       1.0  0.94918  0.88393  0.69336  1.0000
  C   C22       1.0  0.05083  0.30663  0.11608  1.0000
  C   C23       1.0  0.05084  0.11608  0.30664  1.0000
  C   C24       1.0  0.94918  0.69337  0.88392  1.0000
  C   C25       1.0  0.86232  0.82629  0.82628  1.0000
  C   C26       1.0  0.13768  0.17371  0.17372  1.0000
  I   I1        1.0  0.31146  0.39881  0.39879  1.0000
  I   I2        1.0  0.68852  0.60120  0.60120  1.0000
  N   N1        1.0  0.71546  0.26052  0.52318  1.0000
  N   N2        1.0  0.28454  0.47680  0.73949  1.0000
  N   N3        1.0  0.28454  0.73948  0.47681  1.0000
  N   N4        1.0  0.71545  0.52320  0.26051  1.0000
