data_image0
_chemical_formula_structural       Hg4H6C8Br10N4
_chemical_formula_sum              "Hg4 H6 C8 Br10 N4"
_cell_length_a       6.40633
_cell_length_b       6.6063
_cell_length_c       17.3181
_cell_angle_alpha    90.0007
_cell_angle_beta     89.9997
_cell_angle_gamma    118.499

_space_group_name_H-M_alt    "P 1"
_space_group_IT_number       1

loop_
  _space_group_symop_operation_xyz
  'x, y, z'

loop_
  _atom_site_type_symbol
  _atom_site_label
  _atom_site_symmetry_multiplicity
  _atom_site_fract_x
  _atom_site_fract_y
  _atom_site_fract_z
  _atom_site_occupancy
  Hg  Hg1       1.0  0.16676  0.32740  0.55560  1.0000
  Hg  Hg2       1.0  0.83322  0.67259  0.05561  1.0000
  Hg  Hg3       1.0  0.16677  0.32740  0.94439  1.0000
  Hg  Hg4       1.0  0.83322  0.67259  0.44439  1.0000
  H   H1        1.0  0.13731  0.27440  0.75000  1.0000
  H   H2        1.0  0.86269  0.72561  0.25000  1.0000
  H   H3        1.0  0.44761  0.88486  0.62455  1.0000
  H   H4        1.0  0.55239  0.11514  0.12455  1.0000
  H   H5        1.0  0.44762  0.88486  0.87545  1.0000
  H   H6        1.0  0.55239  0.11514  0.37545  1.0000
  C   C1        1.0  0.23323  0.46230  0.75000  1.0000
  C   C2        1.0  0.76677  0.53770  0.25000  1.0000
  C   C3        1.0  0.40506  0.80042  0.68082  1.0000
  C   C4        1.0  0.59494  0.19958  0.18082  1.0000
  C   C5        1.0  0.40506  0.80042  0.81918  1.0000
  C   C6        1.0  0.59495  0.19958  0.31917  1.0000
  C   C7        1.0  0.46749  0.92337  0.75000  1.0000
  C   C8        1.0  0.53253  0.07665  0.25000  1.0000
  Br  Br1       1.0  0.97586  0.94154  0.62055  1.0000
  Br  Br2       1.0  0.02412  0.05844  0.12057  1.0000
  Br  Br3       1.0  0.97587  0.94154  0.87944  1.0000
  Br  Br4       1.0  0.02413  0.05844  0.37944  1.0000
  Br  Br5       1.0  0.33958  0.68244  0.47092  1.0000
  Br  Br6       1.0  0.66042  0.31756  0.97092  1.0000
  Br  Br7       1.0  0.33957  0.68244  0.02908  1.0000
  Br  Br8       1.0  0.66041  0.31756  0.52907  1.0000
  Br  Br9       1.0  0.63063  0.24800  0.75000  1.0000
  Br  Br10      1.0  0.36941  0.75201  0.25000  1.0000
  N   N1        1.0  0.28767  0.56942  0.68167  1.0000
  N   N2        1.0  0.71233  0.43059  0.18167  1.0000
  N   N3        1.0  0.28767  0.56942  0.81833  1.0000
  N   N4        1.0  0.71233  0.43058  0.31833  1.0000
