data_image0
_chemical_formula_structural       Hg4H12C16I8Br4N8
_chemical_formula_sum              "Hg4 H12 C16 I8 Br4 N8"
_cell_length_a       4.4342
_cell_length_b       14.0711
_cell_length_c       15.7498
_cell_angle_alpha    89.9992
_cell_angle_beta     90.001
_cell_angle_gamma    93.084

_space_group_name_H-M_alt    "P 1"
_space_group_IT_number       1

loop_
  _space_group_symop_operation_xyz
  'x, y, z'

loop_
  _atom_site_type_symbol
  _atom_site_label
  _atom_site_symmetry_multiplicity
  _atom_site_fract_x
  _atom_site_fract_y
  _atom_site_fract_z
  _atom_site_occupancy
  Hg  Hg1       1.0  0.49273  0.96801  0.76270  1.0000
  Hg  Hg2       1.0  0.50726  0.53198  0.26269  1.0000
  Hg  Hg3       1.0  0.50729  0.03198  0.23731  1.0000
  Hg  Hg4       1.0  0.49273  0.46802  0.73731  1.0000
  H   H1        1.0  0.26783  0.17949  0.67639  1.0000
  H   H2        1.0  0.73215  0.32051  0.17639  1.0000
  H   H3        1.0  0.73215  0.82051  0.32361  1.0000
  H   H4        1.0  0.26784  0.67950  0.82361  1.0000
  H   H5        1.0  0.71643  0.22455  0.43374  1.0000
  H   H6        1.0  0.28358  0.27545  0.93374  1.0000
  H   H7        1.0  0.28356  0.77544  0.56626  1.0000
  H   H8        1.0  0.71642  0.72456  0.06626  1.0000
  H   H9        1.0  0.84925  0.98373  0.57863  1.0000
  H   H10       1.0  0.15073  0.51627  0.07861  1.0000
  H   H11       1.0  0.15073  0.01627  0.42138  1.0000
  H   H12       1.0  0.84926  0.48373  0.92138  1.0000
  C   C1        1.0  0.47393  0.21594  0.55396  1.0000
  C   C2        1.0  0.52608  0.28406  0.05396  1.0000
  C   C3        1.0  0.52608  0.78405  0.44604  1.0000
  C   C4        1.0  0.47393  0.71596  0.94604  1.0000
  C   C5        1.0  0.41870  0.15919  0.62542  1.0000
  C   C6        1.0  0.58131  0.34082  0.12542  1.0000
  C   C7        1.0  0.58131  0.84081  0.37457  1.0000
  C   C8        1.0  0.41868  0.65920  0.87457  1.0000
  C   C9        1.0  0.66754  0.18375  0.49155  1.0000
  C   C10       1.0  0.33248  0.31625  0.99154  1.0000
  C   C11       1.0  0.33244  0.81625  0.50846  1.0000
  C   C12       1.0  0.66754  0.68375  0.00845  1.0000
  C   C13       1.0  0.73841  0.05085  0.57128  1.0000
  C   C14       1.0  0.26160  0.44915  0.07127  1.0000
  C   C15       1.0  0.26159  0.94914  0.42874  1.0000
  C   C16       1.0  0.73841  0.55086  0.92874  1.0000
  I   I1        1.0  0.09195  0.07178  0.84736  1.0000
  I   I2        1.0  0.90809  0.42824  0.34737  1.0000
  I   I3        1.0  0.90808  0.92823  0.15264  1.0000
  I   I4        1.0  0.09191  0.57176  0.65263  1.0000
  I   I5        1.0  0.78316  0.81478  0.71338  1.0000
  I   I6        1.0  0.21683  0.68522  0.21337  1.0000
  I   I7        1.0  0.21684  0.18521  0.28663  1.0000
  I   I8        1.0  0.78317  0.31478  0.78663  1.0000
  Br  Br1       1.0  0.29526  0.33417  0.54302  1.0000
  Br  Br2       1.0  0.70479  0.16584  0.04303  1.0000
  Br  Br3       1.0  0.70475  0.66582  0.45697  1.0000
  Br  Br4       1.0  0.29526  0.83418  0.95696  1.0000
  N   N1        1.0  0.55208  0.07631  0.63329  1.0000
  N   N2        1.0  0.44790  0.42369  0.13328  1.0000
  N   N3        1.0  0.44790  0.92368  0.36672  1.0000
  N   N4        1.0  0.55209  0.57632  0.86671  1.0000
  N   N5        1.0  0.80022  0.10096  0.50066  1.0000
  N   N6        1.0  0.19978  0.39904  0.00065  1.0000
  N   N7        1.0  0.19976  0.89903  0.49934  1.0000
  N   N8        1.0  0.80021  0.60097  0.99934  1.0000
