data_image0
_chemical_formula_structural       H28Pb2C26I4N4
_chemical_formula_sum              "H28 Pb2 C26 I4 N4"
_cell_length_a       4.52999
_cell_length_b       11.5161
_cell_length_c       15.277
_cell_angle_alpha    90.0053
_cell_angle_beta     89.9999
_cell_angle_gamma    96.1635

_space_group_name_H-M_alt    "P 1"
_space_group_IT_number       1

loop_
  _space_group_symop_operation_xyz
  'x, y, z'

loop_
  _atom_site_type_symbol
  _atom_site_label
  _atom_site_symmetry_multiplicity
  _atom_site_fract_x
  _atom_site_fract_y
  _atom_site_fract_z
  _atom_site_occupancy
  H   H1        1.0  0.92859  0.06364  0.43192  1.0000
  H   H2        1.0  0.07088  0.93642  0.93204  1.0000
  H   H3        1.0  0.07131  0.93633  0.56817  1.0000
  H   H4        1.0  0.92942  0.06363  0.06789  1.0000
  H   H5        1.0  0.68719  0.09902  0.57511  1.0000
  H   H6        1.0  0.31260  0.90108  0.07518  1.0000
  H   H7        1.0  0.31358  0.90095  0.42513  1.0000
  H   H8        1.0  0.68781  0.09902  0.92473  1.0000
  H   H9        1.0  0.13828  0.44847  0.57005  1.0000
  H   H10       1.0  0.86232  0.55150  0.07005  1.0000
  H   H11       1.0  0.86213  0.55155  0.42994  1.0000
  H   H12       1.0  0.13812  0.44860  0.92996  1.0000
  H   H13       1.0  0.36509  0.39819  0.42706  1.0000
  H   H14       1.0  0.63509  0.60176  0.92712  1.0000
  H   H15       1.0  0.63434  0.60185  0.57276  1.0000
  H   H16       1.0  0.36557  0.39823  0.07284  1.0000
  H   H17       1.0  0.51537  0.25549  0.66897  1.0000
  H   H18       1.0  0.48488  0.74450  0.16901  1.0000
  H   H19       1.0  0.48501  0.74451  0.33105  1.0000
  H   H20       1.0  0.51543  0.25559  0.83102  1.0000
  H   H21       1.0  0.70287  0.39912  0.66854  1.0000
  H   H22       1.0  0.29730  0.60090  0.16855  1.0000
  H   H23       1.0  0.29744  0.60090  0.33151  1.0000
  H   H24       1.0  0.70309  0.39919  0.83141  1.0000
  H   H25       1.0  0.94100  0.18388  0.75000  1.0000
  H   H26       1.0  0.05918  0.81612  0.25005  1.0000
  H   H27       1.0  0.12616  0.32781  0.74997  1.0000
  H   H28       1.0  0.87422  0.67214  0.25006  1.0000
  Pb  Pb1       1.0  0.20437  0.20843  0.24989  1.0000
  Pb  Pb2       1.0  0.79271  0.79121  0.75011  1.0000
  C   C1        1.0  0.97338  0.14748  0.46539  1.0000
  C   C2        1.0  0.02625  0.85258  0.96551  1.0000
  C   C3        1.0  0.02656  0.85252  0.53466  1.0000
  C   C4        1.0  0.97410  0.14747  0.03442  1.0000
  C   C5        1.0  0.83756  0.16787  0.54473  1.0000
  C   C6        1.0  0.16229  0.83220  0.04481  1.0000
  C   C7        1.0  0.16285  0.83213  0.45539  1.0000
  C   C8        1.0  0.83811  0.16788  0.95513  1.0000
  C   C9        1.0  0.88884  0.27818  0.58403  1.0000
  C   C10       1.0  0.11130  0.72187  0.08409  1.0000
  C   C11       1.0  0.11153  0.72186  0.41602  1.0000
  C   C12       1.0  0.88911  0.27824  0.91590  1.0000
  C   C13       1.0  0.08738  0.36165  0.54166  1.0000
  C   C14       1.0  0.91294  0.63835  0.04170  1.0000
  C   C15       1.0  0.91282  0.63839  0.45832  1.0000
  C   C16       1.0  0.08754  0.36173  0.95829  1.0000
  C   C17       1.0  0.21457  0.33409  0.46249  1.0000
  C   C18       1.0  0.78549  0.66590  0.96257  1.0000
  C   C19       1.0  0.78513  0.66595  0.53742  1.0000
  C   C20       1.0  0.21503  0.33413  0.03741  1.0000
  C   C21       1.0  0.73562  0.30581  0.66735  1.0000
  C   C22       1.0  0.26459  0.69421  0.16740  1.0000
  C   C23       1.0  0.26472  0.69422  0.33268  1.0000
  C   C24       1.0  0.73572  0.30588  0.83261  1.0000
  C   C25       1.0  0.90656  0.27697  0.74998  1.0000
  C   C26       1.0  0.09375  0.72304  0.25005  1.0000
  I   I1        1.0  0.63539  0.00700  0.24972  1.0000
  I   I2        1.0  0.36221  0.99269  0.75022  1.0000
  I   I3        1.0  0.74004  0.40844  0.24991  1.0000
  I   I4        1.0  0.25740  0.59117  0.75017  1.0000
  N   N1        1.0  0.15718  0.22909  0.42397  1.0000
  N   N2        1.0  0.84250  0.77093  0.92409  1.0000
  N   N3        1.0  0.84230  0.77095  0.57596  1.0000
  N   N4        1.0  0.15788  0.22909  0.07586  1.0000
