data_image0
_chemical_formula_structural       Tb4H48C44O36
_chemical_formula_sum              "Tb4 H48 C44 O36"
_cell_length_a       8.88172
_cell_length_b       8.85782
_cell_length_c       19.3467
_cell_angle_alpha    83.1635
_cell_angle_beta     83.182
_cell_angle_gamma    60.703

_space_group_name_H-M_alt    "P 1"
_space_group_IT_number       1

loop_
  _space_group_symop_operation_xyz
  'x, y, z'

loop_
  _atom_site_type_symbol
  _atom_site_label
  _atom_site_symmetry_multiplicity
  _atom_site_fract_x
  _atom_site_fract_y
  _atom_site_fract_z
  _atom_site_occupancy
  Tb  Tb1       1.0  0.73617  0.37057  0.53877  1.0000
  Tb  Tb2       1.0  0.62937  0.26345  0.96128  1.0000
  Tb  Tb3       1.0  0.26383  0.62943  0.46124  1.0000
  Tb  Tb4       1.0  0.37063  0.73655  0.03872  1.0000
  H   H1        1.0  0.86177  0.06628  0.64440  1.0000
  H   H2        1.0  0.93341  0.13853  0.85564  1.0000
  H   H3        1.0  0.13823  0.93372  0.35560  1.0000
  H   H4        1.0  0.06659  0.86147  0.14436  1.0000
  H   H5        1.0  0.01522  0.98491  0.58369  1.0000
  H   H6        1.0  0.01473  0.98464  0.91637  1.0000
  H   H7        1.0  0.98478  0.01509  0.41631  1.0000
  H   H8        1.0  0.98527  0.01536  0.08363  1.0000
  H   H9        1.0  0.74477  0.09491  0.77733  1.0000
  H   H10       1.0  0.90599  0.25520  0.72273  1.0000
  H   H11       1.0  0.25524  0.90509  0.22267  1.0000
  H   H12       1.0  0.09401  0.74480  0.27727  1.0000
  H   H13       1.0  0.09544  0.31678  0.47083  1.0000
  H   H14       1.0  0.68359  0.90364  0.02927  1.0000
  H   H15       1.0  0.90456  0.68322  0.52917  1.0000
  H   H16       1.0  0.31641  0.09636  0.97073  1.0000
  H   H17       1.0  0.11897  0.13421  0.50313  1.0000
  H   H18       1.0  0.86573  0.88021  0.99699  1.0000
  H   H19       1.0  0.88103  0.86579  0.49687  1.0000
  H   H20       1.0  0.13427  0.11979  0.00301  1.0000
  H   H21       1.0  0.82572  0.82392  0.64252  1.0000
  H   H22       1.0  0.17634  0.17437  0.85754  1.0000
  H   H23       1.0  0.17429  0.17608  0.35748  1.0000
  H   H24       1.0  0.82365  0.82563  0.14246  1.0000
  H   H25       1.0  0.71904  0.89590  0.86368  1.0000
  H   H26       1.0  0.10442  0.28158  0.63637  1.0000
  H   H27       1.0  0.28096  0.10410  0.13632  1.0000
  H   H28       1.0  0.89558  0.71842  0.36363  1.0000
  H   H29       1.0  0.71462  0.46829  0.78279  1.0000
  H   H30       1.0  0.53181  0.28441  0.71721  1.0000
  H   H31       1.0  0.28538  0.53171  0.21721  1.0000
  H   H32       1.0  0.46819  0.71559  0.28279  1.0000
  H   H33       1.0  0.53472  0.23230  0.33207  1.0000
  H   H34       1.0  0.76757  0.46575  0.16778  1.0000
  H   H35       1.0  0.46527  0.76770  0.66793  1.0000
  H   H36       1.0  0.23242  0.53425  0.83222  1.0000
  H   H37       1.0  0.74276  0.05190  0.34378  1.0000
  H   H38       1.0  0.94742  0.25707  0.15617  1.0000
  H   H39       1.0  0.25724  0.94810  0.65622  1.0000
  H   H40       1.0  0.05258  0.74293  0.84383  1.0000
  H   H41       1.0  0.68628  0.41710  0.29363  1.0000
  H   H42       1.0  0.58315  0.31400  0.20636  1.0000
  H   H43       1.0  0.31372  0.58290  0.70637  1.0000
  H   H44       1.0  0.41684  0.68600  0.79365  1.0000
  H   H45       1.0  0.88528  0.22314  0.29427  1.0000
  H   H46       1.0  0.77649  0.11438  0.20572  1.0000
  H   H47       1.0  0.11472  0.77686  0.70573  1.0000
  H   H48       1.0  0.22350  0.88563  0.79428  1.0000
  C   C1        1.0  0.78591  0.53479  0.64670  1.0000
  C   C2        1.0  0.46516  0.21398  0.85332  1.0000
  C   C3        1.0  0.21409  0.46521  0.35330  1.0000
  C   C4        1.0  0.53484  0.78602  0.14668  1.0000
  C   C5        1.0  0.66028  0.61896  0.90024  1.0000
  C   C6        1.0  0.38148  0.33923  0.59978  1.0000
  C   C7        1.0  0.33972  0.38104  0.09976  1.0000
  C   C8        1.0  0.61852  0.66077  0.40022  1.0000
  C   C9        1.0  0.79729  0.78013  0.69498  1.0000
  C   C10       1.0  0.22015  0.20277  0.80509  1.0000
  C   C11       1.0  0.20271  0.21987  0.30502  1.0000
  C   C12       1.0  0.77985  0.79723  0.19491  1.0000
  C   C13       1.0  0.73449  0.82352  0.81918  1.0000
  C   C14       1.0  0.17679  0.26577  0.68087  1.0000
  C   C15       1.0  0.26551  0.17648  0.18082  1.0000
  C   C16       1.0  0.82321  0.73423  0.31913  1.0000
  C   C17       1.0  0.73463  0.58070  0.77358  1.0000
  C   C18       1.0  0.41947  0.26475  0.72645  1.0000
  C   C19       1.0  0.26537  0.41930  0.22642  1.0000
  C   C20       1.0  0.58053  0.73525  0.27355  1.0000
  C   C21       1.0  0.71317  0.67635  0.82977  1.0000
  C   C22       1.0  0.32398  0.28646  0.67026  1.0000
  C   C23       1.0  0.28683  0.32365  0.17023  1.0000
  C   C24       1.0  0.67602  0.71353  0.32974  1.0000
  C   C25       1.0  0.77528  0.63293  0.70609  1.0000
  C   C26       1.0  0.36719  0.22443  0.79398  1.0000
  C   C27       1.0  0.22472  0.36707  0.29391  1.0000
  C   C28       1.0  0.63281  0.77557  0.20602  1.0000
  C   C29       1.0  0.77804  0.87407  0.75163  1.0000
  C   C30       1.0  0.12627  0.22227  0.74845  1.0000
  C   C31       1.0  0.22196  0.12592  0.24837  1.0000
  C   C32       1.0  0.87373  0.77773  0.25155  1.0000
  C   C33       1.0  0.66468  0.24951  0.41452  1.0000
  C   C34       1.0  0.75021  0.33521  0.08545  1.0000
  C   C35       1.0  0.33532  0.75049  0.58548  1.0000
  C   C36       1.0  0.24979  0.66479  0.91455  1.0000
  C   C37       1.0  0.66721  0.19389  0.34351  1.0000
  C   C38       1.0  0.80581  0.33289  0.15642  1.0000
  C   C39       1.0  0.33279  0.80611  0.65649  1.0000
  C   C40       1.0  0.19419  0.66712  0.84358  1.0000
  C   C41       1.0  0.74703  0.27754  0.28698  1.0000
  C   C42       1.0  0.72236  0.25299  0.21299  1.0000
  C   C43       1.0  0.25297  0.72246  0.71301  1.0000
  C   C44       1.0  0.27764  0.74702  0.78701  1.0000
  O   O1        1.0  0.77071  0.39616  0.65997  1.0000
  O   O2        1.0  0.60313  0.22968  0.84003  1.0000
  O   O3        1.0  0.22929  0.60384  0.34003  1.0000
  O   O4        1.0  0.39687  0.77033  0.15997  1.0000
  O   O5        1.0  0.72083  0.45586  0.91223  1.0000
  O   O6        1.0  0.54413  0.27881  0.58791  1.0000
  O   O7        1.0  0.27917  0.54413  0.08777  1.0000
  O   O8        1.0  0.45587  0.72119  0.41209  1.0000
  O   O9        1.0  0.53469  0.38228  0.43905  1.0000
  O   O10       1.0  0.61738  0.46521  0.06096  1.0000
  O   O11       1.0  0.46531  0.61771  0.56095  1.0000
  O   O12       1.0  0.38262  0.53480  0.93904  1.0000
  O   O13       1.0  0.55658  0.73435  0.94118  1.0000
  O   O14       1.0  0.26643  0.44284  0.55873  1.0000
  O   O15       1.0  0.44342  0.26564  0.05882  1.0000
  O   O16       1.0  0.73357  0.55716  0.44127  1.0000
  O   O17       1.0  0.80013  0.16685  0.44954  1.0000
  O   O18       1.0  0.83291  0.19950  0.05042  1.0000
  O   O19       1.0  0.19987  0.83315  0.55046  1.0000
  O   O20       1.0  0.16709  0.80050  0.94958  1.0000
  O   O21       1.0  0.89821  0.08419  0.59551  1.0000
  O   O22       1.0  0.91479  0.10120  0.90433  1.0000
  O   O23       1.0  0.10179  0.91581  0.40449  1.0000
  O   O24       1.0  0.08521  0.89880  0.09567  1.0000
  O   O25       1.0  0.80543  0.01411  0.73901  1.0000
  O   O26       1.0  0.98651  0.19501  0.76113  1.0000
  O   O27       1.0  0.19457  0.98589  0.26099  1.0000
  O   O28       1.0  0.01349  0.80499  0.23887  1.0000
  O   O29       1.0  0.80361  0.58589  0.58335  1.0000
  O   O30       1.0  0.41443  0.19606  0.91669  1.0000
  O   O31       1.0  0.19639  0.41411  0.41665  1.0000
  O   O32       1.0  0.58557  0.80394  0.08331  1.0000
  O   O33       1.0  0.04280  0.25887  0.50475  1.0000
  O   O34       1.0  0.74140  0.95629  0.99527  1.0000
  O   O35       1.0  0.95720  0.74113  0.49525  1.0000
  O   O36       1.0  0.25860  0.04371  0.00473  1.0000
