data_image0
_chemical_formula_structural       K4H44C52O12
_chemical_formula_sum              "K4 H44 C52 O12"
_cell_length_a       6.69477
_cell_length_b       7.27142
_cell_length_c       23.3145
_cell_angle_alpha    91.0457
_cell_angle_beta     90
_cell_angle_gamma    90.0001

_space_group_name_H-M_alt    "P 1"
_space_group_IT_number       1

loop_
  _space_group_symop_operation_xyz
  'x, y, z'

loop_
  _atom_site_type_symbol
  _atom_site_label
  _atom_site_symmetry_multiplicity
  _atom_site_fract_x
  _atom_site_fract_y
  _atom_site_fract_z
  _atom_site_occupancy
  K   K1        1.0  0.30869  0.91566  0.54984  1.0000
  K   K2        1.0  0.80869  0.58434  0.45016  1.0000
  K   K3        1.0  0.69131  0.08434  0.45016  1.0000
  K   K4        1.0  0.19131  0.41566  0.54984  1.0000
  H   H1        1.0  0.58811  0.93042  0.75452  1.0000
  H   H2        1.0  0.08811  0.56959  0.24548  1.0000
  H   H3        1.0  0.41189  0.06958  0.24548  1.0000
  H   H4        1.0  0.91189  0.43041  0.75452  1.0000
  H   H5        1.0  0.42461  0.36297  0.77480  1.0000
  H   H6        1.0  0.92461  0.13703  0.22520  1.0000
  H   H7        1.0  0.57539  0.63703  0.22520  1.0000
  H   H8        1.0  0.07539  0.86297  0.77480  1.0000
  H   H9        1.0  0.73573  0.88483  0.83651  1.0000
  H   H10       1.0  0.23573  0.61517  0.16349  1.0000
  H   H11       1.0  0.26428  0.11516  0.16349  1.0000
  H   H12       1.0  0.76427  0.38483  0.83651  1.0000
  H   H13       1.0  0.26432  0.48350  0.85335  1.0000
  H   H14       1.0  0.76432  0.01650  0.14665  1.0000
  H   H15       1.0  0.73568  0.51651  0.14665  1.0000
  H   H16       1.0  0.23568  0.98349  0.85335  1.0000
  H   H17       1.0  0.73135  0.94097  0.94049  1.0000
  H   H18       1.0  0.23135  0.55903  0.05951  1.0000
  H   H19       1.0  0.26866  0.05903  0.05951  1.0000
  H   H20       1.0  0.76865  0.44097  0.94049  1.0000
  H   H21       1.0  0.49710  0.76409  0.00299  1.0000
  H   H22       1.0  0.99710  0.73591  0.99701  1.0000
  H   H23       1.0  0.50290  0.23591  0.99701  1.0000
  H   H24       1.0  0.00290  0.26409  0.00299  1.0000
  H   H25       1.0  0.26667  0.53365  0.95764  1.0000
  H   H26       1.0  0.76667  0.96634  0.04236  1.0000
  H   H27       1.0  0.73333  0.46635  0.04236  1.0000
  H   H28       1.0  0.23333  0.03366  0.95764  1.0000
  H   H29       1.0  0.60668  0.88356  0.65067  1.0000
  H   H30       1.0  0.10668  0.61645  0.34933  1.0000
  H   H31       1.0  0.39332  0.11644  0.34933  1.0000
  H   H32       1.0  0.89332  0.38355  0.65067  1.0000
  H   H33       1.0  0.40659  0.16430  0.70489  1.0000
  H   H34       1.0  0.90659  0.33571  0.29511  1.0000
  H   H35       1.0  0.59341  0.83570  0.29511  1.0000
  H   H36       1.0  0.09341  0.66429  0.70489  1.0000
  H   H37       1.0  0.82277  0.90375  0.56117  1.0000
  H   H38       1.0  0.32277  0.59625  0.43883  1.0000
  H   H39       1.0  0.17723  0.09625  0.43883  1.0000
  H   H40       1.0  0.67723  0.40375  0.56117  1.0000
  H   H41       1.0  0.66794  0.73744  0.56124  1.0000
  H   H42       1.0  0.16794  0.76257  0.43876  1.0000
  H   H43       1.0  0.33206  0.26257  0.43876  1.0000
  H   H44       1.0  0.83205  0.23743  0.56124  1.0000
  C   C1        1.0  0.52623  0.59536  0.65052  1.0000
  C   C2        1.0  0.02622  0.90464  0.34948  1.0000
  C   C3        1.0  0.47377  0.40464  0.34948  1.0000
  C   C4        1.0  0.97378  0.09536  0.65052  1.0000
  C   C5        1.0  0.55603  0.79410  0.73644  1.0000
  C   C6        1.0  0.05603  0.70590  0.26356  1.0000
  C   C7        1.0  0.44397  0.20590  0.26356  1.0000
  C   C8        1.0  0.94397  0.29410  0.73644  1.0000
  C   C9        1.0  0.56654  0.76846  0.67770  1.0000
  C   C10       1.0  0.06654  0.73155  0.32230  1.0000
  C   C11       1.0  0.43346  0.23154  0.32230  1.0000
  C   C12       1.0  0.93346  0.26846  0.67770  1.0000
  C   C13       1.0  0.47247  0.44793  0.68822  1.0000
  C   C14       1.0  0.97246  0.05207  0.31178  1.0000
  C   C15       1.0  0.52753  0.55207  0.31178  1.0000
  C   C16       1.0  0.02753  0.94793  0.68822  1.0000
  C   C17       1.0  0.46225  0.48010  0.74810  1.0000
  C   C18       1.0  0.96225  0.01991  0.25190  1.0000
  C   C19       1.0  0.53775  0.51991  0.25190  1.0000
  C   C20       1.0  0.03775  0.98009  0.74811  1.0000
  C   C21       1.0  0.50374  0.65020  0.77376  1.0000
  C   C22       1.0  0.00374  0.84980  0.22624  1.0000
  C   C23       1.0  0.49627  0.34980  0.22624  1.0000
  C   C24       1.0  0.99627  0.15020  0.77376  1.0000
  C   C25       1.0  0.43451  0.26084  0.66917  1.0000
  C   C26       1.0  0.93451  0.23916  0.33083  1.0000
  C   C27       1.0  0.56549  0.73916  0.33083  1.0000
  C   C28       1.0  0.06549  0.76084  0.66918  1.0000
  C   C29       1.0  0.49972  0.68070  0.83653  1.0000
  C   C30       1.0  0.99972  0.81931  0.16347  1.0000
  C   C31       1.0  0.50028  0.31930  0.16347  1.0000
  C   C32       1.0  0.00028  0.18069  0.83653  1.0000
  C   C33       1.0  0.62969  0.80942  0.86263  1.0000
  C   C34       1.0  0.12969  0.69058  0.13737  1.0000
  C   C35       1.0  0.37031  0.19058  0.13737  1.0000
  C   C36       1.0  0.87031  0.30942  0.86263  1.0000
  C   C37       1.0  0.36911  0.58255  0.87204  1.0000
  C   C38       1.0  0.86912  0.91745  0.12795  1.0000
  C   C39       1.0  0.63089  0.41745  0.12795  1.0000
  C   C40       1.0  0.13089  0.08255  0.87205  1.0000
  C   C41       1.0  0.62845  0.84010  0.92185  1.0000
  C   C42       1.0  0.12845  0.65990  0.07815  1.0000
  C   C43       1.0  0.37155  0.15990  0.07815  1.0000
  C   C44       1.0  0.87155  0.34010  0.92185  1.0000
  C   C45       1.0  0.49818  0.74139  0.95661  1.0000
  C   C46       1.0  0.99818  0.75861  0.04339  1.0000
  C   C47       1.0  0.50182  0.25861  0.04339  1.0000
  C   C48       1.0  0.00181  0.24139  0.95661  1.0000
  C   C49       1.0  0.36920  0.61231  0.93132  1.0000
  C   C50       1.0  0.86920  0.88769  0.06867  1.0000
  C   C51       1.0  0.63079  0.38769  0.06867  1.0000
  C   C52       1.0  0.13079  0.11231  0.93133  1.0000
  O   O1        1.0  0.53682  0.57668  0.59465  1.0000
  O   O2        1.0  0.03682  0.92332  0.40535  1.0000
  O   O3        1.0  0.46318  0.42333  0.40535  1.0000
  O   O4        1.0  0.96318  0.07667  0.59465  1.0000
  O   O5        1.0  0.72574  0.83568  0.53623  1.0000
  O   O6        1.0  0.22573  0.66432  0.46377  1.0000
  O   O7        1.0  0.27426  0.16433  0.46377  1.0000
  O   O8        1.0  0.77426  0.33568  0.53623  1.0000
  O   O9        1.0  0.43018  0.19979  0.61889  1.0000
  O   O10       1.0  0.93017  0.30021  0.38111  1.0000
  O   O11       1.0  0.56982  0.80020  0.38111  1.0000
  O   O12       1.0  0.06982  0.69979  0.61889  1.0000
