data_image0
_chemical_formula_structural       Pr4H48C44O36
_chemical_formula_sum              "Pr4 H48 C44 O36"
_cell_length_a       8.98787
_cell_length_b       8.99536
_cell_length_c       19.5764
_cell_angle_alpha    82.9796
_cell_angle_beta     82.9737
_cell_angle_gamma    60.866

_space_group_name_H-M_alt    "P 1"
_space_group_IT_number       1

loop_
  _space_group_symop_operation_xyz
  'x, y, z'

loop_
  _atom_site_type_symbol
  _atom_site_label
  _atom_site_symmetry_multiplicity
  _atom_site_fract_x
  _atom_site_fract_y
  _atom_site_fract_z
  _atom_site_occupancy
  Pr  Pr1       1.0  0.63074  0.26111  0.46159  1.0000
  Pr  Pr2       1.0  0.73895  0.36929  0.03840  1.0000
  Pr  Pr3       1.0  0.36925  0.73889  0.53841  1.0000
  Pr  Pr4       1.0  0.26105  0.63071  0.96160  1.0000
  H   H1        1.0  0.90672  0.25830  0.22385  1.0000
  H   H2        1.0  0.74184  0.09298  0.27617  1.0000
  H   H3        1.0  0.09328  0.74170  0.77615  1.0000
  H   H4        1.0  0.25816  0.90702  0.72383  1.0000
  H   H5        1.0  0.93913  0.13400  0.35246  1.0000
  H   H6        1.0  0.86590  0.06085  0.14754  1.0000
  H   H7        1.0  0.06088  0.86600  0.64754  1.0000
  H   H8        1.0  0.13410  0.93914  0.85246  1.0000
  H   H9        1.0  0.01491  0.98166  0.41277  1.0000
  H   H10       1.0  0.01830  0.98516  0.08720  1.0000
  H   H11       1.0  0.98509  0.01834  0.58722  1.0000
  H   H12       1.0  0.98170  0.01483  0.91280  1.0000
  H   H13       1.0  0.17685  0.17319  0.35634  1.0000
  H   H14       1.0  0.82678  0.82311  0.14366  1.0000
  H   H15       1.0  0.82314  0.82682  0.64366  1.0000
  H   H16       1.0  0.17322  0.17688  0.85634  1.0000
  H   H17       1.0  0.53026  0.27839  0.21647  1.0000
  H   H18       1.0  0.72159  0.46993  0.28352  1.0000
  H   H19       1.0  0.46974  0.72161  0.78353  1.0000
  H   H20       1.0  0.27841  0.53007  0.71648  1.0000
  H   H21       1.0  0.69540  0.89297  0.53283  1.0000
  H   H22       1.0  0.10714  0.30454  0.96717  1.0000
  H   H23       1.0  0.30460  0.10703  0.46717  1.0000
  H   H24       1.0  0.89286  0.69546  0.03284  1.0000
  H   H25       1.0  0.87502  0.87001  0.49934  1.0000
  H   H26       1.0  0.12998  0.12506  0.00063  1.0000
  H   H27       1.0  0.12498  0.12999  0.50066  1.0000
  H   H28       1.0  0.87002  0.87494  0.99937  1.0000
  H   H29       1.0  0.10508  0.27926  0.13790  1.0000
  H   H30       1.0  0.72071  0.89476  0.36210  1.0000
  H   H31       1.0  0.89492  0.72074  0.86209  1.0000
  H   H32       1.0  0.27929  0.10524  0.63790  1.0000
  H   H33       1.0  0.58300  0.31504  0.70660  1.0000
  H   H34       1.0  0.68499  0.41686  0.79342  1.0000
  H   H35       1.0  0.41700  0.68496  0.29340  1.0000
  H   H36       1.0  0.31501  0.58314  0.20658  1.0000
  H   H37       1.0  0.77445  0.11925  0.70625  1.0000
  H   H38       1.0  0.88091  0.22552  0.79374  1.0000
  H   H39       1.0  0.22555  0.88075  0.29375  1.0000
  H   H40       1.0  0.11910  0.77447  0.20626  1.0000
  H   H41       1.0  0.76071  0.46770  0.66827  1.0000
  H   H42       1.0  0.53216  0.23934  0.83174  1.0000
  H   H43       1.0  0.23929  0.53230  0.33172  1.0000
  H   H44       1.0  0.46784  0.76066  0.16826  1.0000
  H   H45       1.0  0.94268  0.26420  0.65884  1.0000
  H   H46       1.0  0.73579  0.05749  0.84115  1.0000
  H   H47       1.0  0.05732  0.73580  0.34116  1.0000
  H   H48       1.0  0.26421  0.94251  0.15885  1.0000
  C   C1        1.0  0.46351  0.21054  0.35117  1.0000
  C   C2        1.0  0.78949  0.53660  0.14881  1.0000
  C   C3        1.0  0.53649  0.78946  0.64883  1.0000
  C   C4        1.0  0.21051  0.46340  0.85119  1.0000
  C   C5        1.0  0.37921  0.33287  0.10050  1.0000
  C   C6        1.0  0.66718  0.62074  0.39949  1.0000
  C   C7        1.0  0.62078  0.66713  0.89950  1.0000
  C   C8        1.0  0.33282  0.37926  0.60051  1.0000
  C   C9        1.0  0.21999  0.20094  0.30431  1.0000
  C   C10       1.0  0.79901  0.77998  0.19569  1.0000
  C   C11       1.0  0.78000  0.79907  0.69569  1.0000
  C   C12       1.0  0.20099  0.22002  0.80432  1.0000
  C   C13       1.0  0.41839  0.26020  0.22589  1.0000
  C   C14       1.0  0.73980  0.58170  0.27410  1.0000
  C   C15       1.0  0.58161  0.73980  0.77412  1.0000
  C   C16       1.0  0.26021  0.41830  0.72590  1.0000
  C   C17       1.0  0.17714  0.26276  0.18170  1.0000
  C   C18       1.0  0.73720  0.82277  0.31831  1.0000
  C   C19       1.0  0.82286  0.73724  0.81830  1.0000
  C   C20       1.0  0.26281  0.17723  0.68169  1.0000
  C   C21       1.0  0.36611  0.22123  0.29280  1.0000
  C   C22       1.0  0.77874  0.63396  0.20719  1.0000
  C   C23       1.0  0.63389  0.77877  0.70720  1.0000
  C   C24       1.0  0.22126  0.36604  0.79281  1.0000
  C   C25       1.0  0.12665  0.22053  0.24860  1.0000
  C   C26       1.0  0.77942  0.87325  0.25140  1.0000
  C   C27       1.0  0.87334  0.77948  0.75140  1.0000
  C   C28       1.0  0.22058  0.12675  0.74860  1.0000
  C   C29       1.0  0.32336  0.28202  0.17070  1.0000
  C   C30       1.0  0.71799  0.67662  0.32930  1.0000
  C   C31       1.0  0.67663  0.71798  0.82930  1.0000
  C   C32       1.0  0.28201  0.32338  0.67070  1.0000
  C   C33       1.0  0.75395  0.33272  0.58719  1.0000
  C   C34       1.0  0.66728  0.24609  0.91282  1.0000
  C   C35       1.0  0.24605  0.66728  0.41281  1.0000
  C   C36       1.0  0.33273  0.75392  0.08718  1.0000
  C   C37       1.0  0.72033  0.25577  0.71343  1.0000
  C   C38       1.0  0.74427  0.27965  0.78657  1.0000
  C   C39       1.0  0.27967  0.74424  0.28656  1.0000
  C   C40       1.0  0.25573  0.72035  0.21343  1.0000
  C   C41       1.0  0.80310  0.33544  0.65778  1.0000
  C   C42       1.0  0.66453  0.19695  0.84222  1.0000
  C   C43       1.0  0.19690  0.66456  0.34222  1.0000
  C   C44       1.0  0.33547  0.80305  0.15778  1.0000
  O   O1        1.0  0.60181  0.22253  0.33740  1.0000
  O   O2        1.0  0.77746  0.39842  0.16257  1.0000
  O   O3        1.0  0.39819  0.77747  0.66260  1.0000
  O   O4        1.0  0.22253  0.60158  0.83743  1.0000
  O   O5        1.0  0.53945  0.27509  0.08797  1.0000
  O   O6        1.0  0.72491  0.46065  0.41200  1.0000
  O   O7        1.0  0.46054  0.72492  0.91203  1.0000
  O   O8        1.0  0.27509  0.53935  0.58800  1.0000
  O   O9        1.0  0.61950  0.45613  0.56295  1.0000
  O   O10       1.0  0.54390  0.38061  0.93701  1.0000
  O   O11       1.0  0.38050  0.54387  0.43705  1.0000
  O   O12       1.0  0.45610  0.61938  0.06299  1.0000
  O   O13       1.0  0.84313  0.20045  0.55260  1.0000
  O   O14       1.0  0.79955  0.15683  0.94744  1.0000
  O   O15       1.0  0.15687  0.79956  0.44739  1.0000
  O   O16       1.0  0.20045  0.84317  0.05256  1.0000
  O   O17       1.0  0.26488  0.43210  0.05991  1.0000
  O   O18       1.0  0.56797  0.73498  0.44012  1.0000
  O   O19       1.0  0.73512  0.56790  0.94009  1.0000
  O   O20       1.0  0.43203  0.26502  0.55988  1.0000
  O   O21       1.0  0.98716  0.19548  0.26129  1.0000
  O   O22       1.0  0.80454  0.01259  0.23870  1.0000
  O   O23       1.0  0.01284  0.80453  0.73871  1.0000
  O   O24       1.0  0.19546  0.98741  0.76130  1.0000
  O   O25       1.0  0.92022  0.09870  0.40091  1.0000
  O   O26       1.0  0.90125  0.07988  0.09910  1.0000
  O   O27       1.0  0.07978  0.90130  0.59909  1.0000
  O   O28       1.0  0.09874  0.92012  0.90090  1.0000
  O   O29       1.0  0.41119  0.19569  0.41388  1.0000
  O   O30       1.0  0.80439  0.58883  0.08610  1.0000
  O   O31       1.0  0.58881  0.80431  0.58612  1.0000
  O   O32       1.0  0.19561  0.41117  0.91390  1.0000
  O   O33       1.0  0.75224  0.94618  0.49956  1.0000
  O   O34       1.0  0.05391  0.24775  0.00046  1.0000
  O   O35       1.0  0.24776  0.05382  0.50044  1.0000
  O   O36       1.0  0.94609  0.75225  0.99955  1.0000
