data_image0
_chemical_formula_structural       Zn4H32C40N16O16
_chemical_formula_sum              "Zn4 H32 C40 N16 O16"
_cell_length_a       7.92975
_cell_length_b       7.92976
_cell_length_c       17.7528
_cell_angle_alpha    90
_cell_angle_beta     90
_cell_angle_gamma    90

_space_group_name_H-M_alt    "P 1"
_space_group_IT_number       1

loop_
  _space_group_symop_operation_xyz
  'x, y, z'

loop_
  _atom_site_type_symbol
  _atom_site_label
  _atom_site_symmetry_multiplicity
  _atom_site_fract_x
  _atom_site_fract_y
  _atom_site_fract_z
  _atom_site_occupancy
  Zn  Zn1       1.0  0.25370  0.25370  0.00000  1.0000
  Zn  Zn2       1.0  0.24630  0.75370  0.25000  1.0000
  Zn  Zn3       1.0  0.75370  0.24630  0.75000  1.0000
  Zn  Zn4       1.0  0.74630  0.74630  0.50000  1.0000
  H   H1        1.0  0.57827  0.31646  0.08203  1.0000
  H   H2        1.0  0.18354  0.07827  0.33203  1.0000
  H   H3        1.0  0.81646  0.92173  0.83203  1.0000
  H   H4        1.0  0.07827  0.18354  0.66797  1.0000
  H   H5        1.0  0.92173  0.81646  0.16797  1.0000
  H   H6        1.0  0.42173  0.68354  0.58203  1.0000
  H   H7        1.0  0.31646  0.57827  0.91797  1.0000
  H   H8        1.0  0.68354  0.42173  0.41797  1.0000
  H   H9        1.0  0.81297  0.52778  0.08229  1.0000
  H   H10       1.0  0.97221  0.31297  0.33229  1.0000
  H   H11       1.0  0.02779  0.68703  0.83229  1.0000
  H   H12       1.0  0.31297  0.97222  0.66771  1.0000
  H   H13       1.0  0.68702  0.02778  0.16771  1.0000
  H   H14       1.0  0.18703  0.47222  0.58229  1.0000
  H   H15       1.0  0.52779  0.81297  0.91771  1.0000
  H   H16       1.0  0.47221  0.18703  0.41771  1.0000
  H   H17       1.0  0.03027  0.64608  0.98982  1.0000
  H   H18       1.0  0.85393  0.53028  0.23982  1.0000
  H   H19       1.0  0.14607  0.46972  0.73982  1.0000
  H   H20       1.0  0.53028  0.85392  0.76018  1.0000
  H   H21       1.0  0.46973  0.14608  0.26018  1.0000
  H   H22       1.0  0.96972  0.35392  0.48982  1.0000
  H   H23       1.0  0.64607  0.03028  0.01018  1.0000
  H   H24       1.0  0.35393  0.96972  0.51018  1.0000
  H   H25       1.0  0.24467  0.87732  0.99027  1.0000
  H   H26       1.0  0.62267  0.74468  0.24027  1.0000
  H   H27       1.0  0.37733  0.25532  0.74027  1.0000
  H   H28       1.0  0.74468  0.62268  0.75973  1.0000
  H   H29       1.0  0.25533  0.37732  0.25973  1.0000
  H   H30       1.0  0.75532  0.12268  0.49027  1.0000
  H   H31       1.0  0.87733  0.24468  0.00973  1.0000
  H   H32       1.0  0.12267  0.75532  0.50974  1.0000
  C   C1        1.0  0.57512  0.42647  0.04526  1.0000
  C   C2        1.0  0.07353  0.07511  0.29526  1.0000
  C   C3        1.0  0.92647  0.92489  0.79526  1.0000
  C   C4        1.0  0.07512  0.07353  0.70474  1.0000
  C   C5        1.0  0.92488  0.92647  0.20474  1.0000
  C   C6        1.0  0.42488  0.57353  0.54526  1.0000
  C   C7        1.0  0.42647  0.57512  0.95474  1.0000
  C   C8        1.0  0.57353  0.42489  0.45474  1.0000
  C   C9        1.0  0.70362  0.54554  0.04578  1.0000
  C   C10       1.0  0.95445  0.20362  0.29578  1.0000
  C   C11       1.0  0.04554  0.79639  0.79578  1.0000
  C   C12       1.0  0.20362  0.95446  0.70422  1.0000
  C   C13       1.0  0.79638  0.04554  0.20422  1.0000
  C   C14       1.0  0.29638  0.45446  0.54578  1.0000
  C   C15       1.0  0.54555  0.70362  0.95422  1.0000
  C   C16       1.0  0.45445  0.29638  0.45422  1.0000
  C   C17       1.0  0.68870  0.68869  0.00000  1.0000
  C   C18       1.0  0.81130  0.18870  0.25000  1.0000
  C   C19       1.0  0.18870  0.81130  0.75000  1.0000
  C   C20       1.0  0.31130  0.31130  0.50000  1.0000
  C   C21       1.0  0.82013  0.82014  0.00000  1.0000
  C   C22       1.0  0.67987  0.32013  0.25000  1.0000
  C   C23       1.0  0.32013  0.67986  0.75000  1.0000
  C   C24       1.0  0.17987  0.17986  0.50000  1.0000
  C   C25       1.0  0.99116  0.77720  0.99526  1.0000
  C   C26       1.0  0.72281  0.49116  0.24526  1.0000
  C   C27       1.0  0.27719  0.50884  0.74526  1.0000
  C   C28       1.0  0.49116  0.72280  0.75473  1.0000
  C   C29       1.0  0.50884  0.27720  0.25474  1.0000
  C   C30       1.0  0.00884  0.22280  0.49527  1.0000
  C   C31       1.0  0.77720  0.99116  0.00474  1.0000
  C   C32       1.0  0.22281  0.00883  0.50474  1.0000
  C   C33       1.0  0.11074  0.90507  0.99484  1.0000
  C   C34       1.0  0.59492  0.61074  0.24485  1.0000
  C   C35       1.0  0.40508  0.38926  0.74485  1.0000
  C   C36       1.0  0.61074  0.59492  0.75515  1.0000
  C   C37       1.0  0.38926  0.40508  0.25516  1.0000
  C   C38       1.0  0.88926  0.09492  0.49485  1.0000
  C   C39       1.0  0.90508  0.11074  0.00515  1.0000
  C   C40       1.0  0.09492  0.88925  0.50515  1.0000
  N   N1        1.0  0.50553  0.18790  0.87775  1.0000
  N   N2        1.0  0.31210  0.00553  0.12775  1.0000
  N   N3        1.0  0.68790  0.99447  0.62775  1.0000
  N   N4        1.0  0.00553  0.31210  0.87225  1.0000
  N   N5        1.0  0.99447  0.68790  0.37225  1.0000
  N   N6        1.0  0.49447  0.81210  0.37775  1.0000
  N   N7        1.0  0.18790  0.50553  0.12225  1.0000
  N   N8        1.0  0.81210  0.49447  0.62225  1.0000
  N   N9        1.0  0.43943  0.43943  1.00000  1.0000
  N   N10       1.0  0.06056  0.93943  0.25000  1.0000
  N   N11       1.0  0.93943  0.06057  0.75000  1.0000
  N   N12       1.0  0.56057  0.56057  0.50000  1.0000
  N   N13       1.0  0.06909  0.06909  0.00000  1.0000
  N   N14       1.0  0.43091  0.56909  0.25000  1.0000
  N   N15       1.0  0.56909  0.43091  0.75000  1.0000
  N   N16       1.0  0.93091  0.93091  0.50000  1.0000
  O   O1        1.0  0.60031  0.09863  0.83548  1.0000
  O   O2        1.0  0.40137  0.10031  0.08548  1.0000
  O   O3        1.0  0.59864  0.89969  0.58548  1.0000
  O   O4        1.0  0.10031  0.40136  0.91452  1.0000
  O   O5        1.0  0.89969  0.59864  0.41452  1.0000
  O   O6        1.0  0.39969  0.90137  0.33548  1.0000
  O   O7        1.0  0.09863  0.60031  0.16452  1.0000
  O   O8        1.0  0.90136  0.39969  0.66452  1.0000
  O   O9        1.0  0.40450  0.10120  0.91782  1.0000
  O   O10       1.0  0.39880  0.90450  0.16782  1.0000
  O   O11       1.0  0.60120  0.09550  0.66782  1.0000
  O   O12       1.0  0.90450  0.39880  0.83218  1.0000
  O   O13       1.0  0.09550  0.60120  0.33218  1.0000
  O   O14       1.0  0.59550  0.89880  0.41782  1.0000
  O   O15       1.0  0.10120  0.40450  0.08218  1.0000
  O   O16       1.0  0.89880  0.59550  0.58218  1.0000
