data_image0
_chemical_formula_structural       Mn2P2H32C52N4O12
_chemical_formula_sum              "Mn2 P2 H32 C52 N4 O12"
_cell_length_a       9.6344
_cell_length_b       11.02
_cell_length_c       11.5825
_cell_angle_alpha    87.9867
_cell_angle_beta     79.2257
_cell_angle_gamma    67.6891

_space_group_name_H-M_alt    "P 1"
_space_group_IT_number       1

loop_
  _space_group_symop_operation_xyz
  'x, y, z'

loop_
  _atom_site_type_symbol
  _atom_site_label
  _atom_site_symmetry_multiplicity
  _atom_site_fract_x
  _atom_site_fract_y
  _atom_site_fract_z
  _atom_site_occupancy
  Mn  Mn1       1.0  0.06457  0.30104  0.35451  1.0000
  Mn  Mn2       1.0  0.93543  0.69896  0.64549  1.0000
  P   P1        1.0  0.17340  0.35475  0.59262  1.0000
  P   P2        1.0  0.82659  0.64525  0.40738  1.0000
  H   H1        1.0  0.19576  0.46307  0.80494  1.0000
  H   H2        1.0  0.80424  0.53693  0.19505  1.0000
  H   H3        1.0  0.14458  0.41547  0.01656  1.0000
  H   H4        1.0  0.85543  0.58453  0.98343  1.0000
  H   H5        1.0  0.00942  0.10624  0.92625  1.0000
  H   H6        1.0  0.99058  0.89376  0.07375  1.0000
  H   H7        1.0  0.06450  0.14950  0.71476  1.0000
  H   H8        1.0  0.93550  0.85049  0.28525  1.0000
  H   H9        1.0  0.38480  0.10995  0.47097  1.0000
  H   H10       1.0  0.61520  0.89004  0.52904  1.0000
  H   H11       1.0  0.66761  0.02224  0.39534  1.0000
  H   H12       1.0  0.33239  0.97776  0.60466  1.0000
  H   H13       1.0  0.68903  0.37206  0.52637  1.0000
  H   H14       1.0  0.31097  0.62794  0.47363  1.0000
  H   H15       1.0  0.40782  0.45911  0.60618  1.0000
  H   H16       1.0  0.59218  0.54089  0.39381  1.0000
  H   H17       1.0  0.11671  0.56569  0.36360  1.0000
  H   H18       1.0  0.88329  0.43432  0.63641  1.0000
  H   H19       1.0  0.29528  0.65666  0.24575  1.0000
  H   H20       1.0  0.70471  0.34334  0.75424  1.0000
  H   H21       1.0  0.53340  0.50347  0.11450  1.0000
  H   H22       1.0  0.46659  0.49654  0.88550  1.0000
  H   H23       1.0  0.69646  0.27028  0.03859  1.0000
  H   H24       1.0  0.30353  0.72972  0.96140  1.0000
  H   H25       1.0  0.73276  0.03643  0.03101  1.0000
  H   H26       1.0  0.26723  0.96358  0.96899  1.0000
  H   H27       1.0  0.63775  0.85533  0.10597  1.0000
  H   H28       1.0  0.36224  0.14467  0.89404  1.0000
  H   H29       1.0  0.43396  0.79448  0.22954  1.0000
  H   H30       1.0  0.56602  0.20553  0.77048  1.0000
  H   H31       1.0  0.19452  0.97463  0.33652  1.0000
  H   H32       1.0  0.80547  0.02538  0.66350  1.0000
  C   C1        1.0  0.13553  0.30900  0.74488  1.0000
  C   C2        1.0  0.86447  0.69099  0.25511  1.0000
  C   C3        1.0  0.15830  0.38274  0.83110  1.0000
  C   C4        1.0  0.84171  0.61725  0.16890  1.0000
  C   C5        1.0  0.12744  0.35766  0.95012  1.0000
  C   C6        1.0  0.87257  0.64234  0.04988  1.0000
  C   C7        1.0  0.07237  0.25864  0.98598  1.0000
  C   C8        1.0  0.92764  0.74136  0.01402  1.0000
  C   C9        1.0  0.04976  0.18499  0.89965  1.0000
  C   C10       1.0  0.95024  0.81500  0.10035  1.0000
  C   C11       1.0  0.08147  0.20917  0.78011  1.0000
  C   C12       1.0  0.91854  0.79082  0.21990  1.0000
  C   C13       1.0  0.04791  0.22256  0.11389  1.0000
  C   C14       1.0  0.95211  0.77742  0.88610  1.0000
  C   C15       1.0  0.37861  0.28909  0.54430  1.0000
  C   C16       1.0  0.62140  0.71090  0.45570  1.0000
  C   C17       1.0  0.45226  0.16589  0.48527  1.0000
  C   C18       1.0  0.54775  0.83410  0.51473  1.0000
  C   C19       1.0  0.60914  0.11706  0.44270  1.0000
  C   C20       1.0  0.39086  0.88294  0.55730  1.0000
  C   C21       1.0  0.69451  0.19123  0.45817  1.0000
  C   C22       1.0  0.30549  0.80877  0.54183  1.0000
  C   C23       1.0  0.62130  0.31431  0.51761  1.0000
  C   C24       1.0  0.37870  0.68569  0.48238  1.0000
  C   C25       1.0  0.46476  0.36258  0.56153  1.0000
  C   C26       1.0  0.53524  0.63742  0.43846  1.0000
  C   C27       1.0  0.86377  0.13951  0.40965  1.0000
  C   C28       1.0  0.13623  0.86049  0.59035  1.0000
  C   C29       1.0  0.21587  0.50251  0.30191  1.0000
  C   C30       1.0  0.78413  0.49749  0.69809  1.0000
  C   C31       1.0  0.32003  0.55210  0.23717  1.0000
  C   C32       1.0  0.67997  0.44791  0.76283  1.0000
  C   C33       1.0  0.45011  0.46769  0.16525  1.0000
  C   C34       1.0  0.54988  0.53232  0.83475  1.0000
  C   C35       1.0  0.47681  0.33262  0.15825  1.0000
  C   C36       1.0  0.52319  0.66738  0.84175  1.0000
  C   C37       1.0  0.61011  0.23740  0.08842  1.0000
  C   C38       1.0  0.38989  0.76261  0.91157  1.0000
  C   C39       1.0  0.63067  0.10770  0.08477  1.0000
  C   C40       1.0  0.36933  0.89230  0.91523  1.0000
  C   C41       1.0  0.51933  0.06314  0.15172  1.0000
  C   C42       1.0  0.48066  0.93687  0.84829  1.0000
  C   C43       1.0  0.53554  0.93013  0.15573  1.0000
  C   C44       1.0  0.46445  0.06987  0.84427  1.0000
  C   C45       1.0  0.42219  0.89663  0.22338  1.0000
  C   C46       1.0  0.57780  0.10338  0.77664  1.0000
  C   C47       1.0  0.29042  0.99529  0.28614  1.0000
  C   C48       1.0  0.70957  0.00473  0.71387  1.0000
  C   C49       1.0  0.38512  0.15511  0.22039  1.0000
  C   C50       1.0  0.61488  0.84490  0.77961  1.0000
  C   C51       1.0  0.36367  0.29128  0.22403  1.0000
  C   C52       1.0  0.63633  0.70872  0.77597  1.0000
  N   N1        1.0  0.23495  0.37670  0.29295  1.0000
  N   N2        1.0  0.76505  0.62330  0.70705  1.0000
  N   N3        1.0  0.27437  0.12056  0.28525  1.0000
  N   N4        1.0  0.72563  0.87945  0.71476  1.0000
  O   O1        1.0  0.10760  0.28543  0.51664  1.0000
  O   O2        1.0  0.89240  0.71456  0.48336  1.0000
  O   O3        1.0  0.11474  0.50319  0.59277  1.0000
  O   O4        1.0  0.88526  0.49680  0.40723  1.0000
  O   O5        1.0  0.03917  0.31316  0.18967  1.0000
  O   O6        1.0  0.96083  0.68685  0.81033  1.0000
  O   O7        1.0  0.04183  0.11415  0.13765  1.0000
  O   O8        1.0  0.95821  0.88584  0.86236  1.0000
  O   O9        1.0  0.91337  0.23541  0.40278  1.0000
  O   O10       1.0  0.08662  0.76459  0.59721  1.0000
  O   O11       1.0  0.93836  0.02248  0.38289  1.0000
  O   O12       1.0  0.06164  0.97753  0.61711  1.0000
