data_image0
_chemical_formula_structural       Gd2H32C30O22
_chemical_formula_sum              "Gd2 H32 C30 O22"
_cell_length_a       7.53252
_cell_length_b       9.39319
_cell_length_c       13.0505
_cell_angle_alpha    102.552
_cell_angle_beta     99.5136
_cell_angle_gamma    107.691

_space_group_name_H-M_alt    "P 1"
_space_group_IT_number       1

loop_
  _space_group_symop_operation_xyz
  'x, y, z'

loop_
  _atom_site_type_symbol
  _atom_site_label
  _atom_site_symmetry_multiplicity
  _atom_site_fract_x
  _atom_site_fract_y
  _atom_site_fract_z
  _atom_site_occupancy
  Gd  Gd1       1.0  0.64771  0.21492  0.01159  1.0000
  Gd  Gd2       1.0  0.35228  0.78508  0.98841  1.0000
  H   H1        1.0  0.28176  0.24413  0.27974  1.0000
  H   H2        1.0  0.71824  0.75587  0.72025  1.0000
  H   H3        1.0  0.08232  0.22000  0.17739  1.0000
  H   H4        1.0  0.91768  0.77999  0.82261  1.0000
  H   H5        1.0  0.88991  0.76935  0.26138  1.0000
  H   H6        1.0  0.11009  0.23065  0.73862  1.0000
  H   H7        1.0  0.95073  0.68679  0.43114  1.0000
  H   H8        1.0  0.04928  0.31320  0.56886  1.0000
  H   H9        1.0  0.42520  0.12186  0.57572  1.0000
  H   H10       1.0  0.57481  0.87813  0.42428  1.0000
  H   H11       1.0  0.35717  0.20424  0.41462  1.0000
  H   H12       1.0  0.64283  0.79575  0.58538  1.0000
  H   H13       1.0  0.29262  0.06360  0.71642  1.0000
  H   H14       1.0  0.70738  0.93640  0.28358  1.0000
  H   H15       1.0  0.48265  0.99112  0.70275  1.0000
  H   H16       1.0  0.51735  0.00888  0.29725  1.0000
  H   H17       1.0  0.35543  0.36738  0.72003  1.0000
  H   H18       1.0  0.64458  0.63263  0.27997  1.0000
  H   H19       1.0  0.52654  0.55033  0.80484  1.0000
  H   H20       1.0  0.47345  0.44967  0.19516  1.0000
  H   H21       1.0  0.33787  0.54938  0.64830  1.0000
  H   H22       1.0  0.66213  0.45061  0.35169  1.0000
  H   H23       1.0  0.76627  0.39652  0.52285  1.0000
  H   H24       1.0  0.23373  0.60347  0.47715  1.0000
  H   H25       1.0  0.07304  0.39603  0.00106  1.0000
  H   H26       1.0  0.92696  0.60397  0.99895  1.0000
  H   H27       1.0  0.99232  0.21439  0.97492  1.0000
  H   H28       1.0  0.00768  0.78561  0.02508  1.0000
  H   H29       1.0  0.69529  0.56667  0.08976  1.0000
  H   H30       1.0  0.30471  0.43334  0.91024  1.0000
  H   H31       1.0  0.88524  0.54507  0.15426  1.0000
  H   H32       1.0  0.11476  0.45494  0.84573  1.0000
  C   C1        1.0  0.27142  0.10787  0.12223  1.0000
  C   C2        1.0  0.72857  0.89213  0.87777  1.0000
  C   C3        1.0  0.17241  0.15874  0.20875  1.0000
  C   C4        1.0  0.82759  0.84126  0.79125  1.0000
  C   C5        1.0  0.11530  0.99166  0.32658  1.0000
  C   C6        1.0  0.88470  0.00833  0.67342  1.0000
  C   C7        1.0  0.00660  0.84417  0.33177  1.0000
  C   C8        1.0  0.99340  0.15584  0.66823  1.0000
  C   C9        1.0  0.04114  0.79838  0.42513  1.0000
  C   C10       1.0  0.95886  0.20162  0.57487  1.0000
  C   C11       1.0  0.18938  0.89884  0.51523  1.0000
  C   C12       1.0  0.81063  0.10116  0.48478  1.0000
  C   C13       1.0  0.30485  0.04284  0.50863  1.0000
  C   C14       1.0  0.69515  0.95716  0.49137  1.0000
  C   C15       1.0  0.26726  0.08937  0.41485  1.0000
  C   C16       1.0  0.73275  0.91064  0.58515  1.0000
  C   C17       1.0  0.32868  0.95692  0.70338  1.0000
  C   C18       1.0  0.67131  0.04308  0.29662  1.0000
  C   C19       1.0  0.30544  0.89537  0.80022  1.0000
  C   C20       1.0  0.69456  0.10463  0.19978  1.0000
  C   C21       1.0  0.55762  0.35157  0.84612  1.0000
  C   C22       1.0  0.44238  0.64844  0.15388  1.0000
  C   C23       1.0  0.50860  0.42956  0.76226  1.0000
  C   C24       1.0  0.49141  0.57045  0.23774  1.0000
  C   C25       1.0  0.55945  0.46645  0.59632  1.0000
  C   C26       1.0  0.44055  0.53355  0.40368  1.0000
  C   C27       1.0  0.40802  0.52417  0.58358  1.0000
  C   C28       1.0  0.59198  0.47583  0.41642  1.0000
  C   C29       1.0  0.65147  0.44382  0.51300  1.0000
  C   C30       1.0  0.34853  0.55618  0.48700  1.0000
  O   O1        1.0  0.39905  0.21512  0.10229  1.0000
  O   O2        1.0  0.60094  0.78488  0.89771  1.0000
  O   O3        1.0  0.22083  0.96314  0.07580  1.0000
  O   O4        1.0  0.77917  0.03686  0.92420  1.0000
  O   O5        1.0  0.05106  0.03018  0.23477  1.0000
  O   O6        1.0  0.94895  0.96982  0.76523  1.0000
  O   O7        1.0  0.20920  0.84518  0.60541  1.0000
  O   O8        1.0  0.79080  0.15482  0.39459  1.0000
  O   O9        1.0  0.39165  0.99626  0.89405  1.0000
  O   O10       1.0  0.60834  0.00374  0.10595  1.0000
  O   O11       1.0  0.21682  0.75501  0.79337  1.0000
  O   O12       1.0  0.78317  0.24499  0.20663  1.0000
  O   O13       1.0  0.44991  0.33976  0.91366  1.0000
  O   O14       1.0  0.55009  0.66024  0.08634  1.0000
  O   O15       1.0  0.69474  0.30063  0.85198  1.0000
  O   O16       1.0  0.30526  0.69938  0.14802  1.0000
  O   O17       1.0  0.62370  0.42631  0.68696  1.0000
  O   O18       1.0  0.37631  0.57370  0.31304  1.0000
  O   O19       1.0  0.00297  0.31090  0.02808  1.0000
  O   O20       1.0  0.99703  0.68910  0.97193  1.0000
  O   O21       1.0  0.78380  0.50268  0.08715  1.0000
  O   O22       1.0  0.21620  0.49733  0.91284  1.0000
