data_image0
_chemical_formula_structural       Tb2H32C30O22
_chemical_formula_sum              "Tb2 H32 C30 O22"
_cell_length_a       8.02889
_cell_length_b       9.34773
_cell_length_c       12.7802
_cell_angle_alpha    104.759
_cell_angle_beta     95.3906
_cell_angle_gamma    109.782

_space_group_name_H-M_alt    "P 1"
_space_group_IT_number       1

loop_
  _space_group_symop_operation_xyz
  'x, y, z'

loop_
  _atom_site_type_symbol
  _atom_site_label
  _atom_site_symmetry_multiplicity
  _atom_site_fract_x
  _atom_site_fract_y
  _atom_site_fract_z
  _atom_site_occupancy
  Tb  Tb1       1.0  0.63600  0.22259  0.51285  1.0000
  Tb  Tb2       1.0  0.36399  0.77740  0.48715  1.0000
  H   H1        1.0  0.53828  0.01110  0.80610  1.0000
  H   H2        1.0  0.46170  0.98888  0.19390  1.0000
  H   H3        1.0  0.71614  0.94261  0.77611  1.0000
  H   H4        1.0  0.28385  0.05738  0.22389  1.0000
  H   H5        1.0  0.59214  0.88535  0.92793  1.0000
  H   H6        1.0  0.40788  0.11466  0.07208  1.0000
  H   H7        1.0  0.65893  0.80722  0.08888  1.0000
  H   H8        1.0  0.34109  0.19279  0.91113  1.0000
  H   H9        1.0  0.09088  0.26627  0.23789  1.0000
  H   H10       1.0  0.90914  0.73374  0.76211  1.0000
  H   H11       1.0  0.03343  0.34059  0.06757  1.0000
  H   H12       1.0  0.96659  0.65941  0.93243  1.0000
  H   H13       1.0  0.93090  0.80906  0.32388  1.0000
  H   H14       1.0  0.06911  0.19094  0.67612  1.0000
  H   H15       1.0  0.74808  0.76226  0.21689  1.0000
  H   H16       1.0  0.25194  0.23775  0.78311  1.0000
  H   H17       1.0  0.35580  0.33701  0.21849  1.0000
  H   H18       1.0  0.64418  0.66299  0.78150  1.0000
  H   H19       1.0  0.50484  0.53094  0.30282  1.0000
  H   H20       1.0  0.49514  0.46905  0.69717  1.0000
  H   H21       1.0  0.74740  0.39753  0.00707  1.0000
  H   H22       1.0  0.25261  0.60247  0.99293  1.0000
  H   H23       1.0  0.34278  0.53625  0.15763  1.0000
  H   H24       1.0  0.65721  0.46375  0.84237  1.0000
  H   H25       1.0  0.68413  0.57004  0.58275  1.0000
  H   H26       1.0  0.31586  0.42994  0.41725  1.0000
  H   H27       1.0  0.86825  0.55618  0.55729  1.0000
  H   H28       1.0  0.13175  0.44382  0.44270  1.0000
  H   H29       1.0  0.05356  0.36741  0.59291  1.0000
  H   H30       1.0  0.94643  0.63258  0.40709  1.0000
  H   H31       1.0  0.96642  0.22318  0.47984  1.0000
  H   H32       1.0  0.03356  0.77683  0.52016  1.0000
  C   C1        1.0  0.69077  0.10920  0.69685  1.0000
  C   C2        1.0  0.30922  0.89078  0.30314  1.0000
  C   C3        1.0  0.68077  0.04939  0.79624  1.0000
  C   C4        1.0  0.31922  0.95060  0.20377  1.0000
  C   C5        1.0  0.81562  0.11575  0.98412  1.0000
  C   C6        1.0  0.18437  0.88424  0.01588  1.0000
  C   C7        1.0  0.70677  0.96864  0.99284  1.0000
  C   C8        1.0  0.29324  0.03136  0.00716  1.0000
  C   C9        1.0  0.74360  0.92485  0.08695  1.0000
  C   C10       1.0  0.25641  0.07515  0.91305  1.0000
  C   C11       1.0  0.88787  0.02904  0.17264  1.0000
  C   C12       1.0  0.11215  0.97097  0.82737  1.0000
  C   C13       1.0  0.98721  0.18143  0.16716  1.0000
  C   C14       1.0  0.01281  0.81858  0.83284  1.0000
  C   C15       1.0  0.95294  0.22396  0.07347  1.0000
  C   C16       1.0  0.04708  0.77605  0.92653  1.0000
  C   C17       1.0  0.83942  0.85803  0.28953  1.0000
  C   C18       1.0  0.16059  0.14198  0.71048  1.0000
  C   C19       1.0  0.72991  0.90102  0.37548  1.0000
  C   C20       1.0  0.27009  0.09896  0.62451  1.0000
  C   C21       1.0  0.54913  0.33978  0.34456  1.0000
  C   C22       1.0  0.45086  0.66023  0.65544  1.0000
  C   C23       1.0  0.49768  0.41034  0.25924  1.0000
  C   C24       1.0  0.50231  0.58966  0.74076  1.0000
  C   C25       1.0  0.55264  0.46117  0.09308  1.0000
  C   C26       1.0  0.44734  0.53882  0.90692  1.0000
  C   C27       1.0  0.64055  0.44423  0.00419  1.0000
  C   C28       1.0  0.35944  0.55577  0.99580  1.0000
  C   C29       1.0  0.41183  0.51804  0.08905  1.0000
  C   C30       1.0  0.58816  0.48196  0.91094  1.0000
  O   O1        1.0  0.78502  0.24939  0.69962  1.0000
  O   O2        1.0  0.21497  0.75061  0.30038  1.0000
  O   O3        1.0  0.58971  0.00684  0.60548  1.0000
  O   O4        1.0  0.41027  0.99315  0.39452  1.0000
  O   O5        1.0  0.79862  0.16652  0.89246  1.0000
  O   O6        1.0  0.20137  0.83348  0.10755  1.0000
  O   O7        1.0  0.95087  0.99306  0.26368  1.0000
  O   O8        1.0  0.04915  0.00694  0.73632  1.0000
  O   O9        1.0  0.77716  0.04761  0.42978  1.0000
  O   O10       1.0  0.22285  0.95241  0.57023  1.0000
  O   O11       1.0  0.60015  0.78687  0.38773  1.0000
  O   O12       1.0  0.39986  0.21315  0.61226  1.0000
  O   O13       1.0  0.44661  0.32540  0.41627  1.0000
  O   O14       1.0  0.55338  0.67459  0.58373  1.0000
  O   O15       1.0  0.68329  0.29811  0.34798  1.0000
  O   O16       1.0  0.31668  0.70189  0.65202  1.0000
  O   O17       1.0  0.61076  0.41681  0.18043  1.0000
  O   O18       1.0  0.38923  0.58319  0.81958  1.0000
  O   O19       1.0  0.76196  0.50613  0.58759  1.0000
  O   O20       1.0  0.23803  0.49387  0.41240  1.0000
  O   O21       1.0  0.98415  0.33574  0.51835  1.0000
  O   O22       1.0  0.01585  0.66427  0.48164  1.0000
