data_image0
_chemical_formula_structural       Sm2H32C30O22
_chemical_formula_sum              "Sm2 H32 C30 O22"
_cell_length_a       7.58072
_cell_length_b       9.45738
_cell_length_c       13.0518
_cell_angle_alpha    103.07
_cell_angle_beta     99.4082
_cell_angle_gamma    107.587

_space_group_name_H-M_alt    "P 1"
_space_group_IT_number       1

loop_
  _space_group_symop_operation_xyz
  'x, y, z'

loop_
  _atom_site_type_symbol
  _atom_site_label
  _atom_site_symmetry_multiplicity
  _atom_site_fract_x
  _atom_site_fract_y
  _atom_site_fract_z
  _atom_site_occupancy
  Sm  Sm1       1.0  0.85150  0.28361  0.48732  1.0000
  Sm  Sm2       1.0  0.14851  0.71640  0.51268  1.0000
  H   H1        1.0  0.41990  0.28070  0.32269  1.0000
  H   H2        1.0  0.58009  0.71931  0.67732  1.0000
  H   H3        1.0  0.22304  0.25464  0.21900  1.0000
  H   H4        1.0  0.77695  0.74536  0.78101  1.0000
  H   H5        1.0  0.14281  0.29724  0.08580  1.0000
  H   H6        1.0  0.85719  0.70275  0.91420  1.0000
  H   H7        1.0  0.07321  0.38032  0.92593  1.0000
  H   H8        1.0  0.92678  0.61967  0.07407  1.0000
  H   H9        1.0  0.54922  0.81058  0.07096  1.0000
  H   H10       1.0  0.45077  0.18941  0.92903  1.0000
  H   H11       1.0  0.61364  0.72655  0.23892  1.0000
  H   H12       1.0  0.38634  0.27346  0.76108  1.0000
  H   H13       1.0  0.01817  0.51145  0.79908  1.0000
  H   H14       1.0  0.98181  0.48855  0.20091  1.0000
  H   H15       1.0  0.20507  0.43733  0.78382  1.0000
  H   H16       1.0  0.79492  0.56268  0.21618  1.0000
  H   H17       1.0  0.97235  0.94978  0.69513  1.0000
  H   H18       1.0  0.02764  0.05021  0.30486  1.0000
  H   H19       1.0  0.14287  0.13229  0.78011  1.0000
  H   H20       1.0  0.85714  0.86770  0.21988  1.0000
  H   H21       1.0  0.16067  0.95081  0.85102  1.0000
  H   H22       1.0  0.83936  0.04920  0.14899  1.0000
  H   H23       1.0  0.73659  0.10426  0.97882  1.0000
  H   H24       1.0  0.26345  0.89574  0.02119  1.0000
  H   H25       1.0  0.61046  0.94796  0.34477  1.0000
  H   H26       1.0  0.38954  0.05206  0.65523  1.0000
  H   H27       1.0  0.80278  0.93026  0.40816  1.0000
  H   H28       1.0  0.19722  0.06974  0.59184  1.0000
  H   H29       1.0  0.42451  0.10524  0.49889  1.0000
  H   H30       1.0  0.57549  0.89476  0.50111  1.0000
  H   H31       1.0  0.50706  0.28584  0.52463  1.0000
  H   H32       1.0  0.49293  0.71415  0.47537  1.0000
  C   C1        1.0  0.23099  0.39237  0.37639  1.0000
  C   C2        1.0  0.76901  0.60764  0.62361  1.0000
  C   C3        1.0  0.33058  0.34078  0.29038  1.0000
  C   C4        1.0  0.66942  0.65922  0.70963  1.0000
  C   C5        1.0  0.38673  0.50692  0.17361  1.0000
  C   C6        1.0  0.61327  0.49308  0.82639  1.0000
  C   C7        1.0  0.23326  0.41100  0.08578  1.0000
  C   C8        1.0  0.76674  0.58899  0.91422  1.0000
  C   C9        1.0  0.19470  0.45788  0.99269  1.0000
  C   C10       1.0  0.80529  0.54211  0.00731  1.0000
  C   C11       1.0  0.31044  0.60054  0.98651  1.0000
  C   C12       1.0  0.68955  0.39946  0.01349  1.0000
  C   C13       1.0  0.45966  0.69955  0.07651  1.0000
  C   C14       1.0  0.54033  0.30045  0.92349  1.0000
  C   C15       1.0  0.49569  0.65320  0.16898  1.0000
  C   C16       1.0  0.50429  0.34680  0.83101  1.0000
  C   C17       1.0  0.17085  0.54421  0.79831  1.0000
  C   C18       1.0  0.82913  0.45579  0.20168  1.0000
  C   C19       1.0  0.19451  0.60587  0.70208  1.0000
  C   C20       1.0  0.80548  0.39414  0.29792  1.0000
  C   C21       1.0  0.94084  0.14710  0.65451  1.0000
  C   C22       1.0  0.05917  0.85289  0.34549  1.0000
  C   C23       1.0  0.99055  0.07023  0.73814  1.0000
  C   C24       1.0  0.00946  0.92976  0.26185  1.0000
  C   C25       1.0  0.94117  0.03390  0.90419  1.0000
  C   C26       1.0  0.05886  0.96610  0.09582  1.0000
  C   C27       1.0  0.09105  0.97580  0.91599  1.0000
  C   C28       1.0  0.90898  0.02420  0.08402  1.0000
  C   C29       1.0  0.85018  0.05663  0.98793  1.0000
  C   C30       1.0  0.14985  0.94337  0.01209  1.0000
  O   O1        1.0  0.10333  0.28605  0.39552  1.0000
  O   O2        1.0  0.89667  0.71396  0.60448  1.0000
  O   O3        1.0  0.28153  0.53658  0.42356  1.0000
  O   O4        1.0  0.71846  0.46343  0.57644  1.0000
  O   O5        1.0  0.45176  0.46771  0.26442  1.0000
  O   O6        1.0  0.54823  0.53229  0.73558  1.0000
  O   O7        1.0  0.29034  0.65446  0.89698  1.0000
  O   O8        1.0  0.70964  0.34555  0.10302  1.0000
  O   O9        1.0  0.28291  0.74557  0.71006  1.0000
  O   O10       1.0  0.71708  0.25442  0.28995  1.0000
  O   O11       1.0  0.10892  0.50527  0.60772  1.0000
  O   O12       1.0  0.89108  0.49474  0.39228  1.0000
  O   O13       1.0  0.04847  0.15912  0.58718  1.0000
  O   O14       1.0  0.95153  0.84087  0.41281  1.0000
  O   O15       1.0  0.80383  0.19681  0.64890  1.0000
  O   O16       1.0  0.19619  0.80320  0.35111  1.0000
  O   O17       1.0  0.87722  0.07419  0.81406  1.0000
  O   O18       1.0  0.12281  0.92580  0.18595  1.0000
  O   O19       1.0  0.71353  0.99269  0.41106  1.0000
  O   O20       1.0  0.28648  0.00731  0.58894  1.0000
  O   O21       1.0  0.49468  0.18865  0.47144  1.0000
  O   O22       1.0  0.50533  0.81135  0.52857  1.0000
