data_image0
_chemical_formula_structural       Sm2H32C30O22
_chemical_formula_sum              "Sm2 H32 C30 O22"
_cell_length_a       8.01155
_cell_length_b       9.42704
_cell_length_c       12.82
_cell_angle_alpha    105.292
_cell_angle_beta     95.6962
_cell_angle_gamma    109.463

_space_group_name_H-M_alt    "P 1"
_space_group_IT_number       1

loop_
  _space_group_symop_operation_xyz
  'x, y, z'

loop_
  _atom_site_type_symbol
  _atom_site_label
  _atom_site_symmetry_multiplicity
  _atom_site_fract_x
  _atom_site_fract_y
  _atom_site_fract_z
  _atom_site_occupancy
  Sm  Sm1       1.0  0.63729  0.22398  0.51463  1.0000
  Sm  Sm2       1.0  0.36271  0.77601  0.48537  1.0000
  H   H1        1.0  0.53420  0.01331  0.80929  1.0000
  H   H2        1.0  0.46580  0.98668  0.19071  1.0000
  H   H3        1.0  0.71174  0.94417  0.77925  1.0000
  H   H4        1.0  0.28827  0.05584  0.22076  1.0000
  H   H5        1.0  0.59161  0.88568  0.92898  1.0000
  H   H6        1.0  0.40840  0.11431  0.07102  1.0000
  H   H7        1.0  0.66180  0.80609  0.08780  1.0000
  H   H8        1.0  0.33821  0.19391  0.91220  1.0000
  H   H9        1.0  0.09421  0.26187  0.24082  1.0000
  H   H10       1.0  0.90581  0.73813  0.75917  1.0000
  H   H11       1.0  0.03279  0.33809  0.07291  1.0000
  H   H12       1.0  0.96721  0.66191  0.92709  1.0000
  H   H13       1.0  0.93722  0.80866  0.32278  1.0000
  H   H14       1.0  0.06277  0.19134  0.67722  1.0000
  H   H15       1.0  0.75221  0.76204  0.21647  1.0000
  H   H16       1.0  0.24779  0.23797  0.78353  1.0000
  H   H17       1.0  0.35560  0.33737  0.21570  1.0000
  H   H18       1.0  0.64441  0.66263  0.78430  1.0000
  H   H19       1.0  0.50247  0.53057  0.30203  1.0000
  H   H20       1.0  0.49753  0.46943  0.69796  1.0000
  H   H21       1.0  0.75063  0.40107  0.00834  1.0000
  H   H22       1.0  0.24935  0.59894  0.99165  1.0000
  H   H23       1.0  0.34081  0.53499  0.15616  1.0000
  H   H24       1.0  0.65917  0.46500  0.84383  1.0000
  H   H25       1.0  0.68655  0.57395  0.58538  1.0000
  H   H26       1.0  0.31345  0.42605  0.41462  1.0000
  H   H27       1.0  0.87051  0.55919  0.55940  1.0000
  H   H28       1.0  0.12949  0.44080  0.44059  1.0000
  H   H29       1.0  0.06680  0.37116  0.59367  1.0000
  H   H30       1.0  0.93320  0.62884  0.40634  1.0000
  H   H31       1.0  0.97321  0.22419  0.48210  1.0000
  H   H32       1.0  0.02680  0.77581  0.51791  1.0000
  C   C1        1.0  0.68856  0.11117  0.70199  1.0000
  C   C2        1.0  0.31145  0.88883  0.29801  1.0000
  C   C3        1.0  0.67692  0.05066  0.80015  1.0000
  C   C4        1.0  0.32308  0.94934  0.19986  1.0000
  C   C5        1.0  0.81432  0.11496  0.98765  1.0000
  C   C6        1.0  0.18568  0.88504  0.01235  1.0000
  C   C7        1.0  0.70666  0.96814  0.99457  1.0000
  C   C8        1.0  0.29335  0.03186  0.00543  1.0000
  C   C9        1.0  0.74544  0.92354  0.08745  1.0000
  C   C10       1.0  0.25457  0.07646  0.91256  1.0000
  C   C11       1.0  0.89054  0.02677  0.17367  1.0000
  C   C12       1.0  0.10948  0.97324  0.82633  1.0000
  C   C13       1.0  0.98917  0.17838  0.16983  1.0000
  C   C14       1.0  0.01084  0.82163  0.83017  1.0000
  C   C15       1.0  0.95288  0.22185  0.07747  1.0000
  C   C16       1.0  0.04712  0.77816  0.92253  1.0000
  C   C17       1.0  0.84486  0.85745  0.28925  1.0000
  C   C18       1.0  0.15514  0.14255  0.71075  1.0000
  C   C19       1.0  0.73706  0.90099  0.37591  1.0000
  C   C20       1.0  0.26294  0.09900  0.62409  1.0000
  C   C21       1.0  0.54951  0.34164  0.34310  1.0000
  C   C22       1.0  0.45049  0.65837  0.65690  1.0000
  C   C23       1.0  0.49718  0.41117  0.25795  1.0000
  C   C24       1.0  0.50282  0.58883  0.74204  1.0000
  C   C25       1.0  0.55328  0.46237  0.09312  1.0000
  C   C26       1.0  0.44669  0.53763  0.90688  1.0000
  C   C27       1.0  0.64236  0.44622  0.00509  1.0000
  C   C28       1.0  0.35762  0.55377  0.99491  1.0000
  C   C29       1.0  0.41072  0.51729  0.08817  1.0000
  C   C30       1.0  0.58926  0.48270  0.91182  1.0000
  O   O1        1.0  0.78200  0.25106  0.70723  1.0000
  O   O2        1.0  0.21800  0.74893  0.29277  1.0000
  O   O3        1.0  0.59023  0.00919  0.60911  1.0000
  O   O4        1.0  0.40978  0.99082  0.39090  1.0000
  O   O5        1.0  0.79517  0.16641  0.89731  1.0000
  O   O6        1.0  0.20483  0.83359  0.10269  1.0000
  O   O7        1.0  0.95559  0.99073  0.26374  1.0000
  O   O8        1.0  0.04440  0.00927  0.73626  1.0000
  O   O9        1.0  0.78334  0.04674  0.43066  1.0000
  O   O10       1.0  0.21665  0.95325  0.56934  1.0000
  O   O11       1.0  0.60901  0.78766  0.38839  1.0000
  O   O12       1.0  0.39099  0.21233  0.61161  1.0000
  O   O13       1.0  0.44546  0.32576  0.41343  1.0000
  O   O14       1.0  0.55455  0.67423  0.58656  1.0000
  O   O15       1.0  0.68564  0.30247  0.34733  1.0000
  O   O16       1.0  0.31437  0.69755  0.65267  1.0000
  O   O17       1.0  0.61188  0.41928  0.18058  1.0000
  O   O18       1.0  0.38810  0.58073  0.81941  1.0000
  O   O19       1.0  0.76540  0.51075  0.59017  1.0000
  O   O20       1.0  0.23461  0.48925  0.40982  1.0000
  O   O21       1.0  0.98942  0.33574  0.52082  1.0000
  O   O22       1.0  0.01059  0.66426  0.47918  1.0000
