data_image0
_chemical_formula_structural       Cd2H22C18N12Cl2O2
_chemical_formula_sum              "Cd2 H22 C18 N12 Cl2 O2"
_cell_length_a       6.94876
_cell_length_b       9.66453
_cell_length_c       10.3862
_cell_angle_alpha    79.2901
_cell_angle_beta     86.5427
_cell_angle_gamma    75.4284

_space_group_name_H-M_alt    "P 1"
_space_group_IT_number       1

loop_
  _space_group_symop_operation_xyz
  'x, y, z'

loop_
  _atom_site_type_symbol
  _atom_site_label
  _atom_site_symmetry_multiplicity
  _atom_site_fract_x
  _atom_site_fract_y
  _atom_site_fract_z
  _atom_site_occupancy
  Cd  Cd1       1.0  0.73110  0.51746  0.64126  1.0000
  Cd  Cd2       1.0  0.26890  0.48254  0.35874  1.0000
  H   H1        1.0  0.13250  0.72556  0.95855  1.0000
  H   H2        1.0  0.86750  0.27444  0.04145  1.0000
  H   H3        1.0  0.87602  0.77270  0.13239  1.0000
  H   H4        1.0  0.12399  0.22731  0.86760  1.0000
  H   H5        1.0  0.54131  0.71544  0.11047  1.0000
  H   H6        1.0  0.45869  0.28456  0.88953  1.0000
  H   H7        1.0  0.49064  0.61374  0.91387  1.0000
  H   H8        1.0  0.50936  0.38626  0.08613  1.0000
  H   H9        1.0  0.49902  0.78003  0.39859  1.0000
  H   H10       1.0  0.50098  0.21997  0.60141  1.0000
  H   H11       1.0  0.84955  0.95454  0.50029  1.0000
  H   H12       1.0  0.15044  0.04546  0.49971  1.0000
  H   H13       1.0  0.73987  0.12229  0.39458  1.0000
  H   H14       1.0  0.26013  0.87771  0.60542  1.0000
  H   H15       1.0  0.93255  0.98752  0.33368  1.0000
  H   H16       1.0  0.06744  0.01248  0.66632  1.0000
  H   H17       1.0  0.44431  0.94247  0.22506  1.0000
  H   H18       1.0  0.55569  0.05753  0.77494  1.0000
  H   H19       1.0  0.65248  0.01295  0.15955  1.0000
  H   H20       1.0  0.34751  0.98705  0.84045  1.0000
  H   H21       1.0  0.46246  0.11669  0.25128  1.0000
  H   H22       1.0  0.53754  0.88331  0.74872  1.0000
  C   C1        1.0  0.09795  0.60490  0.74699  1.0000
  C   C2        1.0  0.90205  0.39510  0.25301  1.0000
  C   C3        1.0  0.94747  0.64236  0.84746  1.0000
  C   C4        1.0  0.05253  0.35764  0.15254  1.0000
  C   C5        1.0  0.98801  0.70282  0.95208  1.0000
  C   C6        1.0  0.01199  0.29719  0.04793  1.0000
  C   C7        1.0  0.84237  0.73004  0.04855  1.0000
  C   C8        1.0  0.15763  0.26995  0.95144  1.0000
  C   C9        1.0  0.66043  0.69721  0.03745  1.0000
  C   C10       1.0  0.33958  0.30280  0.96255  1.0000
  C   C11       1.0  0.63118  0.63851  0.92942  1.0000
  C   C12       1.0  0.36883  0.36149  0.07058  1.0000
  C   C13       1.0  0.61196  0.82198  0.43938  1.0000
  C   C14       1.0  0.38804  0.17802  0.56062  1.0000
  C   C15       1.0  0.80292  0.00529  0.40032  1.0000
  C   C16       1.0  0.19707  0.99471  0.59968  1.0000
  C   C17       1.0  0.54703  0.00644  0.24247  1.0000
  C   C18       1.0  0.45297  0.99356  0.75753  1.0000
  N   N1        1.0  0.06914  0.54473  0.64504  1.0000
  N   N2        1.0  0.93086  0.45527  0.35496  1.0000
  N   N3        1.0  0.24195  0.52306  0.57985  1.0000
  N   N4        1.0  0.75805  0.47694  0.42015  1.0000
  N   N5        1.0  0.37116  0.56879  0.64055  1.0000
  N   N6        1.0  0.62884  0.43121  0.35945  1.0000
  N   N7        1.0  0.28490  0.62057  0.74578  1.0000
  N   N8        1.0  0.71510  0.37943  0.25422  1.0000
  N   N9        1.0  0.77072  0.61129  0.83616  1.0000
  N   N10       1.0  0.22928  0.38871  0.16385  1.0000
  N   N11       1.0  0.65378  0.93860  0.36319  1.0000
  N   N12       1.0  0.34622  0.06140  0.63681  1.0000
  Cl  Cl1       1.0  0.77877  0.25493  0.74631  1.0000
  Cl  Cl2       1.0  0.22123  0.74507  0.25369  1.0000
  O   O1        1.0  0.69149  0.76496  0.54836  1.0000
  O   O2        1.0  0.30851  0.23504  0.45164  1.0000
