data_image0
_chemical_formula_structural       Zn6P4H24C28N4O20
_chemical_formula_sum              "Zn6 P4 H24 C28 N4 O20"
_cell_length_a       5.64281
_cell_length_b       11.3203
_cell_length_c       16.2684
_cell_angle_alpha    72.1992
_cell_angle_beta     80.0113
_cell_angle_gamma    75.5607

_space_group_name_H-M_alt    "P 1"
_space_group_IT_number       1

loop_
  _space_group_symop_operation_xyz
  'x, y, z'

loop_
  _atom_site_type_symbol
  _atom_site_label
  _atom_site_symmetry_multiplicity
  _atom_site_fract_x
  _atom_site_fract_y
  _atom_site_fract_z
  _atom_site_occupancy
  Zn  Zn1       1.0  0.13219  0.51250  0.52293  1.0000
  Zn  Zn2       1.0  0.83233  0.01266  0.02290  1.0000
  Zn  Zn3       1.0  0.81505  0.89638  0.64806  1.0000
  Zn  Zn4       1.0  0.64013  0.39628  0.14809  1.0000
  Zn  Zn5       1.0  0.29818  0.12773  0.38879  1.0000
  Zn  Zn6       1.0  0.18518  0.62762  0.88883  1.0000
  P   P1        1.0  0.31184  0.94324  0.57340  1.0000
  P   P2        1.0  0.17112  0.44310  0.07342  1.0000
  P   P3        1.0  0.76815  0.21273  0.32894  1.0000
  P   P4        1.0  0.69017  0.71283  0.82895  1.0000
  H   H1        1.0  0.84070  0.55029  0.69121  1.0000
  H   H2        1.0  0.91780  0.05017  0.19122  1.0000
  H   H3        1.0  0.53861  0.44987  0.79918  1.0000
  H   H4        1.0  0.21260  0.94982  0.29911  1.0000
  H   H5        1.0  0.68247  0.15664  0.66534  1.0000
  H   H6        1.0  0.49645  0.65683  0.16505  1.0000
  H   H7        1.0  0.99416  0.26408  0.56744  1.0000
  H   H8        1.0  0.17499  0.76421  0.06722  1.0000
  H   H9        1.0  0.18569  0.39820  0.84658  1.0000
  H   H10       1.0  0.56959  0.89820  0.34657  1.0000
  H   H11       1.0  0.89805  0.28352  0.95366  1.0000
  H   H12       1.0  0.86397  0.78333  0.45393  1.0000
  H   H13       1.0  0.19470  0.95162  0.88043  1.0000
  H   H14       1.0  0.97372  0.45162  0.38030  1.0000
  H   H15       1.0  0.51085  0.04618  0.77664  1.0000
  H   H16       1.0  0.66703  0.54629  0.27644  1.0000
  H   H17       1.0  0.56960  0.73364  0.59106  1.0000
  H   H18       1.0  0.10509  0.23348  0.09118  1.0000
  H   H19       1.0  0.36736  0.74627  0.68594  1.0000
  H   H20       1.0  0.20021  0.24610  0.18596  1.0000
  H   H21       1.0  0.71703  0.13170  0.48428  1.0000
  H   H22       1.0  0.66723  0.63187  0.98431  1.0000
  H   H23       1.0  0.83907  0.27231  0.45169  1.0000
  H   H24       1.0  0.43706  0.77246  0.95161  1.0000
  C   C1        1.0  0.79938  0.46320  0.68754  1.0000
  C   C2        1.0  0.04997  0.96310  0.18751  1.0000
  C   C3        1.0  0.62698  0.40569  0.74783  1.0000
  C   C4        1.0  0.21972  0.90566  0.24775  1.0000
  C   C5        1.0  0.57327  0.29440  0.74131  1.0000
  C   C6        1.0  0.39144  0.79443  0.24119  1.0000
  C   C7        1.0  0.71019  0.24289  0.67505  1.0000
  C   C8        1.0  0.37259  0.74300  0.17486  1.0000
  C   C9        1.0  0.88363  0.30385  0.61829  1.0000
  C   C10       1.0  0.19478  0.80391  0.11811  1.0000
  C   C11       1.0  0.38368  0.23279  0.80212  1.0000
  C   C12       1.0  0.58179  0.73280  0.30206  1.0000
  C   C13       1.0  0.20215  0.29829  0.85256  1.0000
  C   C14       1.0  0.64702  0.79829  0.35259  1.0000
  C   C15       1.0  0.03605  0.23529  0.91232  1.0000
  C   C16       1.0  0.81595  0.73514  0.41249  1.0000
  C   C17       1.0  0.20356  0.04973  0.87193  1.0000
  C   C18       1.0  0.87503  0.54970  0.37189  1.0000
  C   C19       1.0  0.37830  0.10577  0.81214  1.0000
  C   C20       1.0  0.70431  0.60581  0.31203  1.0000
  C   C21       1.0  0.38002  0.77064  0.61447  1.0000
  C   C22       1.0  0.23434  0.27050  0.11450  1.0000
  C   C23       1.0  0.20977  0.70752  0.58957  1.0000
  C   C24       1.0  0.49262  0.20749  0.08951  1.0000
  C   C25       1.0  0.70188  0.22805  0.43962  1.0000
  C   C26       1.0  0.63062  0.72820  0.93961  1.0000
  C   C27       1.0  0.44793  0.30336  0.45739  1.0000
  C   C28       1.0  0.79137  0.80363  0.95725  1.0000
  N   N1        1.0  0.92450  0.41431  0.62259  1.0000
  N   N2        1.0  0.03883  0.91429  0.12249  1.0000
  N   N3        1.0  0.03747  0.11201  0.92301  1.0000
  N   N4        1.0  0.92737  0.61186  0.42312  1.0000
  O   O1        1.0  0.07067  0.99438  0.62436  1.0000
  O   O2        1.0  0.31015  0.49424  0.12439  1.0000
  O   O3        1.0  0.52868  0.99238  0.58727  1.0000
  O   O4        1.0  0.89125  0.49228  0.08725  1.0000
  O   O5        1.0  0.28459  0.96954  0.47639  1.0000
  O   O6        1.0  0.26909  0.46934  0.97642  1.0000
  O   O7        1.0  0.97595  0.74395  0.60185  1.0000
  O   O8        1.0  0.67774  0.24395  0.10175  1.0000
  O   O9        1.0  0.31047  0.61584  0.55653  1.0000
  O   O10       1.0  0.51681  0.11587  0.05640  1.0000
  O   O11       1.0  0.43136  0.39716  0.48709  1.0000
  O   O12       1.0  0.68440  0.89768  0.98671  1.0000
  O   O13       1.0  0.25955  0.27164  0.44291  1.0000
  O   O14       1.0  0.02595  0.77176  0.94289  1.0000
  O   O15       1.0  0.68870  0.34773  0.27000  1.0000
  O   O16       1.0  0.69383  0.84779  0.77000  1.0000
  O   O17       1.0  0.62122  0.11941  0.32094  1.0000
  O   O18       1.0  0.93828  0.61935  0.82094  1.0000
  O   O19       1.0  0.04607  0.16022  0.31352  1.0000
  O   O20       1.0  0.47984  0.66054  0.81357  1.0000
