data_image0
_chemical_formula_structural       Cu4H40C40N8O20
_chemical_formula_sum              "Cu4 H40 C40 N8 O20"
_cell_length_a       7.34709
_cell_length_b       10.764
_cell_length_c       14.028
_cell_angle_alpha    90
_cell_angle_beta     90.7768
_cell_angle_gamma    90

_space_group_name_H-M_alt    "P 1"
_space_group_IT_number       1

loop_
  _space_group_symop_operation_xyz
  'x, y, z'

loop_
  _atom_site_type_symbol
  _atom_site_label
  _atom_site_symmetry_multiplicity
  _atom_site_fract_x
  _atom_site_fract_y
  _atom_site_fract_z
  _atom_site_occupancy
  Cu  Cu1       1.0  0.08181  0.09136  0.12417  1.0000
  Cu  Cu2       1.0  0.91825  0.59139  0.37584  1.0000
  Cu  Cu3       1.0  0.91827  0.90868  0.87585  1.0000
  Cu  Cu4       1.0  0.08169  0.40862  0.62418  1.0000
  H   H1        1.0  0.64666  0.23548  0.18148  1.0000
  H   H2        1.0  0.35344  0.73545  0.31852  1.0000
  H   H3        1.0  0.35324  0.76451  0.81854  1.0000
  H   H4        1.0  0.64667  0.26457  0.68148  1.0000
  H   H5        1.0  0.55082  0.55600  0.42397  1.0000
  H   H6        1.0  0.44925  0.05602  0.07608  1.0000
  H   H7        1.0  0.44919  0.44398  0.57605  1.0000
  H   H8        1.0  0.55076  0.94394  0.92388  1.0000
  H   H9        1.0  0.89771  0.36987  0.24351  1.0000
  H   H10       1.0  0.10238  0.86980  0.25651  1.0000
  H   H11       1.0  0.10225  0.63007  0.75650  1.0000
  H   H12       1.0  0.89765  0.13010  0.74343  1.0000
  H   H13       1.0  0.05897  0.29117  0.97537  1.0000
  H   H14       1.0  0.94095  0.79109  0.52473  1.0000
  H   H15       1.0  0.94115  0.70886  0.02459  1.0000
  H   H16       1.0  0.05890  0.20895  0.47528  1.0000
  H   H17       1.0  0.57492  0.24431  0.01707  1.0000
  H   H18       1.0  0.42492  0.74429  0.48296  1.0000
  H   H19       1.0  0.42526  0.75562  0.98292  1.0000
  H   H20       1.0  0.57492  0.25569  0.51703  1.0000
  H   H21       1.0  0.51510  0.35357  0.92645  1.0000
  H   H22       1.0  0.48481  0.85351  0.57358  1.0000
  H   H23       1.0  0.48495  0.64637  0.07356  1.0000
  H   H24       1.0  0.51508  0.14645  0.42640  1.0000
  H   H25       1.0  0.56769  0.40533  0.04485  1.0000
  H   H26       1.0  0.43218  0.90532  0.45520  1.0000
  H   H27       1.0  0.43245  0.59459  0.95516  1.0000
  H   H28       1.0  0.56770  0.09466  0.54479  1.0000
  H   H29       1.0  0.98171  0.43689  0.87492  1.0000
  H   H30       1.0  0.01818  0.93699  0.62506  1.0000
  H   H31       1.0  0.01829  0.56304  0.12496  1.0000
  H   H32       1.0  0.98175  0.06299  0.37499  1.0000
  H   H33       1.0  0.80026  0.53487  0.91617  1.0000
  H   H34       1.0  0.19970  0.03489  0.58378  1.0000
  H   H35       1.0  0.19982  0.46510  0.08375  1.0000
  H   H36       1.0  0.80024  0.96509  0.41627  1.0000
  H   H37       1.0  0.76067  0.42303  0.82462  1.0000
  H   H38       1.0  0.23919  0.92314  0.67542  1.0000
  H   H39       1.0  0.23925  0.57691  0.17535  1.0000
  H   H40       1.0  0.76075  0.07681  0.32461  1.0000
  C   C1        1.0  0.28515  0.24084  0.23932  1.0000
  C   C2        1.0  0.71497  0.74084  0.26073  1.0000
  C   C3        1.0  0.71484  0.75913  0.76070  1.0000
  C   C4        1.0  0.28509  0.25924  0.73932  1.0000
  C   C5        1.0  0.44173  0.32228  0.27004  1.0000
  C   C6        1.0  0.55838  0.82228  0.23001  1.0000
  C   C7        1.0  0.55824  0.67768  0.73002  1.0000
  C   C8        1.0  0.44168  0.17774  0.76999  1.0000
  C   C9        1.0  0.41579  0.41242  0.34063  1.0000
  C   C10       1.0  0.58425  0.91240  0.15940  1.0000
  C   C11       1.0  0.58418  0.58755  0.65942  1.0000
  C   C12       1.0  0.41581  0.08761  0.84059  1.0000
  C   C13       1.0  0.61734  0.30571  0.23490  1.0000
  C   C14       1.0  0.38276  0.80569  0.26511  1.0000
  C   C15       1.0  0.38261  0.69426  0.76514  1.0000
  C   C16       1.0  0.61729  0.19429  0.73485  1.0000
  C   C17       1.0  0.56355  0.48412  0.37001  1.0000
  C   C18       1.0  0.43650  0.98412  0.13002  1.0000
  C   C19       1.0  0.43643  0.51586  0.63001  1.0000
  C   C20       1.0  0.56355  0.01587  0.86996  1.0000
  C   C21       1.0  0.23501  0.43758  0.38605  1.0000
  C   C22       1.0  0.76501  0.93760  0.11397  1.0000
  C   C23       1.0  0.76494  0.56244  0.61396  1.0000
  C   C24       1.0  0.23506  0.06248  0.88606  1.0000
  C   C25       1.0  0.75892  0.38023  0.26860  1.0000
  C   C26       1.0  0.24116  0.88021  0.23143  1.0000
  C   C27       1.0  0.24104  0.61973  0.73143  1.0000
  C   C28       1.0  0.75887  0.11974  0.76852  1.0000
  C   C29       1.0  0.92133  0.27972  0.00397  1.0000
  C   C30       1.0  0.07859  0.77967  0.49613  1.0000
  C   C31       1.0  0.07880  0.72032  0.99600  1.0000
  C   C32       1.0  0.92125  0.22037  0.50387  1.0000
  C   C33       1.0  0.60179  0.33736  0.98948  1.0000
  C   C34       1.0  0.39809  0.83734  0.51057  1.0000
  C   C35       1.0  0.39833  0.66258  0.01052  1.0000
  C   C36       1.0  0.60178  0.16264  0.48942  1.0000
  C   C37       1.0  0.83655  0.44148  0.89097  1.0000
  C   C38       1.0  0.16336  0.94154  0.60904  1.0000
  C   C39       1.0  0.16347  0.55848  0.10896  1.0000
  C   C40       1.0  0.83656  0.05844  0.39100  1.0000
  N   N1        1.0  0.73105  0.46899  0.33440  1.0000
  N   N2        1.0  0.26899  0.96900  0.16563  1.0000
  N   N3        1.0  0.26894  0.53097  0.66563  1.0000
  N   N4        1.0  0.73103  0.03096  0.83432  1.0000
  N   N5        1.0  0.79214  0.34845  0.96258  1.0000
  N   N6        1.0  0.20777  0.84844  0.53750  1.0000
  N   N7        1.0  0.20795  0.65154  0.03738  1.0000
  N   N8        1.0  0.79212  0.15156  0.46252  1.0000
  O   O1        1.0  0.26024  0.23056  0.14833  1.0000
  O   O2        1.0  0.73983  0.73053  0.35173  1.0000
  O   O3        1.0  0.73995  0.76938  0.85168  1.0000
  O   O4        1.0  0.25997  0.26946  0.64834  1.0000
  O   O5        1.0  0.88921  0.20421  0.07093  1.0000
  O   O6        1.0  0.11081  0.70414  0.42920  1.0000
  O   O7        1.0  0.11095  0.79590  0.92909  1.0000
  O   O8        1.0  0.88901  0.29595  0.57077  1.0000
  O   O9        1.0  0.21925  0.41556  0.47284  1.0000
  O   O10       1.0  0.78079  0.91562  0.02717  1.0000
  O   O11       1.0  0.78058  0.58446  0.52715  1.0000
  O   O12       1.0  0.21936  0.08446  0.97285  1.0000
  O   O13       1.0  0.11640  0.48603  0.32920  1.0000
  O   O14       1.0  0.88356  0.98607  0.17084  1.0000
  O   O15       1.0  0.88368  0.51408  0.67078  1.0000
  O   O16       1.0  0.11640  0.01410  0.82919  1.0000
  O   O17       1.0  0.19520  0.18836  0.30276  1.0000
  O   O18       1.0  0.80498  0.68840  0.19731  1.0000
  O   O19       1.0  0.80462  0.81166  0.69722  1.0000
  O   O20       1.0  0.19537  0.31184  0.80279  1.0000
