data_image0
_chemical_formula_structural       Hg8H60C40S8I12N16
_chemical_formula_sum              "Hg8 H60 C40 S8 I12 N16"
_cell_length_a       8.34191
_cell_length_b       11.8375
_cell_length_c       21.188
_cell_angle_alpha    97.991
_cell_angle_beta     90
_cell_angle_gamma    90

_space_group_name_H-M_alt    "P 1"
_space_group_IT_number       1

loop_
  _space_group_symop_operation_xyz
  'x, y, z'

loop_
  _atom_site_type_symbol
  _atom_site_label
  _atom_site_symmetry_multiplicity
  _atom_site_fract_x
  _atom_site_fract_y
  _atom_site_fract_z
  _atom_site_occupancy
  Hg  Hg1       1.0  0.14877  0.19121  0.62677  1.0000
  Hg  Hg2       1.0  0.64877  0.80879  0.87323  1.0000
  Hg  Hg3       1.0  0.85123  0.80880  0.37323  1.0000
  Hg  Hg4       1.0  0.35123  0.19121  0.12677  1.0000
  Hg  Hg5       1.0  0.77114  0.46944  0.52474  1.0000
  Hg  Hg6       1.0  0.27114  0.53056  0.97526  1.0000
  Hg  Hg7       1.0  0.22886  0.53056  0.47527  1.0000
  Hg  Hg8       1.0  0.72886  0.46944  0.02473  1.0000
  H   H1        1.0  0.44795  0.36028  0.59802  1.0000
  H   H2        1.0  0.94795  0.63973  0.90198  1.0000
  H   H3        1.0  0.55205  0.63973  0.40198  1.0000
  H   H4        1.0  0.05205  0.36028  0.09802  1.0000
  H   H5        1.0  0.53349  0.19206  0.49858  1.0000
  H   H6        1.0  0.03350  0.80794  0.00142  1.0000
  H   H7        1.0  0.46651  0.80794  0.50143  1.0000
  H   H8        1.0  0.96650  0.19206  0.99858  1.0000
  H   H9        1.0  0.72428  0.20319  0.79770  1.0000
  H   H10       1.0  0.22427  0.79681  0.70230  1.0000
  H   H11       1.0  0.27573  0.79681  0.20230  1.0000
  H   H12       1.0  0.77573  0.20319  0.29770  1.0000
  H   H13       1.0  0.46919  0.10904  0.85571  1.0000
  H   H14       1.0  0.96919  0.89095  0.64429  1.0000
  H   H15       1.0  0.53081  0.89096  0.14429  1.0000
  H   H16       1.0  0.03081  0.10904  0.35571  1.0000
  H   H17       1.0  0.74541  0.35990  0.72905  1.0000
  H   H18       1.0  0.24541  0.64010  0.77095  1.0000
  H   H19       1.0  0.25459  0.64010  0.27095  1.0000
  H   H20       1.0  0.75459  0.35990  0.22906  1.0000
  H   H21       1.0  0.56603  0.42657  0.70491  1.0000
  H   H22       1.0  0.06603  0.57343  0.79509  1.0000
  H   H23       1.0  0.43397  0.57343  0.29509  1.0000
  H   H24       1.0  0.93397  0.42657  0.20491  1.0000
  H   H25       1.0  0.87226  0.01883  0.56020  1.0000
  H   H26       1.0  0.37227  0.98117  0.93980  1.0000
  H   H27       1.0  0.12773  0.98117  0.43980  1.0000
  H   H28       1.0  0.62773  0.01883  0.06020  1.0000
  H   H29       1.0  0.80468  0.06055  0.48632  1.0000
  H   H30       1.0  0.30469  0.93945  0.01368  1.0000
  H   H31       1.0  0.19531  0.93945  0.51368  1.0000
  H   H32       1.0  0.69531  0.06054  0.98632  1.0000
  H   H33       1.0  0.67917  0.97538  0.52944  1.0000
  H   H34       1.0  0.17918  0.02463  0.97056  1.0000
  H   H35       1.0  0.32083  0.02463  0.47056  1.0000
  H   H36       1.0  0.82082  0.97537  0.02944  1.0000
  H   H37       1.0  0.08545  0.23674  0.79721  1.0000
  H   H38       1.0  0.58545  0.76326  0.70279  1.0000
  H   H39       1.0  0.91455  0.76326  0.20279  1.0000
  H   H40       1.0  0.41455  0.23674  0.29721  1.0000
  H   H41       1.0  0.16167  0.18813  0.86790  1.0000
  H   H42       1.0  0.66167  0.81187  0.63210  1.0000
  H   H43       1.0  0.83833  0.81187  0.13210  1.0000
  H   H44       1.0  0.33833  0.18813  0.36790  1.0000
  H   H45       1.0  0.14846  0.09143  0.79494  1.0000
  H   H46       1.0  0.64846  0.90857  0.70506  1.0000
  H   H47       1.0  0.85154  0.90857  0.20506  1.0000
  H   H48       1.0  0.35154  0.09143  0.29494  1.0000
  H   H49       1.0  0.77601  0.54164  0.64974  1.0000
  H   H50       1.0  0.27601  0.45836  0.85026  1.0000
  H   H51       1.0  0.22399  0.45836  0.35026  1.0000
  H   H52       1.0  0.72399  0.54164  0.14974  1.0000
  H   H53       1.0  0.96681  0.57102  0.61516  1.0000
  H   H54       1.0  0.46681  0.42898  0.88484  1.0000
  H   H55       1.0  0.03319  0.42898  0.38484  1.0000
  H   H56       1.0  0.53319  0.57102  0.11516  1.0000
  H   H57       1.0  0.92129  0.42902  0.63013  1.0000
  H   H58       1.0  0.42129  0.57098  0.86986  1.0000
  H   H59       1.0  0.07871  0.57098  0.36987  1.0000
  H   H60       1.0  0.57871  0.42902  0.13013  1.0000
  C   C1        1.0  0.73555  0.18779  0.63072  1.0000
  C   C2        1.0  0.23555  0.81221  0.86928  1.0000
  C   C3        1.0  0.26445  0.81221  0.36928  1.0000
  C   C4        1.0  0.76445  0.18779  0.13072  1.0000
  C   C5        1.0  0.53700  0.29315  0.59521  1.0000
  C   C6        1.0  0.03701  0.70685  0.90479  1.0000
  C   C7        1.0  0.46299  0.70685  0.40479  1.0000
  C   C8        1.0  0.96300  0.29315  0.09521  1.0000
  C   C9        1.0  0.36790  0.28474  0.75602  1.0000
  C   C10       1.0  0.86790  0.71525  0.74398  1.0000
  C   C11       1.0  0.63210  0.71526  0.24398  1.0000
  C   C12       1.0  0.13210  0.28474  0.25602  1.0000
  C   C13       1.0  0.57890  0.21034  0.54674  1.0000
  C   C14       1.0  0.07890  0.78966  0.95326  1.0000
  C   C15       1.0  0.42110  0.78966  0.45326  1.0000
  C   C16       1.0  0.92110  0.21034  0.04674  1.0000
  C   C17       1.0  0.59676  0.21581  0.79353  1.0000
  C   C18       1.0  0.09675  0.78419  0.70647  1.0000
  C   C19       1.0  0.40324  0.78419  0.20647  1.0000
  C   C20       1.0  0.90324  0.21581  0.29353  1.0000
  C   C21       1.0  0.47131  0.16982  0.82206  1.0000
  C   C22       1.0  0.97130  0.83018  0.67794  1.0000
  C   C23       1.0  0.52869  0.83018  0.17794  1.0000
  C   C24       1.0  0.02869  0.16982  0.32206  1.0000
  C   C25       1.0  0.62438  0.34521  0.70949  1.0000
  C   C26       1.0  0.12439  0.65479  0.79051  1.0000
  C   C27       1.0  0.37562  0.65479  0.29051  1.0000
  C   C28       1.0  0.87561  0.34521  0.20949  1.0000
  C   C29       1.0  0.76857  0.04405  0.53386  1.0000
  C   C30       1.0  0.26857  0.95596  0.96614  1.0000
  C   C31       1.0  0.23143  0.95596  0.46614  1.0000
  C   C32       1.0  0.73143  0.04404  0.03386  1.0000
  C   C33       1.0  0.17180  0.18008  0.81587  1.0000
  C   C34       1.0  0.67180  0.81992  0.68413  1.0000
  C   C35       1.0  0.82820  0.81992  0.18413  1.0000
  C   C36       1.0  0.32820  0.18008  0.31587  1.0000
  C   C37       1.0  0.87140  0.50802  0.61693  1.0000
  C   C38       1.0  0.37140  0.49198  0.88307  1.0000
  C   C39       1.0  0.12860  0.49198  0.38307  1.0000
  C   C40       1.0  0.62860  0.50802  0.11693  1.0000
  S   S1        1.0  0.23981  0.36101  0.71577  1.0000
  S   S2        1.0  0.73981  0.63899  0.78423  1.0000
  S   S3        1.0  0.76019  0.63899  0.28423  1.0000
  S   S4        1.0  0.26019  0.36101  0.21577  1.0000
  S   S5        1.0  0.87373  0.13795  0.67877  1.0000
  S   S6        1.0  0.37373  0.86205  0.82123  1.0000
  S   S7        1.0  0.12627  0.86206  0.32123  1.0000
  S   S8        1.0  0.62627  0.13794  0.17877  1.0000
  I   I1        1.0  0.35397  0.01112  0.64419  1.0000
  I   I2        1.0  0.85396  0.98888  0.85581  1.0000
  I   I3        1.0  0.64603  0.98888  0.35581  1.0000
  I   I4        1.0  0.14604  0.01112  0.14419  1.0000
  I   I5        1.0  0.10495  0.25887  0.50670  1.0000
  I   I6        1.0  0.60496  0.74113  0.99330  1.0000
  I   I7        1.0  0.89504  0.74113  0.49330  1.0000
  I   I8        1.0  0.39505  0.25887  0.00670  1.0000
  I   I9        1.0  0.63427  0.40313  0.41088  1.0000
  I   I10       1.0  0.13427  0.59687  0.08912  1.0000
  I   I11       1.0  0.36573  0.59687  0.58912  1.0000
  I   I12       1.0  0.86573  0.40313  0.91088  1.0000
  N   N1        1.0  0.63473  0.27915  0.64650  1.0000
  N   N2        1.0  0.13473  0.72085  0.85350  1.0000
  N   N3        1.0  0.36527  0.72085  0.35350  1.0000
  N   N4        1.0  0.86527  0.27915  0.14650  1.0000
  N   N5        1.0  0.33223  0.21278  0.79892  1.0000
  N   N6        1.0  0.83223  0.78722  0.70108  1.0000
  N   N7        1.0  0.66777  0.78722  0.20108  1.0000
  N   N8        1.0  0.16777  0.21278  0.29892  1.0000
  N   N9        1.0  0.53242  0.28630  0.75309  1.0000
  N   N10       1.0  0.03242  0.71371  0.74691  1.0000
  N   N11       1.0  0.46758  0.71371  0.24692  1.0000
  N   N12       1.0  0.96758  0.28629  0.25308  1.0000
  N   N13       1.0  0.70007  0.14664  0.56900  1.0000
  N   N14       1.0  0.20007  0.85337  0.93100  1.0000
  N   N15       1.0  0.29993  0.85337  0.43100  1.0000
  N   N16       1.0  0.79993  0.14663  0.06900  1.0000
