data_image0
_chemical_formula_structural       Cu4H24C40S2N16
_chemical_formula_sum              "Cu4 H24 C40 S2 N16"
_cell_length_a       6.78629
_cell_length_b       8.26215
_cell_length_c       18.2855
_cell_angle_alpha    90.0001
_cell_angle_beta     89.9997
_cell_angle_gamma    111.708

_space_group_name_H-M_alt    "P 1"
_space_group_IT_number       1

loop_
  _space_group_symop_operation_xyz
  'x, y, z'

loop_
  _atom_site_type_symbol
  _atom_site_label
  _atom_site_symmetry_multiplicity
  _atom_site_fract_x
  _atom_site_fract_y
  _atom_site_fract_z
  _atom_site_occupancy
  Cu  Cu1       1.0  0.33995  0.63819  0.21071  1.0000
  Cu  Cu2       1.0  0.66005  0.36180  0.71070  1.0000
  Cu  Cu3       1.0  0.91096  0.70991  0.48957  1.0000
  Cu  Cu4       1.0  0.08906  0.29010  0.98957  1.0000
  H   H1        1.0  0.17292  0.21534  0.23044  1.0000
  H   H2        1.0  0.82706  0.78466  0.73043  1.0000
  H   H3        1.0  0.22369  0.00796  0.32179  1.0000
  H   H4        1.0  0.77631  0.99205  0.82179  1.0000
  H   H5        1.0  0.44878  0.13164  0.43302  1.0000
  H   H6        1.0  0.55123  0.86836  0.93301  1.0000
  H   H7        1.0  0.62019  0.45577  0.44607  1.0000
  H   H8        1.0  0.37981  0.54423  0.94607  1.0000
  H   H9        1.0  0.15937  0.97753  0.59817  1.0000
  H   H10       1.0  0.84063  0.02247  0.09817  1.0000
  H   H11       1.0  0.27985  0.29957  0.61313  1.0000
  H   H12       1.0  0.72015  0.70043  0.11313  1.0000
  H   H13       1.0  0.14712  0.46938  0.52138  1.0000
  H   H14       1.0  0.85288  0.53063  0.02138  1.0000
  H   H15       1.0  0.91252  0.30695  0.42038  1.0000
  H   H16       1.0  0.08748  0.69306  0.92038  1.0000
  H   H17       1.0  0.83185  0.29755  0.24626  1.0000
  H   H18       1.0  0.16815  0.70245  0.74625  1.0000
  H   H19       1.0  0.75042  0.43346  0.13502  1.0000
  H   H20       1.0  0.24958  0.56653  0.63502  1.0000
  H   H21       1.0  0.48455  0.24333  0.04362  1.0000
  H   H22       1.0  0.51545  0.75666  0.54361  1.0000
  H   H23       1.0  0.32024  0.92125  0.06910  1.0000
  H   H24       1.0  0.67977  0.07874  0.56910  1.0000
  C   C1        1.0  0.26989  0.26275  0.27927  1.0000
  C   C2        1.0  0.73010  0.73725  0.77927  1.0000
  C   C3        1.0  0.29924  0.14807  0.33030  1.0000
  C   C4        1.0  0.70076  0.85193  0.83030  1.0000
  C   C5        1.0  0.42518  0.21722  0.39143  1.0000
  C   C6        1.0  0.57482  0.78278  0.89142  1.0000
  C   C7        1.0  0.51995  0.39731  0.39912  1.0000
  C   C8        1.0  0.48004  0.60269  0.89911  1.0000
  C   C9        1.0  0.48459  0.50294  0.34493  1.0000
  C   C10       1.0  0.51540  0.49707  0.84493  1.0000
  C   C11       1.0  0.58413  0.69477  0.34520  1.0000
  C   C12       1.0  0.41586  0.30523  0.84519  1.0000
  C   C13       1.0  0.78077  0.95712  0.39623  1.0000
  C   C14       1.0  0.21923  0.04288  0.89623  1.0000
  C   C15       1.0  0.91571  0.05856  0.45577  1.0000
  C   C16       1.0  0.08428  0.94144  0.95577  1.0000
  C   C17       1.0  0.10998  0.05603  0.55984  1.0000
  C   C18       1.0  0.89002  0.94397  0.05984  1.0000
  C   C19       1.0  0.17391  0.23581  0.56820  1.0000
  C   C20       1.0  0.82609  0.76419  0.06820  1.0000
  C   C21       1.0  0.10305  0.32884  0.51755  1.0000
  C   C22       1.0  0.89695  0.67116  0.01755  1.0000
  C   C23       1.0  0.97096  0.23914  0.46090  1.0000
  C   C24       1.0  0.02904  0.76087  0.96089  1.0000
  C   C25       1.0  0.64606  0.95025  0.28218  1.0000
  C   C26       1.0  0.35394  0.04976  0.78218  1.0000
  C   C27       1.0  0.61358  0.03933  0.21616  1.0000
  C   C28       1.0  0.38642  0.96067  0.71616  1.0000
  C   C29       1.0  0.71902  0.21881  0.20589  1.0000
  C   C30       1.0  0.28098  0.78119  0.70589  1.0000
  C   C31       1.0  0.67308  0.29374  0.14324  1.0000
  C   C32       1.0  0.32693  0.70626  0.64324  1.0000
  C   C33       1.0  0.52760  0.18871  0.09260  1.0000
  C   C34       1.0  0.47241  0.81128  0.59260  1.0000
  C   C35       1.0  0.43362  0.01013  0.10692  1.0000
  C   C36       1.0  0.56638  0.98986  0.60692  1.0000
  C   C37       1.0  0.05370  0.67161  0.34007  1.0000
  C   C38       1.0  0.94631  0.32839  0.84008  1.0000
  C   C39       1.0  0.20374  0.43875  0.06756  1.0000
  C   C40       1.0  0.79629  0.56125  0.56755  1.0000
  S   S1        1.0  0.02800  0.67252  0.25157  1.0000
  S   S2        1.0  0.97199  0.32747  0.75158  1.0000
  N   N1        1.0  0.35842  0.43572  0.28644  1.0000
  N   N2        1.0  0.64157  0.56427  0.78644  1.0000
  N   N3        1.0  0.69210  0.78167  0.40356  1.0000
  N   N4        1.0  0.30789  0.21833  0.90355  1.0000
  N   N5        1.0  0.98574  0.96820  0.50454  1.0000
  N   N6        1.0  0.01426  0.03181  0.00454  1.0000
  N   N7        1.0  0.75724  0.04574  0.33748  1.0000
  N   N8        1.0  0.24276  0.95426  0.83747  1.0000
  N   N9        1.0  0.47393  0.93693  0.16736  1.0000
  N   N10       1.0  0.52607  0.06306  0.66736  1.0000
  N   N11       1.0  0.56158  0.77364  0.28221  1.0000
  N   N12       1.0  0.43840  0.22636  0.78221  1.0000
  N   N13       1.0  0.06693  0.67619  0.40500  1.0000
  N   N14       1.0  0.93306  0.32381  0.90500  1.0000
  N   N15       1.0  0.27244  0.52458  0.11978  1.0000
  N   N16       1.0  0.72758  0.47541  0.61977  1.0000
