data_image0
_chemical_formula_structural       Cu4H24C40S4N16
_chemical_formula_sum              "Cu4 H24 C40 S4 N16"
_cell_length_a       3.73442
_cell_length_b       16.1352
_cell_length_c       17.1284
_cell_angle_alpha    113.153
_cell_angle_beta     94.2048
_cell_angle_gamma    95.8024

_space_group_name_H-M_alt    "P 1"
_space_group_IT_number       1

loop_
  _space_group_symop_operation_xyz
  'x, y, z'

loop_
  _atom_site_type_symbol
  _atom_site_label
  _atom_site_symmetry_multiplicity
  _atom_site_fract_x
  _atom_site_fract_y
  _atom_site_fract_z
  _atom_site_occupancy
  Cu  Cu1       1.0  0.50961  0.52823  0.18737  1.0000
  Cu  Cu2       1.0  0.49036  0.47177  0.81262  1.0000
  Cu  Cu3       1.0  0.84062  0.16482  0.06162  1.0000
  Cu  Cu4       1.0  0.15937  0.83517  0.93839  1.0000
  H   H1        1.0  0.73191  0.63079  0.04688  1.0000
  H   H2        1.0  0.26810  0.36921  0.95311  1.0000
  H   H3        1.0  0.72366  0.78426  0.04195  1.0000
  H   H4        1.0  0.27641  0.21575  0.95806  1.0000
  H   H5        1.0  0.55004  0.91029  0.16730  1.0000
  H   H6        1.0  0.45005  0.08972  0.83271  1.0000
  H   H7        1.0  0.41002  0.87993  0.29712  1.0000
  H   H8        1.0  0.59004  0.12007  0.70289  1.0000
  H   H9        1.0  0.95756  0.90729  0.46566  1.0000
  H   H10       1.0  0.04238  0.09271  0.53433  1.0000
  H   H11       1.0  0.81932  0.02162  0.60575  1.0000
  H   H12       1.0  0.18065  0.97838  0.39425  1.0000
  H   H13       1.0  0.91977  0.98790  0.73726  1.0000
  H   H14       1.0  0.08026  0.01210  0.26274  1.0000
  H   H15       1.0  0.15117  0.84391  0.72216  1.0000
  H   H16       1.0  0.84885  0.15609  0.27784  1.0000
  H   H17       1.0  0.16391  0.52821  0.46945  1.0000
  H   H18       1.0  0.83608  0.47180  0.53055  1.0000
  H   H19       1.0  0.17477  0.36102  0.44165  1.0000
  H   H20       1.0  0.82521  0.63899  0.55836  1.0000
  H   H21       1.0  0.40324  0.26269  0.30697  1.0000
  H   H22       1.0  0.59676  0.73731  0.69304  1.0000
  H   H23       1.0  0.57301  0.32851  0.20257  1.0000
  H   H24       1.0  0.42700  0.67148  0.79743  1.0000
  C   C1        1.0  0.66031  0.68804  0.10084  1.0000
  C   C2        1.0  0.33973  0.31197  0.89917  1.0000
  C   C3        1.0  0.65578  0.77343  0.09825  1.0000
  C   C4        1.0  0.34427  0.22658  0.90175  1.0000
  C   C5        1.0  0.56206  0.84387  0.16898  1.0000
  C   C6        1.0  0.43800  0.15614  0.83103  1.0000
  C   C7        1.0  0.48067  0.82715  0.23995  1.0000
  C   C8        1.0  0.51937  0.17286  0.76005  1.0000
  C   C9        1.0  0.48795  0.73939  0.23680  1.0000
  C   C10       1.0  0.51206  0.26061  0.76320  1.0000
  C   C11       1.0  0.39869  0.71535  0.30856  1.0000
  C   C12       1.0  0.60131  0.28465  0.69144  1.0000
  C   C13       1.0  0.21756  0.74909  0.44065  1.0000
  C   C14       1.0  0.78243  0.25091  0.55934  1.0000
  C   C15       1.0  0.12627  0.81709  0.52190  1.0000
  C   C16       1.0  0.87371  0.18291  0.47810  1.0000
  C   C17       1.0  0.00038  0.89697  0.52447  1.0000
  C   C18       1.0  0.99957  0.10302  0.47553  1.0000
  C   C19       1.0  0.92315  0.95968  0.60230  1.0000
  C   C20       1.0  0.07682  0.04031  0.39770  1.0000
  C   C21       1.0  0.97668  0.94121  0.67488  1.0000
  C   C22       1.0  0.02334  0.05879  0.32512  1.0000
  C   C23       1.0  0.10359  0.85971  0.66604  1.0000
  C   C24       1.0  0.89642  0.14029  0.33395  1.0000
  C   C25       1.0  0.33967  0.60667  0.36319  1.0000
  C   C26       1.0  0.66031  0.39333  0.63680  1.0000
  C   C27       1.0  0.35170  0.51136  0.35032  1.0000
  C   C28       1.0  0.64828  0.48863  0.64967  1.0000
  C   C29       1.0  0.24863  0.47997  0.41156  1.0000
  C   C30       1.0  0.75136  0.52003  0.58844  1.0000
  C   C31       1.0  0.26024  0.38903  0.39639  1.0000
  C   C32       1.0  0.73975  0.61098  0.60361  1.0000
  C   C33       1.0  0.38152  0.33365  0.32071  1.0000
  C   C34       1.0  0.61847  0.66636  0.67930  1.0000
  C   C35       1.0  0.47793  0.37017  0.26231  1.0000
  C   C36       1.0  0.52206  0.62983  0.73769  1.0000
  C   C37       1.0  0.91860  0.36608  0.09049  1.0000
  C   C38       1.0  0.08134  0.63391  0.90950  1.0000
  C   C39       1.0  0.71380  0.97736  0.91598  1.0000
  C   C40       1.0  0.28621  0.02264  0.08403  1.0000
  S   S1        1.0  0.95233  0.47383  0.10397  1.0000
  S   S2        1.0  0.04763  0.52615  0.89601  1.0000
  S   S3        1.0  0.64913  0.86560  0.86539  1.0000
  S   S4        1.0  0.35085  0.13440  0.13462  1.0000
  N   N1        1.0  0.57551  0.67081  0.16801  1.0000
  N   N2        1.0  0.42450  0.32919  0.83199  1.0000
  N   N3        1.0  0.44383  0.62998  0.29968  1.0000
  N   N4        1.0  0.55615  0.37001  0.70031  1.0000
  N   N5        1.0  0.46242  0.45737  0.27601  1.0000
  N   N6        1.0  0.53757  0.54263  0.72399  1.0000
  N   N7        1.0  0.23034  0.66380  0.43483  1.0000
  N   N8        1.0  0.76965  0.33620  0.56517  1.0000
  N   N9        1.0  0.17517  0.79832  0.59166  1.0000
  N   N10       1.0  0.82482  0.20168  0.40834  1.0000
  N   N11       1.0  0.28450  0.77664  0.37747  1.0000
  N   N12       1.0  0.71549  0.22336  0.62253  1.0000
  N   N13       1.0  0.89797  0.28857  0.07922  1.0000
  N   N14       1.0  0.10199  0.71142  0.92078  1.0000
  N   N15       1.0  0.76217  0.05733  0.95404  1.0000
  N   N16       1.0  0.23784  0.94268  0.04597  1.0000
