data_image0
_chemical_formula_structural       Sc4H6C30O24
_chemical_formula_sum              "Sc4 H6 C30 O24"
_cell_length_a       9.93861
_cell_length_b       9.93866
_cell_length_c       9.93862
_cell_angle_alpha    107.585
_cell_angle_beta     107.585
_cell_angle_gamma    107.585

_space_group_name_H-M_alt    "P 1"
_space_group_IT_number       1

loop_
  _space_group_symop_operation_xyz
  'x, y, z'

loop_
  _atom_site_type_symbol
  _atom_site_label
  _atom_site_symmetry_multiplicity
  _atom_site_fract_x
  _atom_site_fract_y
  _atom_site_fract_z
  _atom_site_occupancy
  Sc  Sc1       1.0  0.00000  0.50000  0.50000  1.0000
  Sc  Sc2       1.0  0.50000  0.00000  0.50001  1.0000
  Sc  Sc3       1.0  0.50000  0.50000  0.00000  1.0000
  Sc  Sc4       1.0  0.50000  0.50000  0.50000  1.0000
  H   H1        1.0  0.67073  0.13195  0.89718  1.0000
  H   H2        1.0  0.89718  0.67073  0.13195  1.0000
  H   H3        1.0  0.13195  0.89718  0.67074  1.0000
  H   H4        1.0  0.32927  0.86805  0.10282  1.0000
  H   H5        1.0  0.10282  0.32927  0.86805  1.0000
  H   H6        1.0  0.86805  0.10282  0.32927  1.0000
  C   C1        1.0  0.69413  0.33524  0.16352  1.0000
  C   C2        1.0  0.16352  0.69413  0.33525  1.0000
  C   C3        1.0  0.33525  0.16350  0.69412  1.0000
  C   C4        1.0  0.30587  0.66476  0.83648  1.0000
  C   C5        1.0  0.83648  0.30587  0.66475  1.0000
  C   C6        1.0  0.66475  0.83650  0.30589  1.0000
  C   C7        1.0  0.58709  0.16304  0.07594  1.0000
  C   C8        1.0  0.07593  0.58710  0.16304  1.0000
  C   C9        1.0  0.16304  0.07593  0.58710  1.0000
  C   C10       1.0  0.41291  0.83696  0.92407  1.0000
  C   C11       1.0  0.92407  0.41291  0.83696  1.0000
  C   C12       1.0  0.83696  0.92407  0.41291  1.0000
  C   C13       1.0  0.49066  0.08880  0.13494  1.0000
  C   C14       1.0  0.13494  0.49065  0.08880  1.0000
  C   C15       1.0  0.08880  0.13494  0.49066  1.0000
  C   C16       1.0  0.50935  0.91120  0.86507  1.0000
  C   C17       1.0  0.86507  0.50935  0.91120  1.0000
  C   C18       1.0  0.91120  0.86507  0.50935  1.0000
  C   C19       1.0  0.59570  0.07443  0.94250  1.0000
  C   C20       1.0  0.94250  0.59569  0.07443  1.0000
  C   C21       1.0  0.07443  0.94249  0.59570  1.0000
  C   C22       1.0  0.40431  0.92557  0.05751  1.0000
  C   C23       1.0  0.05751  0.40431  0.92557  1.0000
  C   C24       1.0  0.92557  0.05751  0.40431  1.0000
  C   C25       1.0  0.48106  0.17881  0.28085  1.0000
  C   C26       1.0  0.28084  0.48106  0.17882  1.0000
  C   C27       1.0  0.17882  0.28084  0.48106  1.0000
  C   C28       1.0  0.51894  0.82119  0.71916  1.0000
  C   C29       1.0  0.71916  0.51894  0.82118  1.0000
  C   C30       1.0  0.82118  0.71916  0.51894  1.0000
  O   O1        1.0  0.51409  0.32367  0.32335  1.0000
  O   O2        1.0  0.32334  0.51408  0.32367  1.0000
  O   O3        1.0  0.32367  0.32334  0.51409  1.0000
  O   O4        1.0  0.48591  0.67633  0.67665  1.0000
  O   O5        1.0  0.67666  0.48591  0.67633  1.0000
  O   O6        1.0  0.67633  0.67665  0.48591  1.0000
  O   O7        1.0  0.43836  0.10427  0.35548  1.0000
  O   O8        1.0  0.35549  0.43836  0.10427  1.0000
  O   O9        1.0  0.10427  0.35548  0.43836  1.0000
  O   O10       1.0  0.56165  0.89573  0.64453  1.0000
  O   O11       1.0  0.64453  0.56165  0.89574  1.0000
  O   O12       1.0  0.89574  0.64453  0.56165  1.0000
  O   O13       1.0  0.82162  0.37134  0.27557  1.0000
  O   O14       1.0  0.27557  0.82162  0.37133  1.0000
  O   O15       1.0  0.37134  0.27559  0.82164  1.0000
  O   O16       1.0  0.17838  0.62867  0.72443  1.0000
  O   O17       1.0  0.72443  0.17838  0.62866  1.0000
  O   O18       1.0  0.62866  0.72442  0.17836  1.0000
  O   O19       1.0  0.66046  0.43285  0.12129  1.0000
  O   O20       1.0  0.12130  0.66047  0.43285  1.0000
  O   O21       1.0  0.43284  0.12130  0.66047  1.0000
  O   O22       1.0  0.33953  0.56715  0.87870  1.0000
  O   O23       1.0  0.87871  0.33953  0.56715  1.0000
  O   O24       1.0  0.56716  0.87870  0.33953  1.0000
