data_image0
_chemical_formula_structural       Er2P8H54C40N4O32
_chemical_formula_sum              "Er2 P8 H54 C40 N4 O32"
_cell_length_a       7.8778
_cell_length_b       12.4918
_cell_length_c       15.3008
_cell_angle_alpha    110.571
_cell_angle_beta     90.2975
_cell_angle_gamma    90.5852

_space_group_name_H-M_alt    "P 1"
_space_group_IT_number       1

loop_
  _space_group_symop_operation_xyz
  'x, y, z'

loop_
  _atom_site_type_symbol
  _atom_site_label
  _atom_site_symmetry_multiplicity
  _atom_site_fract_x
  _atom_site_fract_y
  _atom_site_fract_z
  _atom_site_occupancy
  Er  Er1       1.0  0.75656  0.88569  0.52739  1.0000
  Er  Er2       1.0  0.24344  0.11431  0.47261  1.0000
  P   P1        1.0  0.86508  0.01197  0.36228  1.0000
  P   P2        1.0  0.13492  0.98802  0.63772  1.0000
  P   P3        1.0  0.46806  0.32638  0.41564  1.0000
  P   P4        1.0  0.53195  0.67362  0.58436  1.0000
  P   P5        1.0  0.98430  0.62702  0.43497  1.0000
  P   P6        1.0  0.01570  0.37298  0.56502  1.0000
  P   P7        1.0  0.43845  0.85242  0.35265  1.0000
  P   P8        1.0  0.56155  0.14758  0.64735  1.0000
  H   H1        1.0  0.82893  0.26548  0.39465  1.0000
  H   H2        1.0  0.17107  0.73452  0.60535  1.0000
  H   H3        1.0  0.34442  0.65945  0.40240  1.0000
  H   H4        1.0  0.65558  0.34055  0.59760  1.0000
  H   H5        1.0  0.64314  0.05786  0.26799  1.0000
  H   H6        1.0  0.35686  0.94214  0.73202  1.0000
  H   H7        1.0  0.61120  0.12370  0.38892  1.0000
  H   H8        1.0  0.38880  0.87630  0.61108  1.0000
  H   H9        1.0  0.55187  0.23867  0.25451  1.0000
  H   H10       1.0  0.44813  0.76133  0.74549  1.0000
  H   H11       1.0  0.67387  0.36619  0.31449  1.0000
  H   H12       1.0  0.32613  0.63381  0.68551  1.0000
  H   H13       1.0  0.94370  0.29728  0.27118  1.0000
  H   H14       1.0  0.05630  0.70272  0.72882  1.0000
  H   H15       1.0  0.00773  0.16238  0.27426  1.0000
  H   H16       1.0  0.99228  0.83762  0.72574  1.0000
  H   H17       1.0  0.85314  0.97941  0.15716  1.0000
  H   H18       1.0  0.14686  0.02060  0.84284  1.0000
  H   H19       1.0  0.75673  0.89192  0.99227  1.0000
  H   H20       1.0  0.24326  0.10808  0.00773  1.0000
  H   H21       1.0  0.74950  0.22284  0.96621  1.0000
  H   H22       1.0  0.25050  0.77717  0.03379  1.0000
  H   H23       1.0  0.82796  0.31374  0.13410  1.0000
  H   H24       1.0  0.17204  0.68626  0.86590  1.0000
  H   H25       1.0  0.15471  0.80148  0.37841  1.0000
  H   H26       1.0  0.84530  0.19853  0.62159  1.0000
  H   H27       1.0  0.20059  0.74382  0.25726  1.0000
  H   H28       1.0  0.79941  0.25619  0.74274  1.0000
  H   H29       1.0  0.16021  0.49112  0.32560  1.0000
  H   H30       1.0  0.83979  0.50888  0.67440  1.0000
  H   H31       1.0  0.04868  0.57682  0.27182  1.0000
  H   H32       1.0  0.95133  0.42318  0.72818  1.0000
  H   H33       1.0  0.52194  0.62981  0.26847  1.0000
  H   H34       1.0  0.47807  0.37019  0.73153  1.0000
  H   H35       1.0  0.45202  0.50728  0.29325  1.0000
  H   H36       1.0  0.54798  0.49272  0.70675  1.0000
  H   H37       1.0  0.28293  0.35978  0.18726  1.0000
  H   H38       1.0  0.71706  0.64022  0.81273  1.0000
  H   H39       1.0  0.15721  0.27004  0.02908  1.0000
  H   H40       1.0  0.84278  0.72996  0.97092  1.0000
  H   H41       1.0  0.27254  0.57148  0.96636  1.0000
  H   H42       1.0  0.72746  0.42852  0.03364  1.0000
  H   H43       1.0  0.39426  0.66559  0.12718  1.0000
  H   H44       1.0  0.60573  0.33441  0.87282  1.0000
  H   H45       1.0  0.68372  0.02752  0.75335  1.0000
  H   H46       1.0  0.31628  0.97248  0.24665  1.0000
  H   H47       1.0  0.08211  0.20356  0.80763  1.0000
  H   H48       1.0  0.91790  0.79644  0.19236  1.0000
  H   H49       1.0  0.39704  0.50606  0.44100  1.0000
  H   H50       1.0  0.60296  0.49394  0.55900  1.0000
  H   H51       1.0  0.87589  0.46834  0.44009  1.0000
  H   H52       1.0  0.12410  0.53166  0.55990  1.0000
  H   H53       1.0  0.67725  0.84131  0.27339  1.0000
  H   H54       1.0  0.32275  0.15868  0.72661  1.0000
  C   C1        1.0  0.70732  0.10467  0.33437  1.0000
  C   C2        1.0  0.29269  0.89533  0.66563  1.0000
  C   C3        1.0  0.62082  0.28684  0.31929  1.0000
  C   C4        1.0  0.37918  0.71316  0.68071  1.0000
  C   C5        1.0  0.90255  0.20862  0.25726  1.0000
  C   C6        1.0  0.09745  0.79138  0.74274  1.0000
  C   C7        1.0  0.84313  0.15344  0.15795  1.0000
  C   C8        1.0  0.15688  0.84656  0.84205  1.0000
  C   C9        1.0  0.82471  0.03408  0.11704  1.0000
  C   C10       1.0  0.17529  0.96592  0.88296  1.0000
  C   C11       1.0  0.77337  0.98417  0.02425  1.0000
  C   C12       1.0  0.22662  0.01583  0.97576  1.0000
  C   C13       1.0  0.74681  0.05165  0.96933  1.0000
  C   C14       1.0  0.25318  0.94835  0.03068  1.0000
  C   C15       1.0  0.76732  0.17067  0.00934  1.0000
  C   C16       1.0  0.23267  0.82934  0.99067  1.0000
  C   C17       1.0  0.81243  0.22094  0.10323  1.0000
  C   C18       1.0  0.18757  0.77906  0.89677  1.0000
  C   C19       1.0  0.70183  0.99402  0.86863  1.0000
  C   C20       1.0  0.29816  0.00598  0.13137  1.0000
  C   C21       1.0  0.25187  0.75824  0.32732  1.0000
  C   C22       1.0  0.74813  0.24176  0.67267  1.0000
  C   C23       1.0  0.12335  0.57825  0.33315  1.0000
  C   C24       1.0  0.87665  0.42175  0.66685  1.0000
  C   C25       1.0  0.41340  0.57333  0.26590  1.0000
  C   C26       1.0  0.58660  0.42666  0.73410  1.0000
  C   C27       1.0  0.34147  0.52040  0.16907  1.0000
  C   C28       1.0  0.65852  0.47960  0.83093  1.0000
  C   C29       1.0  0.27721  0.40803  0.14009  1.0000
  C   C30       1.0  0.72278  0.59197  0.85991  1.0000
  C   C31       1.0  0.20844  0.35666  0.05109  1.0000
  C   C32       1.0  0.79155  0.64335  0.94891  1.0000
  C   C33       1.0  0.20534  0.41601  0.98853  1.0000
  C   C34       1.0  0.79466  0.58399  0.01147  1.0000
  C   C35       1.0  0.27188  0.52754  0.01657  1.0000
  C   C36       1.0  0.72811  0.47246  0.98343  1.0000
  C   C37       1.0  0.33927  0.57960  0.10615  1.0000
  C   C38       1.0  0.66072  0.42040  0.89385  1.0000
  C   C39       1.0  0.14219  0.35904  0.89070  1.0000
  C   C40       1.0  0.85781  0.64096  0.10929  1.0000
  N   N1        1.0  0.76762  0.21685  0.33038  1.0000
  N   N2        1.0  0.23238  0.78315  0.66962  1.0000
  N   N3        1.0  0.28487  0.64512  0.33698  1.0000
  N   N4        1.0  0.71513  0.35488  0.66302  1.0000
  O   O1        1.0  0.65972  0.89258  0.83377  1.0000
  O   O2        1.0  0.34026  0.10742  0.16624  1.0000
  O   O3        1.0  0.71431  0.06550  0.82069  1.0000
  O   O4        1.0  0.28569  0.93450  0.17931  1.0000
  O   O5        1.0  0.08063  0.25346  0.87592  1.0000
  O   O6        1.0  0.91937  0.74655  0.12408  1.0000
  O   O7        1.0  0.14943  0.40360  0.83061  1.0000
  O   O8        1.0  0.85059  0.59640  0.16938  1.0000
  O   O9        1.0  0.84457  0.89391  0.28505  1.0000
  O   O10       1.0  0.15543  0.10609  0.71495  1.0000
  O   O11       1.0  0.81545  0.00885  0.45812  1.0000
  O   O12       1.0  0.18456  0.99114  0.54187  1.0000
  O   O13       1.0  0.04044  0.06605  0.36472  1.0000
  O   O14       1.0  0.95957  0.93395  0.63528  1.0000
  O   O15       1.0  0.36419  0.42321  0.39672  1.0000
  O   O16       1.0  0.63582  0.57678  0.60328  1.0000
  O   O17       1.0  0.56266  0.37361  0.50861  1.0000
  O   O18       1.0  0.43735  0.62639  0.49139  1.0000
  O   O19       1.0  0.35272  0.22461  0.40234  1.0000
  O   O20       1.0  0.64729  0.77539  0.59766  1.0000
  O   O21       1.0  0.84879  0.52551  0.40773  1.0000
  O   O22       1.0  0.15121  0.47449  0.59226  1.0000
  O   O23       1.0  0.07868  0.63128  0.52319  1.0000
  O   O24       1.0  0.92131  0.36872  0.47681  1.0000
  O   O25       1.0  0.90380  0.73759  0.43743  1.0000
  O   O26       1.0  0.09620  0.26240  0.56256  1.0000
  O   O27       1.0  0.55320  0.80492  0.26404  1.0000
  O   O28       1.0  0.44681  0.19508  0.73596  1.0000
  O   O29       1.0  0.52169  0.84316  0.43924  1.0000
  O   O30       1.0  0.47831  0.15684  0.56076  1.0000
  O   O31       1.0  0.37460  0.97081  0.36134  1.0000
  O   O32       1.0  0.62541  0.02919  0.63866  1.0000
