data_image0
_chemical_formula_structural       Nd2H40C48N22
_chemical_formula_sum              "Nd2 H40 C48 N22"
_cell_length_a       10.2569
_cell_length_b       10.6548
_cell_length_c       12.702
_cell_angle_alpha    72.3486
_cell_angle_beta     84.9191
_cell_angle_gamma    78.8969

_space_group_name_H-M_alt    "P 1"
_space_group_IT_number       1

loop_
  _space_group_symop_operation_xyz
  'x, y, z'

loop_
  _atom_site_type_symbol
  _atom_site_label
  _atom_site_symmetry_multiplicity
  _atom_site_fract_x
  _atom_site_fract_y
  _atom_site_fract_z
  _atom_site_occupancy
  Nd  Nd1       1.0  0.75113  0.99584  0.51838  1.0000
  Nd  Nd2       1.0  0.24887  0.00415  0.48161  1.0000
  H   H1        1.0  0.62716  0.51163  0.37616  1.0000
  H   H2        1.0  0.37281  0.48839  0.62383  1.0000
  H   H3        1.0  0.43711  0.68500  0.28797  1.0000
  H   H4        1.0  0.56285  0.31500  0.71203  1.0000
  H   H5        1.0  0.22193  0.62541  0.26699  1.0000
  H   H6        1.0  0.77804  0.37457  0.73303  1.0000
  H   H7        1.0  0.18895  0.38682  0.32825  1.0000
  H   H8        1.0  0.81104  0.61315  0.67177  1.0000
  H   H9        1.0  0.70074  0.22482  0.20772  1.0000
  H   H10       1.0  0.29926  0.77519  0.79229  1.0000
  H   H11       1.0  0.76219  0.34082  0.01218  1.0000
  H   H12       1.0  0.23781  0.65918  0.98783  1.0000
  H   H13       1.0  0.57483  0.15022  0.63941  1.0000
  H   H14       1.0  0.42519  0.84978  0.36059  1.0000
  H   H15       1.0  0.52801  0.01732  0.72372  1.0000
  H   H16       1.0  0.47200  0.98269  0.27627  1.0000
  H   H17       1.0  0.99129  0.37978  0.95739  1.0000
  H   H18       1.0  0.00872  0.62022  0.04262  1.0000
  H   H19       1.0  0.94242  0.15295  0.60414  1.0000
  H   H20       1.0  0.05758  0.84705  0.39586  1.0000
  H   H21       1.0  0.79105  0.24097  0.57915  1.0000
  H   H22       1.0  0.20895  0.75903  0.42085  1.0000
  H   H23       1.0  0.17017  0.30661  0.09497  1.0000
  H   H24       1.0  0.82982  0.69340  0.90503  1.0000
  H   H25       1.0  0.66670  0.75071  0.11784  1.0000
  H   H26       1.0  0.33332  0.24928  0.88215  1.0000
  H   H27       1.0  0.80725  0.52329  0.15798  1.0000
  H   H28       1.0  0.19278  0.47670  0.84202  1.0000
  H   H29       1.0  0.96212  0.44022  0.31102  1.0000
  H   H30       1.0  0.03790  0.55978  0.68897  1.0000
  H   H31       1.0  0.98489  0.57992  0.43273  1.0000
  H   H32       1.0  0.01513  0.42007  0.56727  1.0000
  H   H33       1.0  0.56370  0.98794  0.91032  1.0000
  H   H34       1.0  0.43630  0.01206  0.08968  1.0000
  H   H35       1.0  0.71150  0.00696  0.05011  1.0000
  H   H36       1.0  0.28851  0.99303  0.94988  1.0000
  H   H37       1.0  0.92208  0.09353  0.98705  1.0000
  H   H38       1.0  0.07792  0.90647  0.01295  1.0000
  H   H39       1.0  0.98753  0.15865  0.78765  1.0000
  H   H40       1.0  0.01247  0.84136  0.21234  1.0000
  C   C1        1.0  0.51446  0.35071  0.39908  1.0000
  C   C2        1.0  0.48553  0.64930  0.60092  1.0000
  C   C3        1.0  0.53278  0.48470  0.36631  1.0000
  C   C4        1.0  0.46719  0.51532  0.63369  1.0000
  C   C5        1.0  0.42576  0.58030  0.31875  1.0000
  C   C6        1.0  0.57421  0.41971  0.68125  1.0000
  C   C7        1.0  0.30240  0.54598  0.30560  1.0000
  C   C8        1.0  0.69758  0.45402  0.69441  1.0000
  C   C9        1.0  0.28275  0.41432  0.33881  1.0000
  C   C10       1.0  0.71723  0.58568  0.66121  1.0000
  C   C11       1.0  0.39121  0.31594  0.38513  1.0000
  C   C12       1.0  0.60878  0.68406  0.61488  1.0000
  C   C13       1.0  0.90249  0.20145  0.26102  1.0000
  C   C14       1.0  0.09751  0.79856  0.73898  1.0000
  C   C15       1.0  0.80139  0.24352  0.18355  1.0000
  C   C16       1.0  0.19861  0.75649  0.81645  1.0000
  C   C17       1.0  0.83688  0.30771  0.07542  1.0000
  C   C18       1.0  0.16312  0.69230  0.92458  1.0000
  C   C19       1.0  0.96863  0.33008  0.04375  1.0000
  C   C20       1.0  0.03137  0.66993  0.95625  1.0000
  C   C21       1.0  0.06896  0.28975  0.11946  1.0000
  C   C22       1.0  0.93104  0.71026  0.88054  1.0000
  C   C23       1.0  0.03447  0.22483  0.22953  1.0000
  C   C24       1.0  0.96553  0.77517  0.77047  1.0000
  C   C25       1.0  0.74462  0.79167  0.25619  1.0000
  C   C26       1.0  0.25539  0.20833  0.74380  1.0000
  C   C27       1.0  0.73443  0.71388  0.18631  1.0000
  C   C28       1.0  0.26558  0.28611  0.81369  1.0000
  C   C29       1.0  0.81347  0.58816  0.20859  1.0000
  C   C30       1.0  0.18655  0.41184  0.79140  1.0000
  C   C31       1.0  0.90240  0.53983  0.29727  1.0000
  C   C32       1.0  0.09761  0.46017  0.70272  1.0000
  C   C33       1.0  0.91460  0.61571  0.36616  1.0000
  C   C34       1.0  0.08542  0.38427  0.63383  1.0000
  C   C35       1.0  0.83355  0.74254  0.34541  1.0000
  C   C36       1.0  0.16646  0.25744  0.65460  1.0000
  C   C37       1.0  0.69176  0.06528  0.77210  1.0000
  C   C38       1.0  0.30824  0.93472  0.22790  1.0000
  C   C39       1.0  0.65686  0.02549  0.88471  1.0000
  C   C40       1.0  0.34315  0.97451  0.11529  1.0000
  C   C41       1.0  0.73968  0.03533  0.96236  1.0000
  C   C42       1.0  0.26032  0.96467  0.03764  1.0000
  C   C43       1.0  0.85823  0.08355  0.92717  1.0000
  C   C44       1.0  0.14177  0.91645  0.07283  1.0000
  C   C45       1.0  0.89468  0.12134  0.81490  1.0000
  C   C46       1.0  0.10532  0.87867  0.18510  1.0000
  C   C47       1.0  0.81151  0.11339  0.73678  1.0000
  C   C48       1.0  0.18849  0.88662  0.26321  1.0000
  N   N1        1.0  0.59813  0.23336  0.44555  1.0000
  N   N2        1.0  0.40187  0.76665  0.55445  1.0000
  N   N3        1.0  0.52915  0.13535  0.45754  1.0000
  N   N4        1.0  0.47086  0.86465  0.54245  1.0000
  N   N5        1.0  0.40556  0.17912  0.42322  1.0000
  N   N6        1.0  0.59445  0.82088  0.57679  1.0000
  N   N7        1.0  0.90191  0.13451  0.37206  1.0000
  N   N8        1.0  0.09809  0.86549  0.62794  1.0000
  N   N9        1.0  0.02469  0.12075  0.40468  1.0000
  N   N10       1.0  0.97531  0.87924  0.59532  1.0000
  N   N11       1.0  0.10764  0.17248  0.32298  1.0000
  N   N12       1.0  0.89236  0.82752  0.67703  1.0000
  N   N13       1.0  0.68054  0.91731  0.25683  1.0000
  N   N14       1.0  0.31947  0.08268  0.74317  1.0000
  N   N15       1.0  0.72906  0.94159  0.34043  1.0000
  N   N16       1.0  0.27095  0.05840  0.65956  1.0000
  N   N17       1.0  0.82130  0.84060  0.39597  1.0000
  N   N18       1.0  0.17870  0.15939  0.60403  1.0000
  N   N19       1.0  0.61133  0.05662  0.68940  1.0000
  N   N20       1.0  0.38867  0.94338  0.31059  1.0000
  N   N21       1.0  0.84324  0.14913  0.62000  1.0000
  N   N22       1.0  0.15677  0.85086  0.38000  1.0000
