data_image0
_chemical_formula_structural       Zn2H40C44N4O8
_chemical_formula_sum              "Zn2 H40 C44 N4 O8"
_cell_length_a       8.97672
_cell_length_b       9.89453
_cell_length_c       12.2455
_cell_angle_alpha    83.0872
_cell_angle_beta     71.6764
_cell_angle_gamma    76.8003

_space_group_name_H-M_alt    "P 1"
_space_group_IT_number       1

loop_
  _space_group_symop_operation_xyz
  'x, y, z'

loop_
  _atom_site_type_symbol
  _atom_site_label
  _atom_site_symmetry_multiplicity
  _atom_site_fract_x
  _atom_site_fract_y
  _atom_site_fract_z
  _atom_site_occupancy
  Zn  Zn1       1.0  0.32866  0.10903  0.69503  1.0000
  Zn  Zn2       1.0  0.67134  0.89097  0.30497  1.0000
  H   H1        1.0  0.57385  0.71550  0.94050  1.0000
  H   H2        1.0  0.42615  0.28450  0.05950  1.0000
  H   H3        1.0  0.69272  0.45906  0.95215  1.0000
  H   H4        1.0  0.30728  0.54094  0.04785  1.0000
  H   H5        1.0  0.72545  0.31334  0.79182  1.0000
  H   H6        1.0  0.27455  0.68666  0.20818  1.0000
  H   H7        1.0  0.52637  0.67339  0.60953  1.0000
  H   H8        1.0  0.47363  0.32661  0.39047  1.0000
  H   H9        1.0  0.74454  0.30847  0.58278  1.0000
  H   H10       1.0  0.25546  0.69153  0.41721  1.0000
  H   H11       1.0  0.64079  0.45403  0.51500  1.0000
  H   H12       1.0  0.35921  0.54597  0.48500  1.0000
  H   H13       1.0  0.32718  0.94534  0.51275  1.0000
  H   H14       1.0  0.67282  0.05466  0.48725  1.0000
  H   H15       1.0  0.21371  0.97008  0.35047  1.0000
  H   H16       1.0  0.78629  0.02992  0.64953  1.0000
  H   H17       1.0  0.97821  0.38870  0.45005  1.0000
  H   H18       1.0  0.02179  0.61130  0.54995  1.0000
  H   H19       1.0  0.10687  0.34718  0.60800  1.0000
  H   H20       1.0  0.89313  0.65282  0.39200  1.0000
  H   H21       1.0  0.09673  0.14514  0.21681  1.0000
  H   H22       1.0  0.90326  0.85486  0.78318  1.0000
  H   H23       1.0  0.91260  0.12871  0.31873  1.0000
  H   H24       1.0  0.08740  0.87129  0.68127  1.0000
  H   H25       1.0  0.01608  0.40701  0.23182  1.0000
  H   H26       1.0  0.98392  0.59299  0.76818  1.0000
  H   H27       1.0  0.83268  0.38839  0.33353  1.0000
  H   H28       1.0  0.16732  0.61161  0.66647  1.0000
  H   H29       1.0  0.75227  0.27855  0.19920  1.0000
  H   H30       1.0  0.24772  0.72145  0.80080  1.0000
  H   H31       1.0  0.78273  0.44715  0.15195  1.0000
  H   H32       1.0  0.21727  0.55285  0.84805  1.0000
  H   H33       1.0  0.79218  0.17558  0.01917  1.0000
  H   H34       1.0  0.20782  0.82442  0.98083  1.0000
  H   H35       1.0  0.98295  0.09376  0.83144  1.0000
  H   H36       1.0  0.01706  0.90624  0.16856  1.0000
  H   H37       1.0  0.33128  0.28163  0.86757  1.0000
  H   H38       1.0  0.66872  0.71837  0.13243  1.0000
  H   H39       1.0  0.15232  0.37806  0.05370  1.0000
  H   H40       1.0  0.84768  0.62194  0.94630  1.0000
  C   C1        1.0  0.46698  0.86032  0.77251  1.0000
  C   C2        1.0  0.53302  0.13968  0.22750  1.0000
  C   C3        1.0  0.54518  0.70881  0.77419  1.0000
  C   C4        1.0  0.45482  0.29119  0.22582  1.0000
  C   C5        1.0  0.59220  0.64879  0.87079  1.0000
  C   C6        1.0  0.40780  0.35121  0.12921  1.0000
  C   C7        1.0  0.65832  0.50702  0.87635  1.0000
  C   C8        1.0  0.34168  0.49298  0.12365  1.0000
  C   C9        1.0  0.67666  0.42481  0.78623  1.0000
  C   C10       1.0  0.32334  0.57519  0.21377  1.0000
  C   C11       1.0  0.62925  0.48328  0.68910  1.0000
  C   C12       1.0  0.37075  0.51672  0.31090  1.0000
  C   C13       1.0  0.56447  0.62573  0.68389  1.0000
  C   C14       1.0  0.43553  0.37427  0.31611  1.0000
  C   C15       1.0  0.63788  0.39220  0.59634  1.0000
  C   C16       1.0  0.36212  0.60780  0.40366  1.0000
  C   C17       1.0  0.49006  0.32629  0.63177  1.0000
  C   C18       1.0  0.50994  0.67371  0.36823  1.0000
  C   C19       1.0  0.24692  0.04111  0.49708  1.0000
  C   C20       1.0  0.75308  0.95889  0.50292  1.0000
  C   C21       1.0  0.18108  0.05599  0.40698  1.0000
  C   C22       1.0  0.81892  0.94400  0.59302  1.0000
  C   C23       1.0  0.07952  0.18086  0.38785  1.0000
  C   C24       1.0  0.92048  0.81914  0.61215  1.0000
  C   C25       1.0  0.05264  0.28772  0.46155  1.0000
  C   C26       1.0  0.94736  0.71227  0.53845  1.0000
  C   C27       1.0  0.12264  0.26582  0.55029  1.0000
  C   C28       1.0  0.87736  0.73418  0.44971  1.0000
  C   C29       1.0  0.00437  0.19381  0.29228  1.0000
  C   C30       1.0  0.99563  0.80619  0.70772  1.0000
  C   C31       1.0  0.92662  0.34023  0.25926  1.0000
  C   C32       1.0  0.07338  0.65978  0.74074  1.0000
  C   C33       1.0  0.84578  0.34015  0.16623  1.0000
  C   C34       1.0  0.15422  0.65985  0.83377  1.0000
  C   C35       1.0  0.95534  0.28668  0.05276  1.0000
  C   C36       1.0  0.04466  0.71332  0.94724  1.0000
  C   C37       1.0  0.90928  0.20470  0.98803  1.0000
  C   C38       1.0  0.09072  0.79530  0.01197  1.0000
  C   C39       1.0  0.01548  0.15759  0.88363  1.0000
  C   C40       1.0  0.98452  0.84241  0.11637  1.0000
  C   C41       1.0  0.20953  0.26348  0.90336  1.0000
  C   C42       1.0  0.79047  0.73652  0.09663  1.0000
  C   C43       1.0  0.10911  0.31629  0.00696  1.0000
  C   C44       1.0  0.89089  0.68372  0.99304  1.0000
  N   N1        1.0  0.21717  0.14388  0.56892  1.0000
  N   N2        1.0  0.78283  0.85612  0.43108  1.0000
  N   N3        1.0  0.16367  0.18547  0.84176  1.0000
  N   N4        1.0  0.83633  0.81453  0.15824  1.0000
  O   O1        1.0  0.45788  0.93445  0.85089  1.0000
  O   O2        1.0  0.54213  0.06555  0.14911  1.0000
  O   O3        1.0  0.40716  0.90519  0.68708  1.0000
  O   O4        1.0  0.59283  0.09481  0.31293  1.0000
  O   O5        1.0  0.35410  0.39878  0.63834  1.0000
  O   O6        1.0  0.64590  0.60122  0.36166  1.0000
  O   O7        1.0  0.51863  0.19316  0.65570  1.0000
  O   O8        1.0  0.48137  0.80684  0.34430  1.0000
