data_image0
_chemical_formula_structural       Zn2H52C44S8N12O12
_chemical_formula_sum              "Zn2 H52 C44 S8 N12 O12"
_cell_length_a       11.1561
_cell_length_b       11.294
_cell_length_c       13.5402
_cell_angle_alpha    100.092
_cell_angle_beta     107.575
_cell_angle_gamma    115.593

_space_group_name_H-M_alt    "P 1"
_space_group_IT_number       1

loop_
  _space_group_symop_operation_xyz
  'x, y, z'

loop_
  _atom_site_type_symbol
  _atom_site_label
  _atom_site_symmetry_multiplicity
  _atom_site_fract_x
  _atom_site_fract_y
  _atom_site_fract_z
  _atom_site_occupancy
  Zn  Zn1       1.0  0.50000  0.50000  0.50000  1.0000
  Zn  Zn2       1.0  0.50000  0.00000  0.00000  1.0000
  H   H1        1.0  0.33013  0.18469  0.86512  1.0000
  H   H2        1.0  0.81748  0.46605  0.63503  1.0000
  H   H3        1.0  0.66987  0.81531  0.13488  1.0000
  H   H4        1.0  0.18252  0.53396  0.36496  1.0000
  H   H5        1.0  0.27847  0.26082  0.76528  1.0000
  H   H6        1.0  0.99655  0.51513  0.73399  1.0000
  H   H7        1.0  0.72153  0.73918  0.23472  1.0000
  H   H8        1.0  0.00345  0.48487  0.26601  1.0000
  H   H9        1.0  0.43470  0.24578  0.78968  1.0000
  H   H10       1.0  0.95597  0.64524  0.71155  1.0000
  H   H11       1.0  0.56530  0.75422  0.21032  1.0000
  H   H12       1.0  0.04403  0.35476  0.28845  1.0000
  H   H13       1.0  0.84756  0.47990  0.34579  1.0000
  H   H14       1.0  0.63152  0.49825  0.15343  1.0000
  H   H15       1.0  0.15244  0.52010  0.65421  1.0000
  H   H16       1.0  0.36848  0.50175  0.84657  1.0000
  H   H17       1.0  0.94044  0.55311  0.49326  1.0000
  H   H18       1.0  0.55651  0.44202  0.00602  1.0000
  H   H19       1.0  0.05956  0.44689  0.50674  1.0000
  H   H20       1.0  0.44349  0.55798  0.99398  1.0000
  H   H21       1.0  0.48177  0.41530  0.26678  1.0000
  H   H22       1.0  0.64621  0.21526  0.23420  1.0000
  H   H23       1.0  0.51824  0.58470  0.73322  1.0000
  H   H24       1.0  0.35378  0.78474  0.76580  1.0000
  H   H25       1.0  0.32095  0.21454  0.08676  1.0000
  H   H26       1.0  0.62707  0.23334  0.41404  1.0000
  H   H27       1.0  0.67905  0.78546  0.91324  1.0000
  H   H28       1.0  0.37292  0.76666  0.58595  1.0000
  H   H29       1.0  0.20885  0.22445  0.41121  1.0000
  H   H30       1.0  0.31275  0.79746  0.08834  1.0000
  H   H31       1.0  0.79115  0.77555  0.58879  1.0000
  H   H32       1.0  0.68724  0.20253  0.91166  1.0000
  H   H33       1.0  0.03204  0.01961  0.23596  1.0000
  H   H34       1.0  0.28457  0.79509  0.26322  1.0000
  H   H35       1.0  0.96796  0.98039  0.76404  1.0000
  H   H36       1.0  0.71542  0.20491  0.73678  1.0000
  H   H37       1.0  0.11151  0.95633  0.99283  1.0000
  H   H38       1.0  0.46362  0.11769  0.50732  1.0000
  H   H39       1.0  0.88849  0.04367  0.00717  1.0000
  H   H40       1.0  0.53638  0.88231  0.49268  1.0000
  H   H41       1.0  0.98626  0.88767  0.05227  1.0000
  H   H42       1.0  0.33313  0.93426  0.44635  1.0000
  H   H43       1.0  0.01374  0.11234  0.94773  1.0000
  H   H44       1.0  0.66687  0.06574  0.55365  1.0000
  H   H45       1.0  0.42225  0.61913  0.34973  1.0000
  H   H46       1.0  0.77034  0.07408  0.15168  1.0000
  H   H47       1.0  0.57774  0.38087  0.65027  1.0000
  H   H48       1.0  0.22966  0.92592  0.84832  1.0000
  H   H49       1.0  0.59009  0.66308  0.40126  1.0000
  H   H50       1.0  0.76361  0.18998  0.10120  1.0000
  H   H51       1.0  0.40991  0.33692  0.59874  1.0000
  H   H52       1.0  0.23640  0.81003  0.89881  1.0000
  C   C1        1.0  0.32284  0.19381  0.78457  1.0000
  C   C2        1.0  0.90894  0.53937  0.71567  1.0000
  C   C3        1.0  0.67716  0.80619  0.21543  1.0000
  C   C4        1.0  0.09106  0.46063  0.28433  1.0000
  C   C5        1.0  0.22851  0.05261  0.69706  1.0000
  C   C6        1.0  0.85567  0.53197  0.80344  1.0000
  C   C7        1.0  0.77149  0.94739  0.30294  1.0000
  C   C8        1.0  0.14433  0.46804  0.19656  1.0000
  C   C9        1.0  0.09291  0.84397  0.53460  1.0000
  C   C10       1.0  0.80927  0.55621  0.96588  1.0000
  C   C11       1.0  0.90709  0.15603  0.46540  1.0000
  C   C12       1.0  0.19073  0.44379  0.03412  1.0000
  C   C13       1.0  0.88605  0.56941  0.41936  1.0000
  C   C14       1.0  0.64794  0.46258  0.08018  1.0000
  C   C15       1.0  0.11395  0.43058  0.58064  1.0000
  C   C16       1.0  0.35206  0.53743  0.91982  1.0000
  C   C17       1.0  0.75416  0.57819  0.42402  1.0000
  C   C18       1.0  0.65253  0.32776  0.07580  1.0000
  C   C19       1.0  0.24584  0.42180  0.57598  1.0000
  C   C20       1.0  0.34748  0.67225  0.92420  1.0000
  C   C21       1.0  0.38137  0.32461  0.25652  1.0000
  C   C22       1.0  0.56644  0.12465  0.24395  1.0000
  C   C23       1.0  0.61864  0.67539  0.74348  1.0000
  C   C24       1.0  0.43356  0.87535  0.75605  1.0000
  C   C25       1.0  0.28979  0.21337  0.15580  1.0000
  C   C26       1.0  0.55681  0.13332  0.34471  1.0000
  C   C27       1.0  0.71021  0.78663  0.84420  1.0000
  C   C28       1.0  0.44318  0.86667  0.65529  1.0000
  C   C29       1.0  0.22929  0.21902  0.33727  1.0000
  C   C30       1.0  0.38132  0.89178  0.16253  1.0000
  C   C31       1.0  0.77072  0.78099  0.66273  1.0000
  C   C32       1.0  0.61868  0.10822  0.83747  1.0000
  C   C33       1.0  0.13140  0.10459  0.23928  1.0000
  C   C34       1.0  0.36565  0.89142  0.26045  1.0000
  C   C35       1.0  0.86860  0.89541  0.76072  1.0000
  C   C36       1.0  0.63435  0.10858  0.73955  1.0000
  C   C37       1.0  0.15986  0.10031  0.14525  1.0000
  C   C38       1.0  0.45524  0.01381  0.35492  1.0000
  C   C39       1.0  0.84014  0.89969  0.85475  1.0000
  C   C40       1.0  0.54476  0.98619  0.64507  1.0000
  C   C41       1.0  0.05245  0.98164  0.03686  1.0000
  C   C42       1.0  0.44452  0.01523  0.46294  1.0000
  C   C43       1.0  0.94755  0.01836  0.96314  1.0000
  C   C44       1.0  0.55548  0.98476  0.53706  1.0000
  S   S1        1.0  0.18853  0.02240  0.55771  1.0000
  S   S2        1.0  0.96641  0.63135  0.94320  1.0000
  S   S3        1.0  0.81147  0.97759  0.44229  1.0000
  S   S4        1.0  0.03359  0.36865  0.05680  1.0000
  S   S5        1.0  0.01778  0.72092  0.40354  1.0000
  S   S6        1.0  0.81767  0.60973  0.09730  1.0000
  S   S7        1.0  0.98221  0.27907  0.59646  1.0000
  S   S8        1.0  0.18233  0.39027  0.90270  1.0000
  N   N1        1.0  0.16691  0.93553  0.71601  1.0000
  N   N2        1.0  0.71814  0.44985  0.78412  1.0000
  N   N3        1.0  0.83309  0.06447  0.28399  1.0000
  N   N4        1.0  0.28186  0.55015  0.21588  1.0000
  N   N5        1.0  0.08919  0.81579  0.62443  1.0000
  N   N6        1.0  0.68977  0.46218  0.87557  1.0000
  N   N7        1.0  0.91081  0.18420  0.37557  1.0000
  N   N8        1.0  0.31023  0.53782  0.12443  1.0000
  N   N9        1.0  0.35224  0.32864  0.34617  1.0000
  N   N10       1.0  0.48102  0.00615  0.15385  1.0000
  N   N11       1.0  0.64776  0.67136  0.65383  1.0000
  N   N12       1.0  0.51898  0.99384  0.84614  1.0000
  O   O1        1.0  0.72149  0.65655  0.37992  1.0000
  O   O2        1.0  0.77704  0.34044  0.12038  1.0000
  O   O3        1.0  0.27850  0.34345  0.62008  1.0000
  O   O4        1.0  0.22297  0.65956  0.87962  1.0000
  O   O5        1.0  0.68669  0.50228  0.47042  1.0000
  O   O6        1.0  0.52883  0.21400  0.02936  1.0000
  O   O7        1.0  0.31331  0.49771  0.52958  1.0000
  O   O8        1.0  0.47118  0.78601  0.97064  1.0000
  O   O9        1.0  0.50778  0.65404  0.42235  1.0000
  O   O10       1.0  0.73356  0.08757  0.07969  1.0000
  O   O11       1.0  0.49222  0.34596  0.57765  1.0000
  O   O12       1.0  0.26644  0.91244  0.92031  1.0000
