data_image0
_chemical_formula_structural       La2H22C24O14
_chemical_formula_sum              "La2 H22 C24 O14"
_cell_length_a       8.29356
_cell_length_b       8.72579
_cell_length_c       9.56191
_cell_angle_alpha    84.4266
_cell_angle_beta     78.269
_cell_angle_gamma    61.6007

_space_group_name_H-M_alt    "P 1"
_space_group_IT_number       1

loop_
  _space_group_symop_operation_xyz
  'x, y, z'

loop_
  _atom_site_type_symbol
  _atom_site_label
  _atom_site_symmetry_multiplicity
  _atom_site_fract_x
  _atom_site_fract_y
  _atom_site_fract_z
  _atom_site_occupancy
  La  La1       1.0  0.29746  0.40519  0.99993  1.0000
  La  La2       1.0  0.70254  0.59481  0.00007  1.0000
  H   H1        1.0  0.00037  0.80129  0.00180  1.0000
  H   H2        1.0  0.19835  0.80131  0.99826  1.0000
  H   H3        1.0  0.99963  0.19871  0.99820  1.0000
  H   H4        1.0  0.80165  0.19868  0.00174  1.0000
  H   H5        1.0  0.79569  0.27934  0.69035  1.0000
  H   H6        1.0  0.92472  0.27896  0.30987  1.0000
  H   H7        1.0  0.20432  0.72066  0.30964  1.0000
  H   H8        1.0  0.07529  0.72103  0.69013  1.0000
  H   H9        1.0  0.39550  0.00037  0.60765  1.0000
  H   H10       1.0  0.60451  0.99962  0.39235  1.0000
  H   H11       1.0  0.19320  0.32793  0.52366  1.0000
  H   H12       1.0  0.47872  0.32735  0.47644  1.0000
  H   H13       1.0  0.80682  0.67204  0.47635  1.0000
  H   H14       1.0  0.52129  0.67264  0.52355  1.0000
  H   H15       1.0  0.95638  0.43486  0.61464  1.0000
  H   H16       1.0  0.60865  0.43429  0.38583  1.0000
  H   H17       1.0  0.04363  0.56513  0.38537  1.0000
  H   H18       1.0  0.39136  0.56570  0.61416  1.0000
  H   H19       1.0  0.61869  0.11678  0.70467  1.0000
  H   H20       1.0  0.26425  0.11697  0.29526  1.0000
  H   H21       1.0  0.38132  0.88321  0.29532  1.0000
  H   H22       1.0  0.73575  0.88302  0.70474  1.0000
  C   C1        1.0  0.09588  0.15866  0.64589  1.0000
  C   C2        1.0  0.74548  0.15813  0.35426  1.0000
  C   C3        1.0  0.90412  0.84134  0.35412  1.0000
  C   C4        1.0  0.25453  0.84186  0.64574  1.0000
  C   C5        1.0  0.92474  0.15680  0.67840  1.0000
  C   C6        1.0  0.91843  0.15635  0.32176  1.0000
  C   C7        1.0  0.07527  0.84319  0.32160  1.0000
  C   C8        1.0  0.08158  0.84363  0.67824  1.0000
  C   C9        1.0  0.91588  0.00014  0.69590  1.0000
  C   C10       1.0  0.08413  0.99986  0.30410  1.0000
  C   C11       1.0  0.26107  0.00029  0.63146  1.0000
  C   C12       1.0  0.73894  0.99969  0.36854  1.0000
  C   C13       1.0  0.09711  0.33234  0.62298  1.0000
  C   C14       1.0  0.57048  0.33186  0.37720  1.0000
  C   C15       1.0  0.90290  0.66764  0.37702  1.0000
  C   C16       1.0  0.42953  0.66813  0.62279  1.0000
  C   C17       1.0  0.15758  0.37978  0.74408  1.0000
  C   C18       1.0  0.46262  0.37969  0.25597  1.0000
  C   C19       1.0  0.84242  0.62021  0.25593  1.0000
  C   C20       1.0  0.53738  0.62030  0.74403  1.0000
  C   C21       1.0  0.73073  0.99994  0.74245  1.0000
  C   C22       1.0  0.26927  0.00006  0.25755  1.0000
  C   C23       1.0  0.69598  0.99997  0.90482  1.0000
  C   C24       1.0  0.30401  0.00003  0.09518  1.0000
  O   O1        1.0  0.32917  0.33154  0.73946  1.0000
  O   O2        1.0  0.33937  0.33142  0.26039  1.0000
  O   O3        1.0  0.67084  0.66845  0.26054  1.0000
  O   O4        1.0  0.66064  0.66857  0.73960  1.0000
  O   O5        1.0  0.03581  0.46808  0.85177  1.0000
  O   O6        1.0  0.49599  0.46826  0.14842  1.0000
  O   O7        1.0  0.96419  0.53190  0.14824  1.0000
  O   O8        1.0  0.50401  0.53174  0.85158  1.0000
  O   O9        1.0  0.76185  0.85403  0.97026  1.0000
  O   O10       1.0  0.38388  0.85402  0.02995  1.0000
  O   O11       1.0  0.23815  0.14597  0.02974  1.0000
  O   O12       1.0  0.61612  0.14598  0.97004  1.0000
  O   O13       1.0  0.13504  0.73017  0.99962  1.0000
  O   O14       1.0  0.86495  0.26983  0.00038  1.0000
