data_image0
_chemical_formula_structural       La2H26C24O16
_chemical_formula_sum              "La2 H26 C24 O16"
_cell_length_a       8.62948
_cell_length_b       9.28852
_cell_length_c       9.66143
_cell_angle_alpha    111.471
_cell_angle_beta     96.1798
_cell_angle_gamma    94.8718

_space_group_name_H-M_alt    "P 1"
_space_group_IT_number       1

loop_
  _space_group_symop_operation_xyz
  'x, y, z'

loop_
  _atom_site_type_symbol
  _atom_site_label
  _atom_site_symmetry_multiplicity
  _atom_site_fract_x
  _atom_site_fract_y
  _atom_site_fract_z
  _atom_site_occupancy
  La  La1       1.0  0.46814  0.74548  0.02760  1.0000
  La  La2       1.0  0.53187  0.25452  0.97240  1.0000
  H   H1        1.0  0.30615  0.04520  0.17349  1.0000
  H   H2        1.0  0.69385  0.95480  0.82651  1.0000
  H   H3        1.0  0.36822  0.99059  0.30361  1.0000
  H   H4        1.0  0.63178  0.00941  0.69639  1.0000
  H   H5        1.0  0.45773  0.61221  0.27581  1.0000
  H   H6        1.0  0.54227  0.38778  0.72418  1.0000
  H   H7        1.0  0.31594  0.70677  0.29398  1.0000
  H   H8        1.0  0.68406  0.29322  0.70602  1.0000
  H   H9        1.0  0.11074  0.43864  0.17366  1.0000
  H   H10       1.0  0.88927  0.56136  0.82634  1.0000
  H   H11       1.0  0.26135  0.60151  0.65059  1.0000
  H   H12       1.0  0.73864  0.39849  0.34941  1.0000
  H   H13       1.0  0.95439  0.85303  0.47057  1.0000
  H   H14       1.0  0.04561  0.14697  0.52942  1.0000
  H   H15       1.0  0.87518  0.77507  0.21170  1.0000
  H   H16       1.0  0.12482  0.22493  0.78830  1.0000
  H   H17       1.0  0.00108  0.66678  0.09091  1.0000
  H   H18       1.0  0.99892  0.33322  0.90909  1.0000
  H   H19       1.0  0.21361  0.26788  0.37969  1.0000
  H   H20       1.0  0.78638  0.73212  0.62031  1.0000
  H   H21       1.0  0.38229  0.40158  0.48735  1.0000
  H   H22       1.0  0.61771  0.59842  0.51266  1.0000
  H   H23       1.0  0.02290  0.93785  0.73560  1.0000
  H   H24       1.0  0.97710  0.06215  0.26440  1.0000
  H   H25       1.0  0.06723  0.78925  0.80512  1.0000
  H   H26       1.0  0.93276  0.21075  0.19488  1.0000
  C   C1        1.0  0.02314  0.64826  0.30727  1.0000
  C   C2        1.0  0.97686  0.35174  0.69273  1.0000
  C   C3        1.0  0.11171  0.52425  0.28683  1.0000
  C   C4        1.0  0.88829  0.47576  0.71317  1.0000
  C   C5        1.0  0.19809  0.50717  0.41005  1.0000
  C   C6        1.0  0.80191  0.49284  0.58995  1.0000
  C   C7        1.0  0.19484  0.61497  0.55476  1.0000
  C   C8        1.0  0.80516  0.38504  0.44524  1.0000
  C   C9        1.0  0.10749  0.73989  0.57800  1.0000
  C   C10       1.0  0.89251  0.26011  0.42200  1.0000
  C   C11       1.0  0.02331  0.75618  0.45365  1.0000
  C   C12       1.0  0.97669  0.24382  0.54635  1.0000
  C   C13       1.0  0.92598  0.66532  0.17618  1.0000
  C   C14       1.0  0.07402  0.33468  0.82382  1.0000
  C   C15       1.0  0.79341  0.53213  0.09600  1.0000
  C   C16       1.0  0.20660  0.46787  0.90400  1.0000
  C   C17       1.0  0.29165  0.37166  0.38850  1.0000
  C   C18       1.0  0.70835  0.62834  0.61150  1.0000
  C   C19       1.0  0.37017  0.33299  0.24912  1.0000
  C   C20       1.0  0.62983  0.66701  0.75088  1.0000
  C   C21       1.0  0.10460  0.85370  0.73634  1.0000
  C   C22       1.0  0.89540  0.14630  0.26366  1.0000
  C   C23       1.0  0.26829  0.94181  0.80759  1.0000
  C   C24       1.0  0.73171  0.05819  0.19241  1.0000
  O   O1        1.0  0.65734  0.56338  0.05593  1.0000
  O   O2        1.0  0.34266  0.43662  0.94407  1.0000
  O   O3        1.0  0.81619  0.39145  0.06652  1.0000
  O   O4        1.0  0.18381  0.60855  0.93348  1.0000
  O   O5        1.0  0.32139  0.20678  0.13544  1.0000
  O   O6        1.0  0.67861  0.79321  0.86456  1.0000
  O   O7        1.0  0.48459  0.42843  0.24554  1.0000
  O   O8        1.0  0.51542  0.57157  0.75446  1.0000
  O   O9        1.0  0.31078  0.06583  0.78674  1.0000
  O   O10       1.0  0.68922  0.93417  0.21327  1.0000
  O   O11       1.0  0.35799  0.88644  0.88355  1.0000
  O   O12       1.0  0.64200  0.11356  0.11645  1.0000
  O   O13       1.0  0.31309  0.95137  0.20093  1.0000
  O   O14       1.0  0.68691  0.04863  0.79907  1.0000
  O   O15       1.0  0.42524  0.71317  0.27551  1.0000
  O   O16       1.0  0.57476  0.28682  0.72449  1.0000
