data_image0
_chemical_formula_structural       Ga6P8H26C18N2O24F2
_chemical_formula_sum              "Ga6 P8 H26 C18 N2 O24 F2"
_cell_length_a       8.34424
_cell_length_b       11.7624
_cell_length_c       11.753
_cell_angle_alpha    71.6821
_cell_angle_beta     70.636
_cell_angle_gamma    77.1734

_space_group_name_H-M_alt    "P 1"
_space_group_IT_number       1

loop_
  _space_group_symop_operation_xyz
  'x, y, z'

loop_
  _atom_site_type_symbol
  _atom_site_label
  _atom_site_symmetry_multiplicity
  _atom_site_fract_x
  _atom_site_fract_y
  _atom_site_fract_z
  _atom_site_occupancy
  Ga  Ga1       1.0  0.87386  0.52960  0.69527  1.0000
  Ga  Ga2       1.0  0.12614  0.47040  0.30473  1.0000
  Ga  Ga3       1.0  0.65687  0.83907  0.48920  1.0000
  Ga  Ga4       1.0  0.34313  0.16093  0.51080  1.0000
  Ga  Ga5       1.0  0.54548  0.71441  0.87932  1.0000
  Ga  Ga6       1.0  0.45452  0.28560  0.12068  1.0000
  P   P1        1.0  0.75750  0.45686  0.98905  1.0000
  P   P2        1.0  0.24250  0.54314  0.01095  1.0000
  P   P3        1.0  0.74940  0.56467  0.45809  1.0000
  P   P4        1.0  0.25060  0.43533  0.54191  1.0000
  P   P5        1.0  0.88062  0.79601  0.67447  1.0000
  P   P6        1.0  0.11938  0.20399  0.32553  1.0000
  P   P7        1.0  0.33460  0.91079  0.68975  1.0000
  P   P8        1.0  0.66540  0.08921  0.31025  1.0000
  H   H1        1.0  0.21155  0.81255  0.03576  1.0000
  H   H2        1.0  0.78845  0.18745  0.96424  1.0000
  H   H3        1.0  0.71906  0.78425  0.02317  1.0000
  H   H4        1.0  0.28094  0.21575  0.97683  1.0000
  H   H5        1.0  0.33365  0.94848  0.29516  1.0000
  H   H6        1.0  0.66635  0.05152  0.70484  1.0000
  H   H7        1.0  0.64164  0.88272  0.19969  1.0000
  H   H8        1.0  0.35836  0.11728  0.80031  1.0000
  H   H9        1.0  0.11046  0.90949  0.21345  1.0000
  H   H10       1.0  0.88955  0.09051  0.78655  1.0000
  H   H11       1.0  0.06227  0.86330  0.83267  1.0000
  H   H12       1.0  0.93773  0.13670  0.16733  1.0000
  H   H13       1.0  0.18186  0.74542  0.76391  1.0000
  H   H14       1.0  0.81815  0.25458  0.23609  1.0000
  H   H15       1.0  0.13185  0.88274  0.55252  1.0000
  H   H16       1.0  0.86815  0.11726  0.44748  1.0000
  H   H17       1.0  0.98433  0.98045  0.63698  1.0000
  H   H18       1.0  0.01567  0.01955  0.36302  1.0000
  H   H19       1.0  0.56480  0.53810  0.35523  1.0000
  H   H20       1.0  0.43520  0.46190  0.64477  1.0000
  H   H21       1.0  0.63596  0.39953  0.45105  1.0000
  H   H22       1.0  0.36404  0.60047  0.54895  1.0000
  H   H23       1.0  0.88951  0.46267  0.13718  1.0000
  H   H24       1.0  0.11049  0.53732  0.86282  1.0000
  H   H25       1.0  0.01351  0.36096  0.04757  1.0000
  H   H26       1.0  0.98649  0.63904  0.95243  1.0000
  C   C1        1.0  0.30113  0.83098  0.07514  1.0000
  C   C2        1.0  0.69888  0.16902  0.92486  1.0000
  C   C3        1.0  0.58678  0.81450  0.06868  1.0000
  C   C4        1.0  0.41322  0.18550  0.93132  1.0000
  C   C5        1.0  0.36999  0.90452  0.21962  1.0000
  C   C6        1.0  0.63001  0.09548  0.78037  1.0000
  C   C7        1.0  0.54274  0.86853  0.16613  1.0000
  C   C8        1.0  0.45726  0.13147  0.83387  1.0000
  C   C9        1.0  0.24713  0.88466  0.17383  1.0000
  C   C10       1.0  0.75287  0.11534  0.82617  1.0000
  C   C11       1.0  0.14095  0.84322  0.74390  1.0000
  C   C12       1.0  0.85905  0.15678  0.25610  1.0000
  C   C13       1.0  0.04424  0.88631  0.64508  1.0000
  C   C14       1.0  0.95576  0.11369  0.35492  1.0000
  C   C15       1.0  0.58424  0.49461  0.44819  1.0000
  C   C16       1.0  0.41576  0.50539  0.55181  1.0000
  C   C17       1.0  0.94157  0.45206  0.04137  1.0000
  C   C18       1.0  0.05843  0.54794  0.95863  1.0000
  N   N1        1.0  0.46782  0.79694  0.02381  1.0000
  N   N2        1.0  0.53219  0.20306  0.97619  1.0000
  O   O1        1.0  0.43942  0.86725  0.78209  1.0000
  O   O2        1.0  0.56058  0.13275  0.21791  1.0000
  O   O3        1.0  0.65051  0.58059  0.98989  1.0000
  O   O4        1.0  0.34949  0.41941  0.01011  1.0000
  O   O5        1.0  0.79264  0.49370  0.58171  1.0000
  O   O6        1.0  0.20736  0.50630  0.41829  1.0000
  O   O7        1.0  0.82262  0.43288  0.85740  1.0000
  O   O8        1.0  0.17738  0.56712  0.14260  1.0000
  O   O9        1.0  0.66683  0.35021  0.08198  1.0000
  O   O10       1.0  0.33317  0.64979  0.91802  1.0000
  O   O11       1.0  0.76215  0.79076  0.80645  1.0000
  O   O12       1.0  0.23785  0.20924  0.19355  1.0000
  O   O13       1.0  0.97496  0.67124  0.65433  1.0000
  O   O14       1.0  0.02504  0.32876  0.34567  1.0000
  O   O15       1.0  0.66667  0.69660  0.45654  1.0000
  O   O16       1.0  0.33333  0.30340  0.54346  1.0000
  O   O17       1.0  0.90356  0.56543  0.34279  1.0000
  O   O18       1.0  0.09644  0.43456  0.65721  1.0000
  O   O19       1.0  0.28209  0.05046  0.66637  1.0000
  O   O20       1.0  0.71791  0.94954  0.33363  1.0000
  O   O21       1.0  0.79454  0.86560  0.56855  1.0000
  O   O22       1.0  0.20546  0.13440  0.43145  1.0000
  O   O23       1.0  0.42734  0.88004  0.56187  1.0000
  O   O24       1.0  0.57266  0.11996  0.43813  1.0000
  F   F1        1.0  0.63979  0.63908  0.73573  1.0000
  F   F2        1.0  0.36021  0.36092  0.26427  1.0000
