data_image0
_chemical_formula_structural       Fe2H28C48Br4N20
_chemical_formula_sum              "Fe2 H28 C48 Br4 N20"
_cell_length_a       8.39784
_cell_length_b       10.1773
_cell_length_c       14.6903
_cell_angle_alpha    91.194
_cell_angle_beta     90.5208
_cell_angle_gamma    103.27

_space_group_name_H-M_alt    "P 1"
_space_group_IT_number       1

loop_
  _space_group_symop_operation_xyz
  'x, y, z'

loop_
  _atom_site_type_symbol
  _atom_site_label
  _atom_site_symmetry_multiplicity
  _atom_site_fract_x
  _atom_site_fract_y
  _atom_site_fract_z
  _atom_site_occupancy
  Fe  Fe1       1.0  0.50000  0.50000  0.50000  1.0000
  Fe  Fe2       1.0  0.00000  0.99999  0.00001  1.0000
  H   H1        1.0  0.40667  0.24820  0.61699  1.0000
  H   H2        1.0  0.59332  0.75180  0.38302  1.0000
  H   H3        1.0  0.89182  0.09026  0.55263  1.0000
  H   H4        1.0  0.10818  0.90974  0.44738  1.0000
  H   H5        1.0  0.91015  0.28241  0.44539  1.0000
  H   H6        1.0  0.08984  0.71759  0.55461  1.0000
  H   H7        1.0  0.38614  0.85897  0.24695  1.0000
  H   H8        1.0  0.61387  0.14104  0.75304  1.0000
  H   H9        1.0  0.30215  0.98500  0.12312  1.0000
  H   H10       1.0  0.69785  0.01500  0.87688  1.0000
  H   H11       1.0  0.82847  0.74453  0.11893  1.0000
  H   H12       1.0  0.17153  0.25548  0.88106  1.0000
  H   H13       1.0  0.89632  0.60466  0.24272  1.0000
  H   H14       1.0  0.10368  0.39534  0.75728  1.0000
  H   H15       1.0  0.11146  0.25827  0.12111  1.0000
  H   H16       1.0  0.88855  0.74173  0.87889  1.0000
  H   H17       1.0  0.62085  0.41192  0.05154  1.0000
  H   H18       1.0  0.37914  0.58808  0.94846  1.0000
  H   H19       1.0  0.59391  0.21243  0.94404  1.0000
  H   H20       1.0  0.40609  0.78756  0.05596  1.0000
  H   H21       1.0  0.11116  0.63629  0.72913  1.0000
  H   H22       1.0  0.88884  0.36371  0.27087  1.0000
  H   H23       1.0  0.19439  0.50960  0.60671  1.0000
  H   H24       1.0  0.80561  0.49041  0.39329  1.0000
  H   H25       1.0  0.67424  0.74046  0.62128  1.0000
  H   H26       1.0  0.32576  0.25953  0.37872  1.0000
  H   H27       1.0  0.60482  0.88186  0.74389  1.0000
  H   H28       1.0  0.39518  0.11814  0.25611  1.0000
  C   C1        1.0  0.29395  0.25222  0.58050  1.0000
  C   C2        1.0  0.70605  0.74778  0.41950  1.0000
  C   C3        1.0  0.14768  0.15645  0.59187  1.0000
  C   C4        1.0  0.85232  0.84355  0.40813  1.0000
  C   C5        1.0  0.00631  0.16448  0.54378  1.0000
  C   C6        1.0  0.99369  0.83552  0.45622  1.0000
  C   C7        1.0  0.01629  0.27086  0.48470  1.0000
  C   C8        1.0  0.98370  0.72914  0.51530  1.0000
  C   C9        1.0  0.16450  0.36506  0.47601  1.0000
  C   C10       1.0  0.83550  0.63494  0.52399  1.0000
  C   C11       1.0  0.19246  0.48098  0.41880  1.0000
  C   C12       1.0  0.80755  0.51902  0.58120  1.0000
  C   C13       1.0  0.19467  0.63767  0.32803  1.0000
  C   C14       1.0  0.80533  0.36233  0.67197  1.0000
  C   C15       1.0  0.14756  0.71979  0.25734  1.0000
  C   C16       1.0  0.85245  0.28022  0.74266  1.0000
  C   C17       1.0  0.26021  0.83013  0.22188  1.0000
  C   C18       1.0  0.73979  0.16988  0.77812  1.0000
  C   C19       1.0  0.21258  0.90197  0.15146  1.0000
  C   C20       1.0  0.78742  0.09803  0.84854  1.0000
  C   C21       1.0  0.95109  0.76704  0.14876  1.0000
  C   C22       1.0  0.04891  0.23296  0.85124  1.0000
  C   C23       1.0  0.98925  0.68924  0.21859  1.0000
  C   C24       1.0  0.01075  0.31077  0.78141  1.0000
  C   C25       1.0  0.22144  0.25187  0.08362  1.0000
  C   C26       1.0  0.77856  0.74813  0.91638  1.0000
  C   C27       1.0  0.36866  0.34839  0.09370  1.0000
  C   C28       1.0  0.63134  0.65161  0.90630  1.0000
  C   C29       1.0  0.50579  0.33691  0.04384  1.0000
  C   C30       1.0  0.49421  0.66309  0.95615  1.0000
  C   C31       1.0  0.49117  0.22644  0.98467  1.0000
  C   C32       1.0  0.50883  0.77355  0.01533  1.0000
  C   C33       1.0  0.34226  0.13166  0.97709  1.0000
  C   C34       1.0  0.65773  0.86833  0.02292  1.0000
  C   C35       1.0  0.31008  0.01325  0.91806  1.0000
  C   C36       1.0  0.68992  0.98674  0.08194  1.0000
  C   C37       1.0  0.30330  0.85543  0.82272  1.0000
  C   C38       1.0  0.69670  0.14457  0.17729  1.0000
  C   C39       1.0  0.35065  0.77259  0.75049  1.0000
  C   C40       1.0  0.64935  0.22741  0.24951  1.0000
  C   C41       1.0  0.23868  0.66394  0.70881  1.0000
  C   C42       1.0  0.76132  0.33606  0.29118  1.0000
  C   C43       1.0  0.28694  0.59052  0.63787  1.0000
  C   C44       1.0  0.71306  0.40949  0.36212  1.0000
  C   C45       1.0  0.54957  0.71928  0.64570  1.0000
  C   C46       1.0  0.45043  0.28072  0.35430  1.0000
  C   C47       1.0  0.51016  0.79898  0.71590  1.0000
  C   C48       1.0  0.48984  0.20102  0.28410  1.0000
  Br  Br1       1.0  0.14299  0.01603  0.67495  1.0000
  Br  Br2       1.0  0.85700  0.98397  0.32505  1.0000
  Br  Br3       1.0  0.38071  0.49472  0.17704  1.0000
  Br  Br4       1.0  0.61930  0.50528  0.82296  1.0000
  N   N1        1.0  0.30332  0.35574  0.52351  1.0000
  N   N2        1.0  0.69668  0.64426  0.47649  1.0000
  N   N3        1.0  0.34688  0.56063  0.42113  1.0000
  N   N4        1.0  0.65313  0.43937  0.57887  1.0000
  N   N5        1.0  0.34957  0.66169  0.36331  1.0000
  N   N6        1.0  0.65043  0.33831  0.63669  1.0000
  N   N7        1.0  0.09310  0.52609  0.36129  1.0000
  N   N8        1.0  0.90691  0.47391  0.63870  1.0000
  N   N9        1.0  0.06054  0.87222  0.11463  1.0000
  N   N10       1.0  0.93946  0.12778  0.88537  1.0000
  N   N11       1.0  0.20774  0.14486  0.02600  1.0000
  N   N12       1.0  0.79227  0.85514  0.97400  1.0000
  N   N13       1.0  0.15468  0.93414  0.91830  1.0000
  N   N14       1.0  0.84532  0.06585  0.08171  1.0000
  N   N15       1.0  0.14908  0.83250  0.85729  1.0000
  N   N16       1.0  0.85091  0.16749  0.14271  1.0000
  N   N17       1.0  0.40674  0.96714  0.85927  1.0000
  N   N18       1.0  0.59326  0.03286  0.14073  1.0000
  N   N19       1.0  0.44095  0.61458  0.60468  1.0000
  N   N20       1.0  0.55905  0.38542  0.39532  1.0000
