data_image0
_chemical_formula_structural       Cd4Ni4H44C40N28
_chemical_formula_sum              "Cd4 Ni4 H44 C40 N28"
_cell_length_a       7.74403
_cell_length_b       12.3261
_cell_length_c       13.7768
_cell_angle_alpha    90
_cell_angle_beta     90
_cell_angle_gamma    90

_space_group_name_H-M_alt    "P 1"
_space_group_IT_number       1

loop_
  _space_group_symop_operation_xyz
  'x, y, z'

loop_
  _atom_site_type_symbol
  _atom_site_label
  _atom_site_symmetry_multiplicity
  _atom_site_fract_x
  _atom_site_fract_y
  _atom_site_fract_z
  _atom_site_occupancy
  Cd  Cd1       1.0  0.75000  0.47750  0.64197  1.0000
  Cd  Cd2       1.0  0.25000  0.02250  0.14197  1.0000
  Cd  Cd3       1.0  0.75000  0.97750  0.85803  1.0000
  Cd  Cd4       1.0  0.25000  0.52250  0.35803  1.0000
  Ni  Ni1       1.0  0.75000  0.76044  0.25603  1.0000
  Ni  Ni2       1.0  0.25000  0.73956  0.75602  1.0000
  Ni  Ni3       1.0  0.75000  0.26044  0.24397  1.0000
  Ni  Ni4       1.0  0.25000  0.23956  0.74398  1.0000
  H   H1        1.0  0.85586  0.57053  0.16592  1.0000
  H   H2        1.0  0.14413  0.92948  0.66592  1.0000
  H   H3        1.0  0.64414  0.07053  0.33408  1.0000
  H   H4        1.0  0.35587  0.42947  0.83408  1.0000
  H   H5        1.0  0.14414  0.42947  0.83408  1.0000
  H   H6        1.0  0.85586  0.07053  0.33408  1.0000
  H   H7        1.0  0.35587  0.92948  0.66592  1.0000
  H   H8        1.0  0.64414  0.57053  0.16592  1.0000
  H   H9        1.0  0.75000  0.43491  0.44083  1.0000
  H   H10       1.0  0.25000  0.06509  0.94083  1.0000
  H   H11       1.0  0.75000  0.93491  0.05917  1.0000
  H   H12       1.0  0.25000  0.56509  0.55917  1.0000
  H   H13       1.0  0.85566  0.54899  0.45413  1.0000
  H   H14       1.0  0.14434  0.95101  0.95413  1.0000
  H   H15       1.0  0.64434  0.04899  0.04587  1.0000
  H   H16       1.0  0.35566  0.45101  0.54587  1.0000
  H   H17       1.0  0.14434  0.45101  0.54587  1.0000
  H   H18       1.0  0.85566  0.04899  0.04587  1.0000
  H   H19       1.0  0.35566  0.95101  0.95413  1.0000
  H   H20       1.0  0.64434  0.54899  0.45413  1.0000
  H   H21       1.0  0.75000  0.62297  0.84102  1.0000
  H   H22       1.0  0.25000  0.87703  0.34102  1.0000
  H   H23       1.0  0.75000  0.12297  0.65898  1.0000
  H   H24       1.0  0.25000  0.37703  0.15898  1.0000
  H   H25       1.0  0.75000  0.41361  0.09317  1.0000
  H   H26       1.0  0.25000  0.08639  0.59317  1.0000
  H   H27       1.0  0.75000  0.91361  0.40683  1.0000
  H   H28       1.0  0.25000  0.58639  0.90683  1.0000
  H   H29       1.0  0.75000  0.25610  0.98062  1.0000
  H   H30       1.0  0.25000  0.24390  0.48062  1.0000
  H   H31       1.0  0.75000  0.75610  0.51938  1.0000
  H   H32       1.0  0.25000  0.74390  0.01938  1.0000
  H   H33       1.0  0.75000  0.28905  0.80163  1.0000
  H   H34       1.0  0.25000  0.21094  0.30162  1.0000
  H   H35       1.0  0.75000  0.78906  0.69837  1.0000
  H   H36       1.0  0.25000  0.71095  0.19838  1.0000
  H   H37       1.0  0.86311  0.68402  0.02231  1.0000
  H   H38       1.0  0.13690  0.81598  0.52232  1.0000
  H   H39       1.0  0.63690  0.18402  0.47769  1.0000
  H   H40       1.0  0.36311  0.31598  0.97769  1.0000
  H   H41       1.0  0.13690  0.31598  0.97769  1.0000
  H   H42       1.0  0.86311  0.18402  0.47769  1.0000
  H   H43       1.0  0.36311  0.81598  0.52232  1.0000
  H   H44       1.0  0.63690  0.68402  0.02231  1.0000
  C   C1        1.0  0.91919  0.84289  0.20007  1.0000
  C   C2        1.0  0.08081  0.65711  0.70007  1.0000
  C   C3        1.0  0.58080  0.34289  0.29992  1.0000
  C   C4        1.0  0.41920  0.15711  0.79993  1.0000
  C   C5        1.0  0.08081  0.15711  0.79993  1.0000
  C   C6        1.0  0.91919  0.34289  0.29993  1.0000
  C   C7        1.0  0.41920  0.65711  0.70007  1.0000
  C   C8        1.0  0.58081  0.84289  0.20008  1.0000
  C   C9        1.0  0.57854  0.70021  0.33013  1.0000
  C   C10       1.0  0.42146  0.79979  0.83013  1.0000
  C   C11       1.0  0.92146  0.20021  0.16987  1.0000
  C   C12       1.0  0.07854  0.29979  0.66987  1.0000
  C   C13       1.0  0.42147  0.29979  0.66987  1.0000
  C   C14       1.0  0.57854  0.20021  0.16987  1.0000
  C   C15       1.0  0.07854  0.79979  0.83013  1.0000
  C   C16       1.0  0.92146  0.70021  0.33013  1.0000
  C   C17       1.0  0.75000  0.54304  0.87524  1.0000
  C   C18       1.0  0.25000  0.95696  0.37524  1.0000
  C   C19       1.0  0.75000  0.04304  0.62476  1.0000
  C   C20       1.0  0.25000  0.45696  0.12476  1.0000
  C   C21       1.0  0.75000  0.53299  0.97671  1.0000
  C   C22       1.0  0.25000  0.96701  0.47671  1.0000
  C   C23       1.0  0.75000  0.03299  0.52329  1.0000
  C   C24       1.0  0.25000  0.46701  0.02329  1.0000
  C   C25       1.0  0.75000  0.42775  0.01480  1.0000
  C   C26       1.0  0.25000  0.07225  0.51481  1.0000
  C   C27       1.0  0.75000  0.92775  0.48519  1.0000
  C   C28       1.0  0.25000  0.57225  0.98519  1.0000
  C   C29       1.0  0.75000  0.33858  0.95243  1.0000
  C   C30       1.0  0.25000  0.16142  0.45243  1.0000
  C   C31       1.0  0.75000  0.83858  0.54757  1.0000
  C   C32       1.0  0.25000  0.66142  0.04757  1.0000
  C   C33       1.0  0.75000  0.35638  0.85278  1.0000
  C   C34       1.0  0.25000  0.14362  0.35278  1.0000
  C   C35       1.0  0.75000  0.85638  0.64722  1.0000
  C   C36       1.0  0.25000  0.64362  0.14722  1.0000
  C   C37       1.0  0.75000  0.63377  0.04034  1.0000
  C   C38       1.0  0.25000  0.86624  0.54034  1.0000
  C   C39       1.0  0.75000  0.13377  0.45966  1.0000
  C   C40       1.0  0.25000  0.36623  0.95966  1.0000
  N   N1        1.0  0.46492  0.65970  0.37371  1.0000
  N   N2        1.0  0.53508  0.84030  0.87371  1.0000
  N   N3        1.0  0.03507  0.15970  0.12629  1.0000
  N   N4        1.0  0.96493  0.34030  0.62629  1.0000
  N   N5        1.0  0.53507  0.34029  0.62629  1.0000
  N   N6        1.0  0.46493  0.15970  0.12629  1.0000
  N   N7        1.0  0.96493  0.84029  0.87371  1.0000
  N   N8        1.0  0.03507  0.65970  0.37371  1.0000
  N   N9        1.0  0.03064  0.89472  0.16578  1.0000
  N   N10       1.0  0.96935  0.60528  0.66577  1.0000
  N   N11       1.0  0.46936  0.39472  0.33422  1.0000
  N   N12       1.0  0.53064  0.10528  0.83422  1.0000
  N   N13       1.0  0.96935  0.10529  0.83423  1.0000
  N   N14       1.0  0.03064  0.39471  0.33422  1.0000
  N   N15       1.0  0.53064  0.60529  0.66577  1.0000
  N   N16       1.0  0.46936  0.89472  0.16578  1.0000
  N   N17       1.0  0.75000  0.45716  0.81495  1.0000
  N   N18       1.0  0.25000  0.04284  0.31495  1.0000
  N   N19       1.0  0.75000  0.95716  0.68505  1.0000
  N   N20       1.0  0.25000  0.54284  0.18505  1.0000
  N   N21       1.0  0.75000  0.61429  0.14524  1.0000
  N   N22       1.0  0.25000  0.88571  0.64524  1.0000
  N   N23       1.0  0.75000  0.11429  0.35476  1.0000
  N   N24       1.0  0.25000  0.38571  0.85476  1.0000
  N   N25       1.0  0.75000  0.50663  0.47772  1.0000
  N   N26       1.0  0.25000  0.99337  0.97772  1.0000
  N   N27       1.0  0.75000  0.00663  0.02228  1.0000
  N   N28       1.0  0.25000  0.49337  0.52228  1.0000
