data_image0
_chemical_formula_structural       Ag2H20C18N6O6
_chemical_formula_sum              "Ag2 H20 C18 N6 O6"
_cell_length_a       7.94722
_cell_length_b       7.99501
_cell_length_c       10.2439
_cell_angle_alpha    97.6126
_cell_angle_beta     94.6262
_cell_angle_gamma    108.494

_space_group_name_H-M_alt    "P 1"
_space_group_IT_number       1

loop_
  _space_group_symop_operation_xyz
  'x, y, z'

loop_
  _atom_site_type_symbol
  _atom_site_label
  _atom_site_symmetry_multiplicity
  _atom_site_fract_x
  _atom_site_fract_y
  _atom_site_fract_z
  _atom_site_occupancy
  Ag  Ag1       1.0  0.15580  0.39777  0.81837  1.0000
  Ag  Ag2       1.0  0.84420  0.60222  0.18164  1.0000
  H   H1        1.0  0.78273  0.24417  0.89860  1.0000
  H   H2        1.0  0.21726  0.75582  0.10140  1.0000
  H   H3        1.0  0.40202  0.41014  0.67081  1.0000
  H   H4        1.0  0.59798  0.58986  0.32918  1.0000
  H   H5        1.0  0.65449  0.58375  0.56102  1.0000
  H   H6        1.0  0.34552  0.41626  0.43898  1.0000
  H   H7        1.0  0.96433  0.57710  0.62569  1.0000
  H   H8        1.0  0.03568  0.42291  0.37432  1.0000
  H   H9        1.0  0.48202  0.10276  0.91050  1.0000
  H   H10       1.0  0.51798  0.89724  0.08950  1.0000
  H   H11       1.0  0.24753  0.99634  0.98146  1.0000
  H   H12       1.0  0.75247  0.00365  0.01854  1.0000
  H   H13       1.0  0.04390  0.88586  0.77107  1.0000
  H   H14       1.0  0.95610  0.11413  0.22893  1.0000
  H   H15       1.0  0.93186  0.04027  0.81365  1.0000
  H   H16       1.0  0.06814  0.95973  0.18635  1.0000
  H   H17       1.0  0.75773  0.74430  0.86323  1.0000
  H   H18       1.0  0.24227  0.25570  0.13677  1.0000
  H   H19       1.0  0.94707  0.73243  0.96092  1.0000
  H   H20       1.0  0.05293  0.26756  0.03908  1.0000
  C   C1        1.0  0.75048  0.31883  0.82425  1.0000
  C   C2        1.0  0.24952  0.68117  0.17574  1.0000
  C   C3        1.0  0.57383  0.31448  0.79532  1.0000
  C   C4        1.0  0.42616  0.68551  0.20467  1.0000
  C   C5        1.0  0.53792  0.41103  0.69836  1.0000
  C   C6        1.0  0.46208  0.58897  0.30163  1.0000
  C   C7        1.0  0.67798  0.50737  0.63661  1.0000
  C   C8        1.0  0.32203  0.49264  0.36339  1.0000
  C   C9        1.0  0.85007  0.50465  0.67170  1.0000
  C   C10       1.0  0.14994  0.49536  0.32830  1.0000
  C   C11       1.0  0.44039  0.20251  0.86536  1.0000
  C   C12       1.0  0.55959  0.79749  0.13464  1.0000
  C   C13       1.0  0.17022  0.07943  0.94837  1.0000
  C   C14       1.0  0.82978  0.92057  0.05163  1.0000
  C   C15       1.0  0.00355  0.95768  0.85538  1.0000
  C   C16       1.0  0.99645  0.04232  0.14462  1.0000
  C   C17       1.0  0.88018  0.82517  0.92933  1.0000
  C   C18       1.0  0.11981  0.17483  0.07067  1.0000
  N   N1        1.0  0.88599  0.41207  0.76484  1.0000
  N   N2        1.0  0.11401  0.58793  0.23517  1.0000
  N   N3        1.0  0.28338  0.21132  0.87709  1.0000
  N   N4        1.0  0.71663  0.78868  0.12291  1.0000
  N   N5        1.0  0.38104  0.74702  0.75133  1.0000
  N   N6        1.0  0.61896  0.25297  0.24867  1.0000
  O   O1        1.0  0.34436  0.72129  0.86897  1.0000
  O   O2        1.0  0.65561  0.27871  0.13103  1.0000
  O   O3        1.0  0.28069  0.63811  0.65204  1.0000
  O   O4        1.0  0.71932  0.36190  0.34796  1.0000
  O   O5        1.0  0.51388  0.87510  0.73666  1.0000
  O   O6        1.0  0.48613  0.12489  0.26335  1.0000
