data_image0
_chemical_formula_structural       Ba2H24C14O10
_chemical_formula_sum              "Ba2 H24 C14 O10"
_cell_length_a       4.94071
_cell_length_b       7.74355
_cell_length_c       13.3758
_cell_angle_alpha    105.532
_cell_angle_beta     98.7285
_cell_angle_gamma    96.5358

_space_group_name_H-M_alt    "P 1"
_space_group_IT_number       1

loop_
  _space_group_symop_operation_xyz
  'x, y, z'

loop_
  _atom_site_type_symbol
  _atom_site_label
  _atom_site_symmetry_multiplicity
  _atom_site_fract_x
  _atom_site_fract_y
  _atom_site_fract_z
  _atom_site_occupancy
  Ba  Ba1       1.0  0.73201  0.73223  0.46438  1.0000
  Ba  Ba2       1.0  0.26799  0.26776  0.53562  1.0000
  H   H1        1.0  0.83444  0.74848  0.19802  1.0000
  H   H2        1.0  0.36314  0.44924  0.19801  1.0000
  H   H3        1.0  0.16556  0.25152  0.80198  1.0000
  H   H4        1.0  0.63686  0.55076  0.80200  1.0000
  H   H5        1.0  0.93088  0.97455  0.20534  1.0000
  H   H6        1.0  0.27310  0.23072  0.20553  1.0000
  H   H7        1.0  0.06912  0.02545  0.79466  1.0000
  H   H8        1.0  0.72691  0.76928  0.79446  1.0000
  H   H9        1.0  0.31068  0.89586  0.10263  1.0000
  H   H10       1.0  0.79121  0.20713  0.10256  1.0000
  H   H11       1.0  0.68933  0.10415  0.89737  1.0000
  H   H12       1.0  0.20879  0.79287  0.89744  1.0000
  H   H13       1.0  0.23118  0.66804  0.09958  1.0000
  H   H14       1.0  0.86820  0.43179  0.09933  1.0000
  H   H15       1.0  0.76882  0.33197  0.90042  1.0000
  H   H16       1.0  0.13180  0.56822  0.90067  1.0000
  H   H17       1.0  0.83118  0.87865  0.99979  1.0000
  H   H18       1.0  0.16882  0.12135  0.00021  1.0000
  H   H19       1.0  0.74609  0.65238  0.99996  1.0000
  H   H20       1.0  0.25391  0.34763  0.00004  1.0000
  H   H21       1.0  0.28842  0.71424  0.63557  1.0000
  H   H22       1.0  0.34736  0.92130  0.63558  1.0000
  H   H23       1.0  0.71158  0.28576  0.36443  1.0000
  H   H24       1.0  0.65264  0.07870  0.36442  1.0000
  C   C1        1.0  0.21453  0.87584  0.30370  1.0000
  C   C2        1.0  0.08831  0.42823  0.30368  1.0000
  C   C3        1.0  0.78547  0.12416  0.69630  1.0000
  C   C4        1.0  0.91169  0.57177  0.69632  1.0000
  C   C5        1.0  0.01566  0.84738  0.20015  1.0000
  C   C6        1.0  0.18368  0.35283  0.20020  1.0000
  C   C7        1.0  0.98434  0.15262  0.79985  1.0000
  C   C8        1.0  0.81632  0.64717  0.79980  1.0000
  C   C9        1.0  0.13780  0.79078  0.10064  1.0000
  C   C10       1.0  0.96235  0.31006  0.10060  1.0000
  C   C11       1.0  0.86220  0.20923  0.89936  1.0000
  C   C12       1.0  0.03765  0.68994  0.89940  1.0000
  C   C13       1.0  0.92121  0.75464  0.99994  1.0000
  C   C14       1.0  0.07879  0.24536  0.00006  1.0000
  O   O1        1.0  0.46536  0.85327  0.30215  1.0000
  O   O2        1.0  0.83597  0.44934  0.30212  1.0000
  O   O3        1.0  0.53464  0.14673  0.69785  1.0000
  O   O4        1.0  0.16403  0.55065  0.69788  1.0000
  O   O5        1.0  0.12214  0.92474  0.38983  1.0000
  O   O6        1.0  0.26689  0.46547  0.38985  1.0000
  O   O7        1.0  0.87786  0.07526  0.61017  1.0000
  O   O8        1.0  0.73311  0.53453  0.61014  1.0000
  O   O9        1.0  0.29459  0.79462  0.58906  1.0000
  O   O10       1.0  0.70540  0.20538  0.41094  1.0000
