data_image0
_chemical_formula_structural       Ba4H56C20O32
_chemical_formula_sum              "Ba4 H56 C20 O32"
_cell_length_a       7.65926
_cell_length_b       12.4232
_cell_length_c       13.293
_cell_angle_alpha    90
_cell_angle_beta     90
_cell_angle_gamma    90

_space_group_name_H-M_alt    "P 1"
_space_group_IT_number       1

loop_
  _space_group_symop_operation_xyz
  'x, y, z'

loop_
  _atom_site_type_symbol
  _atom_site_label
  _atom_site_symmetry_multiplicity
  _atom_site_fract_x
  _atom_site_fract_y
  _atom_site_fract_z
  _atom_site_occupancy
  Ba  Ba1       1.0  0.75000  0.63769  0.96205  1.0000
  Ba  Ba2       1.0  0.25000  0.86231  0.46205  1.0000
  Ba  Ba3       1.0  0.75000  0.13770  0.53795  1.0000
  Ba  Ba4       1.0  0.25000  0.36231  0.03795  1.0000
  H   H1        1.0  0.86613  0.15563  0.92645  1.0000
  H   H2        1.0  0.13387  0.34437  0.42644  1.0000
  H   H3        1.0  0.63386  0.65564  0.57356  1.0000
  H   H4        1.0  0.36615  0.84437  0.07355  1.0000
  H   H5        1.0  0.13387  0.84437  0.07356  1.0000
  H   H6        1.0  0.86613  0.65564  0.57356  1.0000
  H   H7        1.0  0.36614  0.34438  0.42645  1.0000
  H   H8        1.0  0.63386  0.15563  0.92645  1.0000
  H   H9        1.0  0.63601  0.02762  0.07376  1.0000
  H   H10       1.0  0.36398  0.47238  0.57377  1.0000
  H   H11       1.0  0.86398  0.52763  0.42624  1.0000
  H   H12       1.0  0.13601  0.97237  0.92624  1.0000
  H   H13       1.0  0.36398  0.97237  0.92624  1.0000
  H   H14       1.0  0.63601  0.52763  0.42624  1.0000
  H   H15       1.0  0.13600  0.47237  0.57377  1.0000
  H   H16       1.0  0.86398  0.02762  0.07376  1.0000
  H   H17       1.0  0.86587  0.23346  0.10136  1.0000
  H   H18       1.0  0.13413  0.26653  0.60136  1.0000
  H   H19       1.0  0.63413  0.73347  0.39864  1.0000
  H   H20       1.0  0.36587  0.76653  0.89864  1.0000
  H   H21       1.0  0.13413  0.76653  0.89865  1.0000
  H   H22       1.0  0.86586  0.73347  0.39864  1.0000
  H   H23       1.0  0.36587  0.26653  0.60136  1.0000
  H   H24       1.0  0.63413  0.23346  0.10136  1.0000
  H   H25       1.0  0.88916  0.50061  0.74652  1.0000
  H   H26       1.0  0.11084  0.99939  0.24652  1.0000
  H   H27       1.0  0.61084  0.00060  0.75348  1.0000
  H   H28       1.0  0.38916  0.49939  0.25348  1.0000
  H   H29       1.0  0.11084  0.49939  0.25348  1.0000
  H   H30       1.0  0.88916  0.00061  0.75348  1.0000
  H   H31       1.0  0.38916  0.99940  0.24652  1.0000
  H   H32       1.0  0.61084  0.50060  0.74653  1.0000
  H   H33       1.0  0.64745  0.54799  0.18548  1.0000
  H   H34       1.0  0.35256  0.95201  0.68548  1.0000
  H   H35       1.0  0.85256  0.04799  0.31452  1.0000
  H   H36       1.0  0.14744  0.45200  0.81452  1.0000
  H   H37       1.0  0.35255  0.45200  0.81452  1.0000
  H   H38       1.0  0.64744  0.04800  0.31452  1.0000
  H   H39       1.0  0.14745  0.95201  0.68548  1.0000
  H   H40       1.0  0.85256  0.54799  0.18548  1.0000
  H   H41       1.0  0.91327  0.45658  0.85912  1.0000
  H   H42       1.0  0.08673  0.04342  0.35911  1.0000
  H   H43       1.0  0.58673  0.95659  0.64088  1.0000
  H   H44       1.0  0.41327  0.54342  0.14089  1.0000
  H   H45       1.0  0.08673  0.54342  0.14089  1.0000
  H   H46       1.0  0.91327  0.95658  0.64088  1.0000
  H   H47       1.0  0.41327  0.04342  0.35911  1.0000
  H   H48       1.0  0.58673  0.45657  0.85912  1.0000
  H   H49       1.0  0.74999  0.83331  0.80474  1.0000
  H   H50       1.0  0.25000  0.66668  0.30475  1.0000
  H   H51       1.0  0.75000  0.33332  0.69526  1.0000
  H   H52       1.0  0.25000  0.16668  0.19525  1.0000
  H   H53       1.0  0.75003  0.74680  0.71503  1.0000
  H   H54       1.0  0.25003  0.75319  0.21503  1.0000
  H   H55       1.0  0.75002  0.24681  0.78497  1.0000
  H   H56       1.0  0.25002  0.25319  0.28496  1.0000
  C   C1        1.0  0.75000  0.14765  0.97479  1.0000
  C   C2        1.0  0.25000  0.35235  0.47479  1.0000
  C   C3        1.0  0.75000  0.64766  0.52522  1.0000
  C   C4        1.0  0.25001  0.85234  0.02522  1.0000
  C   C5        1.0  0.75000  0.34511  0.99642  1.0000
  C   C6        1.0  0.25000  0.15489  0.49640  1.0000
  C   C7        1.0  0.75001  0.84512  0.50358  1.0000
  C   C8        1.0  0.25000  0.65488  0.00359  1.0000
  C   C9        1.0  0.75000  0.03702  0.02392  1.0000
  C   C10       1.0  0.25000  0.46297  0.52392  1.0000
  C   C11       1.0  0.75000  0.53703  0.47609  1.0000
  C   C12       1.0  0.25000  0.96297  0.97608  1.0000
  C   C13       1.0  0.75000  0.94104  0.95247  1.0000
  C   C14       1.0  0.25000  0.55896  0.45247  1.0000
  C   C15       1.0  0.75000  0.44104  0.54753  1.0000
  C   C16       1.0  0.25000  0.05896  0.04752  1.0000
  C   C17       1.0  0.75000  0.23941  0.05289  1.0000
  C   C18       1.0  0.25000  0.26059  0.55289  1.0000
  C   C19       1.0  0.75000  0.73942  0.44711  1.0000
  C   C20       1.0  0.25000  0.76059  0.94711  1.0000
  O   O1        1.0  0.75000  0.84866  0.99196  1.0000
  O   O2        1.0  0.25000  0.65133  0.49197  1.0000
  O   O3        1.0  0.74999  0.34867  0.50804  1.0000
  O   O4        1.0  0.24999  0.15133  0.00804  1.0000
  O   O5        1.0  0.60331  0.38602  0.97052  1.0000
  O   O6        1.0  0.39668  0.11398  0.47050  1.0000
  O   O7        1.0  0.89669  0.88603  0.52948  1.0000
  O   O8        1.0  0.10332  0.61397  0.02948  1.0000
  O   O9        1.0  0.39668  0.61398  0.02949  1.0000
  O   O10       1.0  0.60333  0.88604  0.52947  1.0000
  O   O11       1.0  0.10333  0.11398  0.47050  1.0000
  O   O12       1.0  0.89667  0.38602  0.97052  1.0000
  O   O13       1.0  0.75000  0.95742  0.85650  1.0000
  O   O14       1.0  0.25000  0.54259  0.35650  1.0000
  O   O15       1.0  0.75000  0.45742  0.64350  1.0000
  O   O16       1.0  0.25000  0.04258  0.14350  1.0000
  O   O17       1.0  0.75000  0.59132  0.16457  1.0000
  O   O18       1.0  0.25000  0.90868  0.66456  1.0000
  O   O19       1.0  0.75000  0.09133  0.33543  1.0000
  O   O20       1.0  0.25000  0.40867  0.83544  1.0000
  O   O21       1.0  0.94697  0.51523  0.81149  1.0000
  O   O22       1.0  0.05302  0.98477  0.31149  1.0000
  O   O23       1.0  0.55303  0.01523  0.68851  1.0000
  O   O24       1.0  0.44697  0.48477  0.18851  1.0000
  O   O25       1.0  0.05303  0.48477  0.18851  1.0000
  O   O26       1.0  0.94697  0.01523  0.68851  1.0000
  O   O27       1.0  0.44697  0.98477  0.31149  1.0000
  O   O28       1.0  0.55302  0.51522  0.81150  1.0000
  O   O29       1.0  0.74998  0.75465  0.78760  1.0000
  O   O30       1.0  0.25000  0.74535  0.28760  1.0000
  O   O31       1.0  0.74999  0.25465  0.71240  1.0000
  O   O32       1.0  0.25000  0.24535  0.21240  1.0000
