data_image0
_chemical_formula_structural       Ag2H34C32S2N4O6
_chemical_formula_sum              "Ag2 H34 C32 S2 N4 O6"
_cell_length_a       7.52067
_cell_length_b       9.01182
_cell_length_c       13.8039
_cell_angle_alpha    90.5234
_cell_angle_beta     81.5422
_cell_angle_gamma    87.4252

_space_group_name_H-M_alt    "P 1"
_space_group_IT_number       1

loop_
  _space_group_symop_operation_xyz
  'x, y, z'

loop_
  _atom_site_type_symbol
  _atom_site_label
  _atom_site_symmetry_multiplicity
  _atom_site_fract_x
  _atom_site_fract_y
  _atom_site_fract_z
  _atom_site_occupancy
  Ag  Ag1       1.0  0.23232  0.37147  0.98828  1.0000
  Ag  Ag2       1.0  0.76767  0.62852  0.01172  1.0000
  H   H1        1.0  0.55225  0.35049  0.01828  1.0000
  H   H2        1.0  0.44775  0.64951  0.98172  1.0000
  H   H3        1.0  0.48137  0.17848  0.31114  1.0000
  H   H4        1.0  0.51862  0.82152  0.68887  1.0000
  H   H5        1.0  0.67238  0.38250  0.35763  1.0000
  H   H6        1.0  0.32761  0.61749  0.64237  1.0000
  H   H7        1.0  0.77169  0.57379  0.23284  1.0000
  H   H8        1.0  0.22831  0.42620  0.76716  1.0000
  H   H9        1.0  0.35586  0.04417  0.17690  1.0000
  H   H10       1.0  0.64412  0.95584  0.82310  1.0000
  H   H11       1.0  0.15064  0.96493  0.10570  1.0000
  H   H12       1.0  0.84935  0.03507  0.89429  1.0000
  H   H13       1.0  0.32642  0.95743  0.94112  1.0000
  H   H14       1.0  0.67357  0.04257  0.05888  1.0000
  H   H15       1.0  0.18032  0.09552  0.89971  1.0000
  H   H16       1.0  0.81968  0.90449  0.10028  1.0000
  H   H17       1.0  0.92291  0.21674  0.02950  1.0000
  H   H18       1.0  0.07709  0.78327  0.97050  1.0000
  H   H19       1.0  0.90214  0.15230  0.15174  1.0000
  H   H20       1.0  0.09786  0.84770  0.84826  1.0000
  H   H21       1.0  0.32127  0.72519  0.33861  1.0000
  H   H22       1.0  0.67874  0.27481  0.66140  1.0000
  H   H23       1.0  0.34950  0.58110  0.48857  1.0000
  H   H24       1.0  0.65051  0.41890  0.51144  1.0000
  H   H25       1.0  0.06140  0.22834  0.38037  1.0000
  H   H26       1.0  0.93861  0.77166  0.61963  1.0000
  H   H27       1.0  0.03695  0.37236  0.22924  1.0000
  H   H28       1.0  0.96306  0.62764  0.77076  1.0000
  H   H29       1.0  0.36275  0.27898  0.54361  1.0000
  H   H30       1.0  0.63726  0.72102  0.45639  1.0000
  H   H31       1.0  0.14765  0.20650  0.54019  1.0000
  H   H32       1.0  0.85236  0.79350  0.45981  1.0000
  H   H33       1.0  0.16617  0.37440  0.60364  1.0000
  H   H34       1.0  0.83384  0.62560  0.39636  1.0000
  C   C1        1.0  0.56386  0.36077  0.09609  1.0000
  C   C2        1.0  0.43612  0.63923  0.90391  1.0000
  C   C3        1.0  0.48649  0.25805  0.16347  1.0000
  C   C4        1.0  0.51350  0.74195  0.83653  1.0000
  C   C5        1.0  0.53214  0.26133  0.25825  1.0000
  C   C6        1.0  0.46784  0.73867  0.74175  1.0000
  C   C7        1.0  0.63673  0.37433  0.28428  1.0000
  C   C8        1.0  0.36326  0.62566  0.71572  1.0000
  C   C9        1.0  0.69510  0.47990  0.21520  1.0000
  C   C10       1.0  0.30490  0.52009  0.78480  1.0000
  C   C11       1.0  0.36084  0.15012  0.13767  1.0000
  C   C12       1.0  0.63914  0.84989  0.86233  1.0000
  C   C13       1.0  0.13379  0.05759  0.05605  1.0000
  C   C14       1.0  0.86621  0.94241  0.94395  1.0000
  C   C15       1.0  0.18660  0.00189  0.95017  1.0000
  C   C16       1.0  0.81339  0.99811  0.04982  1.0000
  C   C17       1.0  0.93806  0.11756  0.07442  1.0000
  C   C18       1.0  0.06193  0.88244  0.92557  1.0000
  C   C19       1.0  0.17399  0.55823  0.27590  1.0000
  C   C20       1.0  0.82602  0.44177  0.72410  1.0000
  C   C21       1.0  0.26347  0.61653  0.34868  1.0000
  C   C22       1.0  0.73653  0.38347  0.65132  1.0000
  C   C23       1.0  0.27834  0.53515  0.43251  1.0000
  C   C24       1.0  0.72167  0.46485  0.56749  1.0000
  C   C25       1.0  0.20494  0.39487  0.44629  1.0000
  C   C26       1.0  0.79507  0.60513  0.55371  1.0000
  C   C27       1.0  0.11786  0.33788  0.37201  1.0000
  C   C28       1.0  0.88215  0.66211  0.62799  1.0000
  C   C29       1.0  0.10285  0.41812  0.28721  1.0000
  C   C30       1.0  0.89716  0.58188  0.71279  1.0000
  C   C31       1.0  0.22123  0.30905  0.53765  1.0000
  C   C32       1.0  0.77878  0.69095  0.46235  1.0000
  S   S1        1.0  0.13713  0.67245  0.17468  1.0000
  S   S2        1.0  0.86288  0.32755  0.82532  1.0000
  N   N1        1.0  0.66435  0.46974  0.12175  1.0000
  N   N2        1.0  0.33565  0.53026  0.87825  1.0000
  N   N3        1.0  0.25333  0.17511  0.07461  1.0000
  N   N4        1.0  0.74666  0.82489  0.92537  1.0000
  O   O1        1.0  0.07502  0.57197  0.10198  1.0000
  O   O2        1.0  0.92499  0.42803  0.89802  1.0000
  O   O3        1.0  0.30970  0.73736  0.13931  1.0000
  O   O4        1.0  0.69031  0.26264  0.86069  1.0000
  O   O5        1.0  0.99412  0.78096  0.21645  1.0000
  O   O6        1.0  0.00589  0.21904  0.78356  1.0000
