data_image0
_chemical_formula_structural       Zn4H40C48N8O16
_chemical_formula_sum              "Zn4 H40 C48 N8 O16"
_cell_length_a       7.97706
_cell_length_b       7.97706
_cell_length_c       17.627
_cell_angle_alpha    90
_cell_angle_beta     90
_cell_angle_gamma    90

_space_group_name_H-M_alt    "P 1"
_space_group_IT_number       1

loop_
  _space_group_symop_operation_xyz
  'x, y, z'

loop_
  _atom_site_type_symbol
  _atom_site_label
  _atom_site_symmetry_multiplicity
  _atom_site_fract_x
  _atom_site_fract_y
  _atom_site_fract_z
  _atom_site_occupancy
  Zn  Zn1       1.0  0.73533  0.73533  0.00000  1.0000
  Zn  Zn2       1.0  0.26467  0.26467  0.50000  1.0000
  Zn  Zn3       1.0  0.76467  0.23533  0.75000  1.0000
  Zn  Zn4       1.0  0.23533  0.76467  0.25000  1.0000
  H   H1        1.0  0.68352  0.40010  0.07389  1.0000
  H   H2        1.0  0.31648  0.59990  0.57389  1.0000
  H   H3        1.0  0.09990  0.18352  0.82389  1.0000
  H   H4        1.0  0.90010  0.81648  0.32389  1.0000
  H   H5        1.0  0.81648  0.90010  0.67611  1.0000
  H   H6        1.0  0.18352  0.09991  0.17611  1.0000
  H   H7        1.0  0.40010  0.68352  0.92611  1.0000
  H   H8        1.0  0.59990  0.31648  0.42611  1.0000
  H   H9        1.0  0.47276  0.16577  0.07392  1.0000
  H   H10       1.0  0.52724  0.83423  0.57392  1.0000
  H   H11       1.0  0.33423  0.97276  0.82392  1.0000
  H   H12       1.0  0.66577  0.02724  0.32392  1.0000
  H   H13       1.0  0.02724  0.66577  0.67608  1.0000
  H   H14       1.0  0.97276  0.33423  0.17608  1.0000
  H   H15       1.0  0.16577  0.47276  0.92608  1.0000
  H   H16       1.0  0.83423  0.52724  0.42608  1.0000
  H   H17       1.0  0.96505  0.34290  0.02103  1.0000
  H   H18       1.0  0.03495  0.65710  0.52103  1.0000
  H   H19       1.0  0.15710  0.46505  0.77103  1.0000
  H   H20       1.0  0.84290  0.53495  0.27103  1.0000
  H   H21       1.0  0.53495  0.84290  0.72897  1.0000
  H   H22       1.0  0.46505  0.15710  0.22897  1.0000
  H   H23       1.0  0.34290  0.96505  0.97897  1.0000
  H   H24       1.0  0.65710  0.03495  0.47897  1.0000
  H   H25       1.0  0.11074  0.75049  0.98072  1.0000
  H   H26       1.0  0.88926  0.24951  0.48072  1.0000
  H   H27       1.0  0.74951  0.61074  0.73072  1.0000
  H   H28       1.0  0.25049  0.38926  0.23072  1.0000
  H   H29       1.0  0.38926  0.25049  0.76928  1.0000
  H   H30       1.0  0.61074  0.74951  0.26928  1.0000
  H   H31       1.0  0.75049  0.11074  0.01928  1.0000
  H   H32       1.0  0.24951  0.88926  0.51928  1.0000
  H   H33       1.0  0.70442  0.42113  0.89443  1.0000
  H   H34       1.0  0.29558  0.57887  0.39443  1.0000
  H   H35       1.0  0.07887  0.20442  0.64443  1.0000
  H   H36       1.0  0.92113  0.79558  0.14443  1.0000
  H   H37       1.0  0.79558  0.92113  0.85557  1.0000
  H   H38       1.0  0.20442  0.07887  0.35557  1.0000
  H   H39       1.0  0.42113  0.70442  0.10557  1.0000
  H   H40       1.0  0.57887  0.29558  0.60557  1.0000
  C   C1        1.0  0.56829  0.40726  0.04082  1.0000
  C   C2        1.0  0.43171  0.59274  0.54082  1.0000
  C   C3        1.0  0.09274  0.06829  0.79082  1.0000
  C   C4        1.0  0.90726  0.93171  0.29082  1.0000
  C   C5        1.0  0.93171  0.90726  0.70918  1.0000
  C   C6        1.0  0.06829  0.09274  0.20918  1.0000
  C   C7        1.0  0.40726  0.56829  0.95918  1.0000
  C   C8        1.0  0.59274  0.43171  0.45918  1.0000
  C   C9        1.0  0.45006  0.27949  0.04106  1.0000
  C   C10       1.0  0.54994  0.72051  0.54106  1.0000
  C   C11       1.0  0.22051  0.95006  0.79106  1.0000
  C   C12       1.0  0.77949  0.04994  0.29106  1.0000
  C   C13       1.0  0.04994  0.77949  0.70894  1.0000
  C   C14       1.0  0.95006  0.22051  0.20894  1.0000
  C   C15       1.0  0.27949  0.45006  0.95894  1.0000
  C   C16       1.0  0.72051  0.54994  0.45894  1.0000
  C   C17       1.0  0.30120  0.30120  0.00000  1.0000
  C   C18       1.0  0.69880  0.69880  0.50000  1.0000
  C   C19       1.0  0.19880  0.80120  0.75000  1.0000
  C   C20       1.0  0.80120  0.19880  0.25000  1.0000
  C   C21       1.0  0.17073  0.17073  0.00000  1.0000
  C   C22       1.0  0.82927  0.82927  0.50000  1.0000
  C   C23       1.0  0.32927  0.67073  0.75000  1.0000
  C   C24       1.0  0.67073  0.32927  0.25000  1.0000
  C   C25       1.0  0.00180  0.21307  0.01038  1.0000
  C   C26       1.0  0.99820  0.78693  0.51038  1.0000
  C   C27       1.0  0.28693  0.50180  0.76038  1.0000
  C   C28       1.0  0.71307  0.49820  0.26038  1.0000
  C   C29       1.0  0.49820  0.71307  0.73962  1.0000
  C   C30       1.0  0.50180  0.28693  0.23962  1.0000
  C   C31       1.0  0.21307  0.00180  0.98962  1.0000
  C   C32       1.0  0.78693  0.99820  0.48962  1.0000
  C   C33       1.0  0.88311  0.08572  0.01051  1.0000
  C   C34       1.0  0.11688  0.91428  0.51051  1.0000
  C   C35       1.0  0.41428  0.38312  0.76051  1.0000
  C   C36       1.0  0.58572  0.61689  0.26051  1.0000
  C   C37       1.0  0.61689  0.58572  0.73949  1.0000
  C   C38       1.0  0.38311  0.41428  0.23949  1.0000
  C   C39       1.0  0.08572  0.88311  0.98949  1.0000
  C   C40       1.0  0.91428  0.11689  0.48949  1.0000
  C   C41       1.0  0.82910  0.47210  0.87876  1.0000
  C   C42       1.0  0.17090  0.52790  0.37876  1.0000
  C   C43       1.0  0.02790  0.32910  0.62876  1.0000
  C   C44       1.0  0.97210  0.67090  0.12876  1.0000
  C   C45       1.0  0.67090  0.97210  0.87124  1.0000
  C   C46       1.0  0.32910  0.02790  0.37124  1.0000
  C   C47       1.0  0.47210  0.82910  0.12124  1.0000
  C   C48       1.0  0.52790  0.17090  0.62124  1.0000
  N   N1        1.0  0.54854  0.54854  0.00000  1.0000
  N   N2        1.0  0.45146  0.45146  0.50000  1.0000
  N   N3        1.0  0.95146  0.04854  0.75000  1.0000
  N   N4        1.0  0.04854  0.95146  0.25000  1.0000
  N   N5        1.0  0.92360  0.92360  0.00000  1.0000
  N   N6        1.0  0.07640  0.07640  0.50000  1.0000
  N   N7        1.0  0.57640  0.42360  0.75000  1.0000
  N   N8        1.0  0.42360  0.57640  0.25000  1.0000
  O   O1        1.0  0.87905  0.60455  0.91128  1.0000
  O   O2        1.0  0.12095  0.39545  0.41128  1.0000
  O   O3        1.0  0.89545  0.37905  0.66128  1.0000
  O   O4        1.0  0.10455  0.62095  0.16128  1.0000
  O   O5        1.0  0.62095  0.10455  0.83872  1.0000
  O   O6        1.0  0.37905  0.89545  0.33872  1.0000
  O   O7        1.0  0.60455  0.87905  0.08872  1.0000
  O   O8        1.0  0.39545  0.12095  0.58872  1.0000
  O   O9        1.0  0.58894  0.89126  0.92120  1.0000
  O   O10       1.0  0.41106  0.10874  0.42120  1.0000
  O   O11       1.0  0.60874  0.08894  0.67120  1.0000
  O   O12       1.0  0.39126  0.91106  0.17120  1.0000
  O   O13       1.0  0.91106  0.39126  0.82880  1.0000
  O   O14       1.0  0.08894  0.60874  0.32880  1.0000
  O   O15       1.0  0.89126  0.58894  0.07880  1.0000
  O   O16       1.0  0.10874  0.41106  0.57880  1.0000
