data_image0
_chemical_formula_structural       Na4H32C40N8Cl4O16
_chemical_formula_sum              "Na4 H32 C40 N8 Cl4 O16"
_cell_length_a       5.10172
_cell_length_b       12.499
_cell_length_c       18.1877
_cell_angle_alpha    89.9989
_cell_angle_beta     90.0004
_cell_angle_gamma    89.9996

_space_group_name_H-M_alt    "P 1"
_space_group_IT_number       1

loop_
  _space_group_symop_operation_xyz
  'x, y, z'

loop_
  _atom_site_type_symbol
  _atom_site_label
  _atom_site_symmetry_multiplicity
  _atom_site_fract_x
  _atom_site_fract_y
  _atom_site_fract_z
  _atom_site_occupancy
  Na  Na1       1.0  0.53420  0.87216  0.46599  1.0000
  Na  Na2       1.0  0.03418  0.12786  0.53403  1.0000
  Na  Na3       1.0  0.03420  0.62784  0.96597  1.0000
  Na  Na4       1.0  0.53420  0.37216  0.03403  1.0000
  H   H1        1.0  0.09293  0.65264  0.24031  1.0000
  H   H2        1.0  0.59288  0.34738  0.75969  1.0000
  H   H3        1.0  0.59287  0.84736  0.74030  1.0000
  H   H4        1.0  0.09286  0.15261  0.25969  1.0000
  H   H5        1.0  0.78942  0.79228  0.19731  1.0000
  H   H6        1.0  0.28940  0.20772  0.80270  1.0000
  H   H7        1.0  0.28936  0.70771  0.69729  1.0000
  H   H8        1.0  0.78939  0.29226  0.30269  1.0000
  H   H9        1.0  0.77247  0.96962  0.26518  1.0000
  H   H10       1.0  0.27245  0.03039  0.73484  1.0000
  H   H11       1.0  0.27244  0.53038  0.76517  1.0000
  H   H12       1.0  0.77246  0.46961  0.23483  1.0000
  H   H13       1.0  0.08040  0.99687  0.36993  1.0000
  H   H14       1.0  0.58037  0.00315  0.63008  1.0000
  H   H15       1.0  0.58040  0.50313  0.86991  1.0000
  H   H16       1.0  0.08042  0.49686  0.13009  1.0000
  H   H17       1.0  0.21774  0.53075  0.30966  1.0000
  H   H18       1.0  0.71767  0.46928  0.69034  1.0000
  H   H19       1.0  0.71758  0.96925  0.80966  1.0000
  H   H20       1.0  0.21767  0.03072  0.19034  1.0000
  H   H21       1.0  0.50465  0.39460  0.36842  1.0000
  H   H22       1.0  0.00459  0.60542  0.63157  1.0000
  H   H23       1.0  0.00448  0.10540  0.86842  1.0000
  H   H24       1.0  0.50458  0.89459  0.13157  1.0000
  H   H25       1.0  0.86707  0.45566  0.45200  1.0000
  H   H26       1.0  0.36702  0.54433  0.54801  1.0000
  H   H27       1.0  0.36694  0.04432  0.95197  1.0000
  H   H28       1.0  0.86699  0.95568  0.04801  1.0000
  H   H29       1.0  0.91159  0.65236  0.47689  1.0000
  H   H30       1.0  0.41153  0.34763  0.52312  1.0000
  H   H31       1.0  0.41152  0.84764  0.97687  1.0000
  H   H32       1.0  0.91155  0.15237  0.02312  1.0000
  C   C1        1.0  0.23899  0.74828  0.33145  1.0000
  C   C2        1.0  0.73892  0.25174  0.66856  1.0000
  C   C3        1.0  0.73892  0.75172  0.83144  1.0000
  C   C4        1.0  0.23893  0.24826  0.16855  1.0000
  C   C5        1.0  0.08245  0.72846  0.26956  1.0000
  C   C6        1.0  0.58237  0.27155  0.73045  1.0000
  C   C7        1.0  0.58236  0.77154  0.76954  1.0000
  C   C8        1.0  0.08237  0.22844  0.23045  1.0000
  C   C9        1.0  0.91324  0.80799  0.24470  1.0000
  C   C10       1.0  0.41318  0.19202  0.75532  1.0000
  C   C11       1.0  0.41314  0.69201  0.74468  1.0000
  C   C12       1.0  0.91317  0.30798  0.25531  1.0000
  C   C13       1.0  0.90572  0.90580  0.28133  1.0000
  C   C14       1.0  0.40568  0.09422  0.71868  1.0000
  C   C15       1.0  0.40566  0.59421  0.78132  1.0000
  C   C16       1.0  0.90568  0.40578  0.21867  1.0000
  C   C17       1.0  0.07470  0.92059  0.34078  1.0000
  C   C18       1.0  0.57464  0.07943  0.65922  1.0000
  C   C19       1.0  0.57463  0.57941  0.84078  1.0000
  C   C20       1.0  0.07467  0.42058  0.15923  1.0000
  C   C21       1.0  0.41208  0.66427  0.36320  1.0000
  C   C22       1.0  0.91199  0.33575  0.63680  1.0000
  C   C23       1.0  0.91196  0.83573  0.86319  1.0000
  C   C24       1.0  0.41199  0.16426  0.13681  1.0000
  C   C25       1.0  0.37455  0.55573  0.34641  1.0000
  C   C26       1.0  0.87448  0.44429  0.65359  1.0000
  C   C27       1.0  0.87442  0.94428  0.84640  1.0000
  C   C28       1.0  0.37446  0.05572  0.15358  1.0000
  C   C29       1.0  0.53577  0.47941  0.37888  1.0000
  C   C30       1.0  0.03570  0.52060  0.62111  1.0000
  C   C31       1.0  0.03563  0.02059  0.87888  1.0000
  C   C32       1.0  0.53569  0.97941  0.12111  1.0000
  C   C33       1.0  0.73519  0.51283  0.42602  1.0000
  C   C34       1.0  0.23514  0.48716  0.57399  1.0000
  C   C35       1.0  0.23508  0.98716  0.92600  1.0000
  C   C36       1.0  0.73512  0.01284  0.07398  1.0000
  C   C37       1.0  0.75948  0.62222  0.43996  1.0000
  C   C38       1.0  0.25943  0.37778  0.56005  1.0000
  C   C39       1.0  0.25939  0.87778  0.93994  1.0000
  C   C40       1.0  0.75941  0.12222  0.06005  1.0000
  N   N1        1.0  0.23658  0.84429  0.36570  1.0000
  N   N2        1.0  0.73650  0.15573  0.63430  1.0000
  N   N3        1.0  0.73650  0.65571  0.86570  1.0000
  N   N4        1.0  0.23653  0.34428  0.13431  1.0000
  N   N5        1.0  0.60111  0.69635  0.41039  1.0000
  N   N6        1.0  0.10104  0.30366  0.58963  1.0000
  N   N7        1.0  0.10101  0.80364  0.91036  1.0000
  N   N8        1.0  0.60105  0.19635  0.08963  1.0000
  Cl  Cl1       1.0  0.06842  0.85732  0.58581  1.0000
  Cl  Cl2       1.0  0.56840  0.14270  0.41419  1.0000
  Cl  Cl3       1.0  0.56843  0.64270  0.08580  1.0000
  Cl  Cl4       1.0  0.06840  0.35730  0.91420  1.0000
  O   O1        1.0  0.17418  0.94690  0.54167  1.0000
  O   O2        1.0  0.67420  0.05311  0.45833  1.0000
  O   O3        1.0  0.67422  0.55311  0.04167  1.0000
  O   O4        1.0  0.17420  0.44689  0.95833  1.0000
  O   O5        1.0  0.20802  0.76037  0.56442  1.0000
  O   O6        1.0  0.70803  0.23964  0.43558  1.0000
  O   O7        1.0  0.70805  0.73964  0.06441  1.0000
  O   O8        1.0  0.20804  0.26036  0.93558  1.0000
  O   O9        1.0  0.78895  0.84525  0.57015  1.0000
  O   O10       1.0  0.28894  0.15477  0.42987  1.0000
  O   O11       1.0  0.28897  0.65477  0.07012  1.0000
  O   O12       1.0  0.78895  0.34523  0.92988  1.0000
  O   O13       1.0  0.10347  0.87957  0.66336  1.0000
  O   O14       1.0  0.60341  0.12045  0.33664  1.0000
  O   O15       1.0  0.60342  0.62045  0.16336  1.0000
  O   O16       1.0  0.10339  0.37955  0.83664  1.0000
