data_image0
_chemical_formula_structural       K4H32C52S4N8O12F12
_chemical_formula_sum              "K4 H32 C52 S4 N8 O12 F12"
_cell_length_a       6.31332
_cell_length_b       12.7203
_cell_length_c       18.433
_cell_angle_alpha    90
_cell_angle_beta     90
_cell_angle_gamma    97.4208

_space_group_name_H-M_alt    "P 1"
_space_group_IT_number       1

loop_
  _space_group_symop_operation_xyz
  'x, y, z'

loop_
  _atom_site_type_symbol
  _atom_site_label
  _atom_site_symmetry_multiplicity
  _atom_site_fract_x
  _atom_site_fract_y
  _atom_site_fract_z
  _atom_site_occupancy
  K   K1        1.0  0.22163  0.14437  0.51508  1.0000
  K   K2        1.0  0.27835  0.85563  0.01508  1.0000
  K   K3        1.0  0.77837  0.85563  0.48492  1.0000
  K   K4        1.0  0.72163  0.14436  0.98491  1.0000
  H   H1        1.0  0.57533  0.63750  0.62445  1.0000
  H   H2        1.0  0.92464  0.36250  0.12446  1.0000
  H   H3        1.0  0.42466  0.36250  0.37555  1.0000
  H   H4        1.0  0.07536  0.63750  0.87555  1.0000
  H   H5        1.0  0.23643  0.59695  0.55416  1.0000
  H   H6        1.0  0.26354  0.40304  0.05417  1.0000
  H   H7        1.0  0.76357  0.40305  0.44584  1.0000
  H   H8        1.0  0.73645  0.59696  0.94584  1.0000
  H   H9        1.0  0.10884  0.40742  0.52198  1.0000
  H   H10       1.0  0.39113  0.59257  0.02199  1.0000
  H   H11       1.0  0.89114  0.59258  0.47802  1.0000
  H   H12       1.0  0.60887  0.40742  0.97802  1.0000
  H   H13       1.0  0.88921  0.57152  0.68351  1.0000
  H   H14       1.0  0.61077  0.42847  0.18352  1.0000
  H   H15       1.0  0.11078  0.42847  0.31649  1.0000
  H   H16       1.0  0.38924  0.57153  0.81648  1.0000
  H   H17       1.0  0.11452  0.22918  0.71576  1.0000
  H   H18       1.0  0.38546  0.77082  0.21576  1.0000
  H   H19       1.0  0.88548  0.77082  0.28424  1.0000
  H   H20       1.0  0.61453  0.22918  0.78424  1.0000
  H   H21       1.0  0.94532  0.04404  0.68819  1.0000
  H   H22       1.0  0.55468  0.95595  0.18820  1.0000
  H   H23       1.0  0.05469  0.95596  0.31180  1.0000
  H   H24       1.0  0.44532  0.04404  0.81180  1.0000
  H   H25       1.0  0.59030  0.01844  0.62567  1.0000
  H   H26       1.0  0.90971  0.98156  0.12568  1.0000
  H   H27       1.0  0.40971  0.98156  0.37432  1.0000
  H   H28       1.0  0.09030  0.01844  0.87432  1.0000
  H   H29       1.0  0.08830  0.42253  0.71524  1.0000
  H   H30       1.0  0.41168  0.57747  0.21524  1.0000
  H   H31       1.0  0.91169  0.57747  0.28477  1.0000
  H   H32       1.0  0.58832  0.42253  0.78476  1.0000
  C   C1        1.0  0.88015  0.18291  0.33118  1.0000
  C   C2        1.0  0.61986  0.81709  0.83117  1.0000
  C   C3        1.0  0.11987  0.81710  0.66883  1.0000
  C   C4        1.0  0.38014  0.18291  0.16883  1.0000
  C   C5        1.0  0.54052  0.36686  0.61106  1.0000
  C   C6        1.0  0.95946  0.63314  0.11106  1.0000
  C   C7        1.0  0.45948  0.63314  0.38894  1.0000
  C   C8        1.0  0.04054  0.36686  0.88894  1.0000
  C   C9        1.0  0.62803  0.47212  0.63070  1.0000
  C   C10       1.0  0.87195  0.52787  0.13071  1.0000
  C   C11       1.0  0.37195  0.52787  0.36930  1.0000
  C   C12       1.0  0.12805  0.47213  0.86930  1.0000
  C   C13       1.0  0.51389  0.55600  0.61009  1.0000
  C   C14       1.0  0.98608  0.44400  0.11010  1.0000
  C   C15       1.0  0.48610  0.44400  0.38991  1.0000
  C   C16       1.0  0.01392  0.55600  0.88991  1.0000
  C   C17       1.0  0.32659  0.53384  0.57123  1.0000
  C   C18       1.0  0.17339  0.46615  0.07124  1.0000
  C   C19       1.0  0.67340  0.46616  0.42877  1.0000
  C   C20       1.0  0.82661  0.53384  0.92877  1.0000
  C   C21       1.0  0.25541  0.42759  0.55339  1.0000
  C   C22       1.0  0.24458  0.57240  0.05339  1.0000
  C   C23       1.0  0.74458  0.57241  0.44662  1.0000
  C   C24       1.0  0.75543  0.42760  0.94661  1.0000
  C   C25       1.0  0.82604  0.49029  0.66931  1.0000
  C   C26       1.0  0.67394  0.50971  0.16931  1.0000
  C   C27       1.0  0.17395  0.50971  0.33069  1.0000
  C   C28       1.0  0.32607  0.49029  0.83069  1.0000
  C   C29       1.0  0.65222  0.27885  0.63278  1.0000
  C   C30       1.0  0.84777  0.72115  0.13278  1.0000
  C   C31       1.0  0.34778  0.72115  0.36722  1.0000
  C   C32       1.0  0.15224  0.27886  0.86722  1.0000
  C   C33       1.0  0.85161  0.30116  0.66975  1.0000
  C   C34       1.0  0.64837  0.69884  0.16975  1.0000
  C   C35       1.0  0.14839  0.69884  0.33025  1.0000
  C   C36       1.0  0.35163  0.30116  0.83025  1.0000
  C   C37       1.0  0.95975  0.21450  0.68884  1.0000
  C   C38       1.0  0.54024  0.78550  0.18884  1.0000
  C   C39       1.0  0.04026  0.78550  0.31116  1.0000
  C   C40       1.0  0.45976  0.21450  0.81116  1.0000
  C   C41       1.0  0.86721  0.11250  0.67347  1.0000
  C   C42       1.0  0.63278  0.88750  0.17347  1.0000
  C   C43       1.0  0.13279  0.88750  0.32653  1.0000
  C   C44       1.0  0.36722  0.11250  0.82653  1.0000
  C   C45       1.0  0.66759  0.09840  0.63804  1.0000
  C   C46       1.0  0.83241  0.90160  0.13805  1.0000
  C   C47       1.0  0.33242  0.90160  0.36196  1.0000
  C   C48       1.0  0.16759  0.09840  0.86195  1.0000
  C   C49       1.0  0.93525  0.40806  0.68721  1.0000
  C   C50       1.0  0.56473  0.59195  0.18721  1.0000
  C   C51       1.0  0.06475  0.59194  0.31280  1.0000
  C   C52       1.0  0.43527  0.40806  0.81279  1.0000
  S   S1        1.0  0.76431  0.16130  0.42387  1.0000
  S   S2        1.0  0.73568  0.83871  0.92388  1.0000
  S   S3        1.0  0.23570  0.83870  0.57612  1.0000
  S   S4        1.0  0.26431  0.16130  0.07612  1.0000
  N   N1        1.0  0.35620  0.34634  0.57268  1.0000
  N   N2        1.0  0.14379  0.65366  0.07269  1.0000
  N   N3        1.0  0.64380  0.65366  0.42731  1.0000
  N   N4        1.0  0.85622  0.34634  0.92731  1.0000
  N   N5        1.0  0.56375  0.17815  0.61754  1.0000
  N   N6        1.0  0.93626  0.82185  0.11755  1.0000
  N   N7        1.0  0.43627  0.82185  0.38245  1.0000
  N   N8        1.0  0.06375  0.17815  0.88245  1.0000
  O   O1        1.0  0.87764  0.24852  0.46566  1.0000
  O   O2        1.0  0.62236  0.75149  0.96566  1.0000
  O   O3        1.0  0.12236  0.75148  0.53434  1.0000
  O   O4        1.0  0.37766  0.24852  0.03434  1.0000
  O   O5        1.0  0.82461  0.05754  0.44336  1.0000
  O   O6        1.0  0.67537  0.94246  0.94336  1.0000
  O   O7        1.0  0.17540  0.94246  0.55663  1.0000
  O   O8        1.0  0.32462  0.05754  0.05663  1.0000
  O   O9        1.0  0.53641  0.16402  0.41336  1.0000
  O   O10       1.0  0.96360  0.83598  0.91336  1.0000
  O   O11       1.0  0.46359  0.83597  0.58664  1.0000
  O   O12       1.0  0.03642  0.16403  0.08663  1.0000
  F   F1        1.0  0.82657  0.27318  0.30087  1.0000
  F   F2        1.0  0.67344  0.72682  0.80087  1.0000
  F   F3        1.0  0.17343  0.72682  0.69913  1.0000
  F   F4        1.0  0.32656  0.27318  0.19913  1.0000
  F   F5        1.0  0.81285  0.10070  0.28639  1.0000
  F   F6        1.0  0.68715  0.89930  0.78639  1.0000
  F   F7        1.0  0.18718  0.89930  0.71361  1.0000
  F   F8        1.0  0.31282  0.10070  0.21361  1.0000
  F   F9        1.0  0.09701  0.19187  0.33531  1.0000
  F   F10       1.0  0.40300  0.80813  0.83530  1.0000
  F   F11       1.0  0.90301  0.80815  0.66470  1.0000
  F   F12       1.0  0.59700  0.19186  0.16470  1.0000
