data_image0
_chemical_formula_structural       Na4H48C56N12O12
_chemical_formula_sum              "Na4 H48 C56 N12 O12"
_cell_length_a       8.14817
_cell_length_b       10.4096
_cell_length_c       15.569
_cell_angle_alpha    93.3012
_cell_angle_beta     90
_cell_angle_gamma    90

_space_group_name_H-M_alt    "P 1"
_space_group_IT_number       1

loop_
  _space_group_symop_operation_xyz
  'x, y, z'

loop_
  _atom_site_type_symbol
  _atom_site_label
  _atom_site_symmetry_multiplicity
  _atom_site_fract_x
  _atom_site_fract_y
  _atom_site_fract_z
  _atom_site_occupancy
  Na  Na1       1.0  0.34165  0.31965  0.67967  1.0000
  Na  Na2       1.0  0.84165  0.18035  0.82033  1.0000
  Na  Na3       1.0  0.65835  0.68035  0.32033  1.0000
  Na  Na4       1.0  0.15836  0.81965  0.17967  1.0000
  H   H1        1.0  0.03725  0.48585  0.32960  1.0000
  H   H2        1.0  0.53727  0.01414  0.17041  1.0000
  H   H3        1.0  0.96273  0.51415  0.67040  1.0000
  H   H4        1.0  0.46273  0.98586  0.82959  1.0000
  H   H5        1.0  0.02234  0.25528  0.36439  1.0000
  H   H6        1.0  0.52235  0.24471  0.13562  1.0000
  H   H7        1.0  0.97765  0.74472  0.63562  1.0000
  H   H8        1.0  0.47765  0.75529  0.86438  1.0000
  H   H9        1.0  0.26332  0.12032  0.54186  1.0000
  H   H10       1.0  0.76331  0.37969  0.95815  1.0000
  H   H11       1.0  0.73667  0.87969  0.45814  1.0000
  H   H12       1.0  0.23669  0.62032  0.04185  1.0000
  H   H13       1.0  0.04563  0.12934  0.54093  1.0000
  H   H14       1.0  0.54562  0.37066  0.95907  1.0000
  H   H15       1.0  0.95437  0.87066  0.45907  1.0000
  H   H16       1.0  0.45438  0.62935  0.04093  1.0000
  H   H17       1.0  0.15222  0.08158  0.44493  1.0000
  H   H18       1.0  0.65221  0.41841  0.05508  1.0000
  H   H19       1.0  0.84777  0.91841  0.55507  1.0000
  H   H20       1.0  0.34778  0.58159  0.94493  1.0000
  H   H21       1.0  0.14086  0.70674  0.36702  1.0000
  H   H22       1.0  0.64088  0.79326  0.13298  1.0000
  H   H23       1.0  0.85913  0.29326  0.63298  1.0000
  H   H24       1.0  0.35912  0.20675  0.86702  1.0000
  H   H25       1.0  0.47421  0.89454  0.59680  1.0000
  H   H26       1.0  0.97422  0.60546  0.90319  1.0000
  H   H27       1.0  0.52580  0.10545  0.40319  1.0000
  H   H28       1.0  0.02579  0.39454  0.09681  1.0000
  H   H29       1.0  0.61373  0.80557  0.72156  1.0000
  H   H30       1.0  0.11373  0.69443  0.77843  1.0000
  H   H31       1.0  0.38628  0.19442  0.27843  1.0000
  H   H32       1.0  0.88627  0.30557  0.22156  1.0000
  H   H33       1.0  0.50275  0.52950  0.81785  1.0000
  H   H34       1.0  0.00274  0.97050  0.68214  1.0000
  H   H35       1.0  0.49725  0.47051  0.18215  1.0000
  H   H36       1.0  0.99725  0.02949  0.31785  1.0000
  H   H37       1.0  0.68548  0.62010  0.80261  1.0000
  H   H38       1.0  0.18547  0.87990  0.69739  1.0000
  H   H39       1.0  0.31452  0.37990  0.19739  1.0000
  H   H40       1.0  0.81452  0.12010  0.30261  1.0000
  H   H41       1.0  0.65953  0.46456  0.75078  1.0000
  H   H42       1.0  0.15952  0.03544  0.74921  1.0000
  H   H43       1.0  0.34048  0.53544  0.24922  1.0000
  H   H44       1.0  0.84047  0.96456  0.25078  1.0000
  H   H45       1.0  0.30151  0.85683  0.46486  1.0000
  H   H46       1.0  0.80152  0.64316  0.03514  1.0000
  H   H47       1.0  0.69849  0.14316  0.53514  1.0000
  H   H48       1.0  0.19849  0.35684  0.96486  1.0000
  C   C1        1.0  0.25970  0.49179  0.51584  1.0000
  C   C2        1.0  0.75971  0.00821  0.98417  1.0000
  C   C3        1.0  0.74029  0.50821  0.48417  1.0000
  C   C4        1.0  0.24029  0.99179  0.01583  1.0000
  C   C5        1.0  0.18558  0.54038  0.44146  1.0000
  C   C6        1.0  0.68559  0.95962  0.05854  1.0000
  C   C7        1.0  0.81441  0.45962  0.55854  1.0000
  C   C8        1.0  0.31442  0.04038  0.94146  1.0000
  C   C9        1.0  0.09673  0.45233  0.38693  1.0000
  C   C10       1.0  0.59674  0.04767  0.11307  1.0000
  C   C11       1.0  0.90327  0.54767  0.61307  1.0000
  C   C12       1.0  0.40326  0.95233  0.88693  1.0000
  C   C13       1.0  0.08804  0.32511  0.40609  1.0000
  C   C14       1.0  0.58804  0.17488  0.09391  1.0000
  C   C15       1.0  0.91196  0.67489  0.59391  1.0000
  C   C16       1.0  0.41196  0.82512  0.90609  1.0000
  C   C17       1.0  0.16557  0.28432  0.48108  1.0000
  C   C18       1.0  0.66557  0.21567  0.01892  1.0000
  C   C19       1.0  0.83442  0.71567  0.51892  1.0000
  C   C20       1.0  0.33444  0.78433  0.98107  1.0000
  C   C21       1.0  0.15714  0.14604  0.50322  1.0000
  C   C22       1.0  0.65713  0.35396  0.99678  1.0000
  C   C23       1.0  0.84285  0.85396  0.49678  1.0000
  C   C24       1.0  0.34287  0.64604  0.00322  1.0000
  C   C25       1.0  0.20169  0.67308  0.42400  1.0000
  C   C26       1.0  0.70170  0.82692  0.07600  1.0000
  C   C27       1.0  0.79831  0.32692  0.57600  1.0000
  C   C28       1.0  0.29830  0.17308  0.92400  1.0000
  C   C29       1.0  0.35303  0.57953  0.57317  1.0000
  C   C30       1.0  0.85304  0.92047  0.92683  1.0000
  C   C31       1.0  0.64697  0.42047  0.42683  1.0000
  C   C32       1.0  0.14697  0.07953  0.07317  1.0000
  C   C33       1.0  0.36637  0.71097  0.55320  1.0000
  C   C34       1.0  0.86637  0.78903  0.94680  1.0000
  C   C35       1.0  0.63363  0.28903  0.44680  1.0000
  C   C36       1.0  0.13363  0.21097  0.05320  1.0000
  C   C37       1.0  0.46049  0.79304  0.60933  1.0000
  C   C38       1.0  0.96050  0.70696  0.89066  1.0000
  C   C39       1.0  0.53952  0.20695  0.39067  1.0000
  C   C40       1.0  0.03950  0.29304  0.10933  1.0000
  C   C41       1.0  0.53629  0.74387  0.67954  1.0000
  C   C42       1.0  0.03629  0.75613  0.82045  1.0000
  C   C43       1.0  0.46371  0.25612  0.32045  1.0000
  C   C44       1.0  0.96371  0.24387  0.17954  1.0000
  C   C45       1.0  0.51650  0.61222  0.69513  1.0000
  C   C46       1.0  0.01650  0.88778  0.80487  1.0000
  C   C47       1.0  0.48350  0.38778  0.30487  1.0000
  C   C48       1.0  0.98350  0.11222  0.19513  1.0000
  C   C49       1.0  0.59640  0.55450  0.77071  1.0000
  C   C50       1.0  0.09640  0.94551  0.72929  1.0000
  C   C51       1.0  0.40360  0.44550  0.22929  1.0000
  C   C52       1.0  0.90360  0.05449  0.27071  1.0000
  C   C53       1.0  0.28876  0.75557  0.47813  1.0000
  C   C54       1.0  0.78878  0.74443  0.02188  1.0000
  C   C55       1.0  0.71123  0.24442  0.52188  1.0000
  C   C56       1.0  0.21124  0.25557  0.97813  1.0000
  N   N1        1.0  0.24714  0.36624  0.53459  1.0000
  N   N2        1.0  0.74714  0.13376  0.96542  1.0000
  N   N3        1.0  0.75286  0.63376  0.46542  1.0000
  N   N4        1.0  0.25286  0.86624  0.03458  1.0000
  N   N5        1.0  0.42636  0.53346  0.64334  1.0000
  N   N6        1.0  0.92636  0.96653  0.85666  1.0000
  N   N7        1.0  0.57365  0.46653  0.35666  1.0000
  N   N8        1.0  0.07364  0.03347  0.14334  1.0000
  N   N9        1.0  0.07791  0.37295  0.79835  1.0000
  N   N10       1.0  0.57791  0.12705  0.70165  1.0000
  N   N11       1.0  0.92210  0.62705  0.20165  1.0000
  N   N12       1.0  0.42209  0.87295  0.29835  1.0000
  O   O1        1.0  0.20062  0.44700  0.80114  1.0000
  O   O2        1.0  0.70062  0.05300  0.69887  1.0000
  O   O3        1.0  0.79938  0.55300  0.19887  1.0000
  O   O4        1.0  0.29938  0.94700  0.30114  1.0000
  O   O5        1.0  0.07807  0.27285  0.74605  1.0000
  O   O6        1.0  0.57806  0.22715  0.75396  1.0000
  O   O7        1.0  0.92194  0.72716  0.25396  1.0000
  O   O8        1.0  0.42193  0.77285  0.24604  1.0000
  O   O9        1.0  0.95427  0.39477  0.84607  1.0000
  O   O10       1.0  0.45427  0.10523  0.65393  1.0000
  O   O11       1.0  0.04573  0.60524  0.15393  1.0000
  O   O12       1.0  0.54573  0.89477  0.34608  1.0000
