data_image0
_chemical_formula_structural       Li4H48C56N12O12
_chemical_formula_sum              "Li4 H48 C56 N12 O12"
_cell_length_a       7.70012
_cell_length_b       10.1955
_cell_length_c       16.119
_cell_angle_alpha    90.2335
_cell_angle_beta     90
_cell_angle_gamma    90

_space_group_name_H-M_alt    "P 1"
_space_group_IT_number       1

loop_
  _space_group_symop_operation_xyz
  'x, y, z'

loop_
  _atom_site_type_symbol
  _atom_site_label
  _atom_site_symmetry_multiplicity
  _atom_site_fract_x
  _atom_site_fract_y
  _atom_site_fract_z
  _atom_site_occupancy
  Li  Li1       1.0  0.34108  0.36185  0.68426  1.0000
  Li  Li2       1.0  0.84108  0.13815  0.81574  1.0000
  Li  Li3       1.0  0.65892  0.63816  0.31574  1.0000
  Li  Li4       1.0  0.15892  0.86184  0.18426  1.0000
  H   H1        1.0  0.12036  0.53734  0.34576  1.0000
  H   H2        1.0  0.62034  0.96266  0.15424  1.0000
  H   H3        1.0  0.87965  0.46266  0.65424  1.0000
  H   H4        1.0  0.37965  0.03734  0.84576  1.0000
  H   H5        1.0  0.07308  0.30325  0.38295  1.0000
  H   H6        1.0  0.57307  0.19675  0.11705  1.0000
  H   H7        1.0  0.92692  0.69675  0.61705  1.0000
  H   H8        1.0  0.42693  0.80325  0.88295  1.0000
  H   H9        1.0  0.11577  0.17661  0.59350  1.0000
  H   H10       1.0  0.61577  0.32339  0.90650  1.0000
  H   H11       1.0  0.88423  0.82339  0.40650  1.0000
  H   H12       1.0  0.38423  0.67661  0.09350  1.0000
  H   H13       1.0  0.05921  0.13784  0.48826  1.0000
  H   H14       1.0  0.55920  0.36217  0.01174  1.0000
  H   H15       1.0  0.94079  0.86216  0.51174  1.0000
  H   H16       1.0  0.44079  0.63784  0.98826  1.0000
  H   H17       1.0  0.27838  0.12705  0.52331  1.0000
  H   H18       1.0  0.77838  0.37295  0.97669  1.0000
  H   H19       1.0  0.72162  0.87295  0.47670  1.0000
  H   H20       1.0  0.22162  0.62705  0.02330  1.0000
  H   H21       1.0  0.22988  0.75946  0.38749  1.0000
  H   H22       1.0  0.72987  0.74055  0.11251  1.0000
  H   H23       1.0  0.77012  0.24055  0.61251  1.0000
  H   H24       1.0  0.27011  0.25945  0.88748  1.0000
  H   H25       1.0  0.52454  0.92681  0.63056  1.0000
  H   H26       1.0  0.02454  0.57319  0.86944  1.0000
  H   H27       1.0  0.47546  0.07319  0.36944  1.0000
  H   H28       1.0  0.97547  0.42681  0.13056  1.0000
  H   H29       1.0  0.61735  0.82471  0.76192  1.0000
  H   H30       1.0  0.11734  0.67528  0.73808  1.0000
  H   H31       1.0  0.38266  0.17529  0.23808  1.0000
  H   H32       1.0  0.88268  0.32471  0.26192  1.0000
  H   H33       1.0  0.66523  0.49490  0.80029  1.0000
  H   H34       1.0  0.16522  0.00510  0.69971  1.0000
  H   H35       1.0  0.33478  0.50510  0.19971  1.0000
  H   H36       1.0  0.83478  0.99490  0.30029  1.0000
  H   H37       1.0  0.45059  0.51629  0.83617  1.0000
  H   H38       1.0  0.95058  0.98371  0.66383  1.0000
  H   H39       1.0  0.54942  0.48372  0.16383  1.0000
  H   H40       1.0  0.04942  0.01628  0.33617  1.0000
  H   H41       1.0  0.61103  0.64032  0.85526  1.0000
  H   H42       1.0  0.11103  0.85968  0.64474  1.0000
  H   H43       1.0  0.38897  0.35969  0.14474  1.0000
  H   H44       1.0  0.88897  0.14032  0.35526  1.0000
  H   H45       1.0  0.37845  0.90165  0.49077  1.0000
  H   H46       1.0  0.87845  0.59835  0.00923  1.0000
  H   H47       1.0  0.62155  0.09835  0.50923  1.0000
  H   H48       1.0  0.12155  0.40165  0.99077  1.0000
  C   C1        1.0  0.29802  0.52861  0.53979  1.0000
  C   C2        1.0  0.79802  0.97139  0.96021  1.0000
  C   C3        1.0  0.70198  0.47139  0.46021  1.0000
  C   C4        1.0  0.20198  0.02861  0.03978  1.0000
  C   C5        1.0  0.24583  0.58380  0.46281  1.0000
  C   C6        1.0  0.74582  0.91620  0.03719  1.0000
  C   C7        1.0  0.75417  0.41620  0.53719  1.0000
  C   C8        1.0  0.25417  0.08380  0.96281  1.0000
  C   C9        1.0  0.16295  0.49941  0.40552  1.0000
  C   C10       1.0  0.66294  0.00059  0.09448  1.0000
  C   C11       1.0  0.83705  0.50059  0.59448  1.0000
  C   C12       1.0  0.33705  0.99941  0.90552  1.0000
  C   C13       1.0  0.13567  0.37021  0.42632  1.0000
  C   C14       1.0  0.63566  0.12979  0.07368  1.0000
  C   C15       1.0  0.86434  0.62979  0.57368  1.0000
  C   C16       1.0  0.36433  0.87021  0.92632  1.0000
  C   C17       1.0  0.18830  0.32331  0.50491  1.0000
  C   C18       1.0  0.68829  0.17670  0.99509  1.0000
  C   C19       1.0  0.81170  0.67670  0.49509  1.0000
  C   C20       1.0  0.31170  0.82330  0.00491  1.0000
  C   C21       1.0  0.15699  0.18333  0.52854  1.0000
  C   C22       1.0  0.65699  0.31667  0.97146  1.0000
  C   C23       1.0  0.84301  0.81667  0.47146  1.0000
  C   C24       1.0  0.34301  0.68333  0.02854  1.0000
  C   C25       1.0  0.27563  0.71963  0.44627  1.0000
  C   C26       1.0  0.77563  0.78037  0.05373  1.0000
  C   C27       1.0  0.72437  0.28037  0.55373  1.0000
  C   C28       1.0  0.22437  0.21963  0.94627  1.0000
  C   C29       1.0  0.38503  0.61160  0.60001  1.0000
  C   C30       1.0  0.88502  0.88840  0.89999  1.0000
  C   C31       1.0  0.61498  0.38840  0.39999  1.0000
  C   C32       1.0  0.11497  0.11160  0.10001  1.0000
  C   C33       1.0  0.41483  0.74588  0.58080  1.0000
  C   C34       1.0  0.91483  0.75412  0.91920  1.0000
  C   C35       1.0  0.58517  0.25412  0.41920  1.0000
  C   C36       1.0  0.08517  0.24588  0.08080  1.0000
  C   C37       1.0  0.50088  0.82277  0.64121  1.0000
  C   C38       1.0  0.00088  0.67723  0.85879  1.0000
  C   C39       1.0  0.49912  0.17723  0.35879  1.0000
  C   C40       1.0  0.99913  0.32277  0.14121  1.0000
  C   C41       1.0  0.55051  0.76614  0.71507  1.0000
  C   C42       1.0  0.05050  0.73385  0.78493  1.0000
  C   C43       1.0  0.44950  0.23386  0.28493  1.0000
  C   C44       1.0  0.94950  0.26614  0.21507  1.0000
  C   C45       1.0  0.51370  0.63226  0.72992  1.0000
  C   C46       1.0  0.01369  0.86774  0.77008  1.0000
  C   C47       1.0  0.48631  0.36775  0.27008  1.0000
  C   C48       1.0  0.98631  0.13225  0.22992  1.0000
  C   C49       1.0  0.56279  0.56847  0.81011  1.0000
  C   C50       1.0  0.06278  0.93153  0.68989  1.0000
  C   C51       1.0  0.43722  0.43154  0.18989  1.0000
  C   C52       1.0  0.93722  0.06846  0.31011  1.0000
  C   C53       1.0  0.35656  0.79791  0.50341  1.0000
  C   C54       1.0  0.85656  0.70209  0.99660  1.0000
  C   C55       1.0  0.64344  0.20209  0.49659  1.0000
  C   C56       1.0  0.14344  0.29791  0.00341  1.0000
  N   N1        1.0  0.26736  0.40132  0.56009  1.0000
  N   N2        1.0  0.76736  0.09868  0.93991  1.0000
  N   N3        1.0  0.73264  0.59868  0.43991  1.0000
  N   N4        1.0  0.23263  0.90131  0.06008  1.0000
  N   N5        1.0  0.43348  0.55759  0.67327  1.0000
  N   N6        1.0  0.93348  0.94241  0.82673  1.0000
  N   N7        1.0  0.56652  0.44241  0.32673  1.0000
  N   N8        1.0  0.06652  0.05758  0.17327  1.0000
  N   N9        1.0  0.03307  0.33187  0.77723  1.0000
  N   N10       1.0  0.53307  0.16813  0.72277  1.0000
  N   N11       1.0  0.96693  0.66813  0.22277  1.0000
  N   N12       1.0  0.46693  0.83188  0.27723  1.0000
  O   O1        1.0  0.15070  0.41502  0.76086  1.0000
  O   O2        1.0  0.65071  0.08498  0.73914  1.0000
  O   O3        1.0  0.84930  0.58498  0.23914  1.0000
  O   O4        1.0  0.34929  0.91502  0.26086  1.0000
  O   O5        1.0  0.02995  0.22187  0.73951  1.0000
  O   O6        1.0  0.52996  0.27813  0.76049  1.0000
  O   O7        1.0  0.97005  0.77813  0.26049  1.0000
  O   O8        1.0  0.47004  0.72187  0.23951  1.0000
  O   O9        1.0  0.91891  0.35599  0.83134  1.0000
  O   O10       1.0  0.41891  0.14401  0.66866  1.0000
  O   O11       1.0  0.08109  0.64401  0.16866  1.0000
  O   O12       1.0  0.58109  0.85599  0.33134  1.0000
