data_image0
_chemical_formula_structural       Rb4H32C52S4N8O12F12
_chemical_formula_sum              "Rb4 H32 C52 S4 N8 O12 F12"
_cell_length_a       10.3811
_cell_length_b       13.392
_cell_length_c       13.3898
_cell_angle_alpha    116.016
_cell_angle_beta     102.044
_cell_angle_gamma    102.053

_space_group_name_H-M_alt    "P 1"
_space_group_IT_number       1

loop_
  _space_group_symop_operation_xyz
  'x, y, z'

loop_
  _atom_site_type_symbol
  _atom_site_label
  _atom_site_symmetry_multiplicity
  _atom_site_fract_x
  _atom_site_fract_y
  _atom_site_fract_z
  _atom_site_occupancy
  Rb  Rb1       1.0  0.47081  0.98314  0.13044  1.0000
  Rb  Rb2       1.0  0.02919  0.86956  0.01686  1.0000
  Rb  Rb3       1.0  0.52919  0.01686  0.86956  1.0000
  Rb  Rb4       1.0  0.97081  0.13044  0.98314  1.0000
  H   H1        1.0  0.15671  0.01281  0.54674  1.0000
  H   H2        1.0  0.34329  0.45327  0.98719  1.0000
  H   H3        1.0  0.84329  0.98719  0.45326  1.0000
  H   H4        1.0  0.65671  0.54673  0.01281  1.0000
  H   H5        1.0  0.12172  0.12596  0.43928  1.0000
  H   H6        1.0  0.37829  0.56072  0.87403  1.0000
  H   H7        1.0  0.87828  0.87404  0.56072  1.0000
  H   H8        1.0  0.62172  0.43928  0.12597  1.0000
  H   H9        1.0  0.23507  0.10496  0.28837  1.0000
  H   H10       1.0  0.26493  0.71163  0.89504  1.0000
  H   H11       1.0  0.76493  0.89504  0.71163  1.0000
  H   H12       1.0  0.73507  0.28837  0.10496  1.0000
  H   H13       1.0  0.25823  0.87389  0.57430  1.0000
  H   H14       1.0  0.24176  0.42571  0.12611  1.0000
  H   H15       1.0  0.74177  0.12611  0.42570  1.0000
  H   H16       1.0  0.75824  0.57429  0.87389  1.0000
  H   H17       1.0  0.52415  0.64496  0.38883  1.0000
  H   H18       1.0  0.97585  0.61117  0.35505  1.0000
  H   H19       1.0  0.47585  0.35504  0.61117  1.0000
  H   H20       1.0  0.02415  0.38882  0.64495  1.0000
  H   H21       1.0  0.63223  0.63513  0.23494  1.0000
  H   H22       1.0  0.86777  0.76506  0.36488  1.0000
  H   H23       1.0  0.36777  0.36487  0.76506  1.0000
  H   H24       1.0  0.13224  0.23494  0.63512  1.0000
  H   H25       1.0  0.60732  0.76822  0.15228  1.0000
  H   H26       1.0  0.89269  0.84771  0.23178  1.0000
  H   H27       1.0  0.39268  0.23178  0.84772  1.0000
  H   H28       1.0  0.10732  0.15229  0.76822  1.0000
  H   H29       1.0  0.38949  0.73463  0.51376  1.0000
  H   H30       1.0  0.11050  0.48624  0.26537  1.0000
  H   H31       1.0  0.61051  0.26537  0.48623  1.0000
  H   H32       1.0  0.88950  0.51376  0.73462  1.0000
  C   C1        1.0  0.57989  0.67080  0.74081  1.0000
  C   C2        1.0  0.92011  0.25919  0.32920  1.0000
  C   C3        1.0  0.42011  0.32920  0.25919  1.0000
  C   C4        1.0  0.07989  0.74081  0.67080  1.0000
  C   C5        1.0  0.34366  0.92483  0.36124  1.0000
  C   C6        1.0  0.15634  0.63875  0.07517  1.0000
  C   C7        1.0  0.65634  0.07517  0.63876  1.0000
  C   C8        1.0  0.84366  0.36125  0.92483  1.0000
  C   C9        1.0  0.28410  0.93212  0.45005  1.0000
  C   C10       1.0  0.21589  0.54995  0.06788  1.0000
  C   C11       1.0  0.71590  0.06787  0.54995  1.0000
  C   C12       1.0  0.78411  0.45005  0.93212  1.0000
  C   C13       1.0  0.20350  0.00679  0.47931  1.0000
  C   C14       1.0  0.29650  0.52069  0.99320  1.0000
  C   C15       1.0  0.79650  0.99321  0.52068  1.0000
  C   C16       1.0  0.70350  0.47931  0.00680  1.0000
  C   C17       1.0  0.18500  0.06904  0.42145  1.0000
  C   C18       1.0  0.31500  0.57856  0.93096  1.0000
  C   C19       1.0  0.81500  0.93096  0.57855  1.0000
  C   C20       1.0  0.68500  0.42144  0.06904  1.0000
  C   C21       1.0  0.24884  0.05693  0.33572  1.0000
  C   C22       1.0  0.25118  0.66427  0.94306  1.0000
  C   C23       1.0  0.75116  0.94307  0.66428  1.0000
  C   C24       1.0  0.74882  0.33573  0.05694  1.0000
  C   C25       1.0  0.30338  0.86357  0.50538  1.0000
  C   C26       1.0  0.19661  0.49462  0.13643  1.0000
  C   C27       1.0  0.69662  0.13643  0.49462  1.0000
  C   C28       1.0  0.80339  0.50538  0.86357  1.0000
  C   C29       1.0  0.42528  0.84691  0.32911  1.0000
  C   C30       1.0  0.07472  0.67089  0.15309  1.0000
  C   C31       1.0  0.57472  0.15309  0.67089  1.0000
  C   C32       1.0  0.92528  0.32911  0.84691  1.0000
  C   C33       1.0  0.43850  0.77787  0.38451  1.0000
  C   C34       1.0  0.06150  0.61549  0.22213  1.0000
  C   C35       1.0  0.56150  0.22213  0.61549  1.0000
  C   C36       1.0  0.93850  0.38451  0.77787  1.0000
  C   C37       1.0  0.51413  0.69997  0.34905  1.0000
  C   C38       1.0  0.98586  0.65095  0.30004  1.0000
  C   C39       1.0  0.48587  0.30003  0.65095  1.0000
  C   C40       1.0  0.01414  0.34905  0.69996  1.0000
  C   C41       1.0  0.57374  0.69453  0.26467  1.0000
  C   C42       1.0  0.92626  0.73532  0.30547  1.0000
  C   C43       1.0  0.42626  0.30547  0.73533  1.0000
  C   C44       1.0  0.07374  0.26468  0.69452  1.0000
  C   C45       1.0  0.55891  0.76884  0.21769  1.0000
  C   C46       1.0  0.94109  0.78230  0.23116  1.0000
  C   C47       1.0  0.44109  0.23116  0.78230  1.0000
  C   C48       1.0  0.05891  0.21770  0.76884  1.0000
  C   C49       1.0  0.37652  0.78820  0.47280  1.0000
  C   C50       1.0  0.12347  0.52721  0.21181  1.0000
  C   C51       1.0  0.62348  0.21180  0.52720  1.0000
  C   C52       1.0  0.87653  0.47279  0.78819  1.0000
  S   S1        1.0  0.65278  0.79594  0.89730  1.0000
  S   S2        1.0  0.84722  0.10270  0.20406  1.0000
  S   S3        1.0  0.34722  0.20406  0.10270  1.0000
  S   S4        1.0  0.15278  0.89730  0.79594  1.0000
  N   N1        1.0  0.48685  0.84202  0.24774  1.0000
  N   N2        1.0  0.01316  0.75225  0.15797  1.0000
  N   N3        1.0  0.51315  0.15798  0.75226  1.0000
  N   N4        1.0  0.98684  0.24775  0.84203  1.0000
  N   N5        1.0  0.32563  0.98761  0.30582  1.0000
  N   N6        1.0  0.17438  0.69417  0.01239  1.0000
  N   N7        1.0  0.67437  0.01239  0.69418  1.0000
  N   N8        1.0  0.82562  0.30583  0.98761  1.0000
  O   O1        1.0  0.52845  0.82073  0.92056  1.0000
  O   O2        1.0  0.97155  0.07945  0.17927  1.0000
  O   O3        1.0  0.47155  0.17927  0.07944  1.0000
  O   O4        1.0  0.02845  0.92056  0.82073  1.0000
  O   O5        1.0  0.72087  0.74834  0.96385  1.0000
  O   O6        1.0  0.77913  0.03616  0.25166  1.0000
  O   O7        1.0  0.27913  0.25166  0.03615  1.0000
  O   O8        1.0  0.22087  0.96384  0.74834  1.0000
  O   O9        1.0  0.74848  0.88711  0.88927  1.0000
  O   O10       1.0  0.75152  0.11073  0.11289  1.0000
  O   O11       1.0  0.25152  0.11289  0.11073  1.0000
  O   O12       1.0  0.24848  0.88927  0.88711  1.0000
  F   F1        1.0  0.48524  0.57497  0.72826  1.0000
  F   F2        1.0  0.01476  0.27174  0.42504  1.0000
  F   F3        1.0  0.51476  0.42503  0.27174  1.0000
  F   F4        1.0  0.98524  0.72826  0.57496  1.0000
  F   F5        1.0  0.68314  0.63619  0.70302  1.0000
  F   F6        1.0  0.81687  0.29698  0.36381  1.0000
  F   F7        1.0  0.31686  0.36381  0.29698  1.0000
  F   F8        1.0  0.18313  0.70302  0.63619  1.0000
  F   F9        1.0  0.51351  0.70369  0.66756  1.0000
  F   F10       1.0  0.98649  0.33244  0.29631  1.0000
  F   F11       1.0  0.48649  0.29631  0.33244  1.0000
  F   F12       1.0  0.01351  0.66756  0.70369  1.0000
