data_image0
_chemical_formula_structural       Zn4H40C48N16Cl8
_chemical_formula_sum              "Zn4 H40 C48 N16 Cl8"
_cell_length_a       9.04538
_cell_length_b       10.3449
_cell_length_c       14.5976
_cell_angle_alpha    90
_cell_angle_beta     90
_cell_angle_gamma    98.1309

_space_group_name_H-M_alt    "P 1"
_space_group_IT_number       1

loop_
  _space_group_symop_operation_xyz
  'x, y, z'

loop_
  _atom_site_type_symbol
  _atom_site_label
  _atom_site_symmetry_multiplicity
  _atom_site_fract_x
  _atom_site_fract_y
  _atom_site_fract_z
  _atom_site_occupancy
  Zn  Zn1       1.0  0.24416  0.26264  0.61486  1.0000
  Zn  Zn2       1.0  0.25584  0.23735  0.11486  1.0000
  Zn  Zn3       1.0  0.75584  0.73736  0.38514  1.0000
  Zn  Zn4       1.0  0.74416  0.76265  0.88514  1.0000
  H   H1        1.0  0.04512  0.12058  0.75858  1.0000
  H   H2        1.0  0.45488  0.37942  0.25858  1.0000
  H   H3        1.0  0.95488  0.87942  0.24142  1.0000
  H   H4        1.0  0.54512  0.62058  0.74142  1.0000
  H   H5        1.0  0.97045  0.16467  0.91959  1.0000
  H   H6        1.0  0.52955  0.33533  0.41959  1.0000
  H   H7        1.0  0.02955  0.83534  0.08041  1.0000
  H   H8        1.0  0.47045  0.66467  0.58041  1.0000
  H   H9        1.0  0.04943  0.38801  0.98547  1.0000
  H   H10       1.0  0.45057  0.11199  0.48547  1.0000
  H   H11       1.0  0.95057  0.61199  0.01453  1.0000
  H   H12       1.0  0.54943  0.88801  0.51453  1.0000
  H   H13       1.0  0.26159  0.49939  0.72715  1.0000
  H   H14       1.0  0.23841  0.00060  0.22716  1.0000
  H   H15       1.0  0.73841  0.50061  0.27285  1.0000
  H   H16       1.0  0.76159  0.99940  0.77284  1.0000
  H   H17       1.0  0.18454  0.61051  0.96988  1.0000
  H   H18       1.0  0.31545  0.88949  0.46988  1.0000
  H   H19       1.0  0.81546  0.38949  0.03012  1.0000
  H   H20       1.0  0.68455  0.11051  0.53012  1.0000
  H   H21       1.0  0.33637  0.88951  0.76523  1.0000
  H   H22       1.0  0.16363  0.61049  0.26523  1.0000
  H   H23       1.0  0.66363  0.11049  0.23477  1.0000
  H   H24       1.0  0.83637  0.38951  0.73477  1.0000
  H   H25       1.0  0.46763  0.37584  0.97994  1.0000
  H   H26       1.0  0.03237  0.12416  0.47994  1.0000
  H   H27       1.0  0.53237  0.62416  0.02006  1.0000
  H   H28       1.0  0.96763  0.87584  0.52006  1.0000
  H   H29       1.0  0.55230  0.33614  0.82081  1.0000
  H   H30       1.0  0.94770  0.16386  0.32081  1.0000
  H   H31       1.0  0.44771  0.66387  0.17919  1.0000
  H   H32       1.0  0.05229  0.83613  0.67919  1.0000
  H   H33       1.0  0.48508  0.11293  0.75256  1.0000
  H   H34       1.0  0.01492  0.38707  0.25256  1.0000
  H   H35       1.0  0.51492  0.88707  0.24744  1.0000
  H   H36       1.0  0.98508  0.61293  0.74744  1.0000
  H   H37       1.0  0.26112  0.99244  0.00592  1.0000
  H   H38       1.0  0.23888  0.50756  0.50592  1.0000
  H   H39       1.0  0.73888  0.00756  0.99408  1.0000
  H   H40       1.0  0.76112  0.49244  0.49408  1.0000
  C   C1        1.0  0.07302  0.21683  0.78937  1.0000
  C   C2        1.0  0.42699  0.28317  0.28938  1.0000
  C   C3        1.0  0.92699  0.78317  0.21063  1.0000
  C   C4        1.0  0.57302  0.71683  0.71062  1.0000
  C   C5        1.0  0.03168  0.24246  0.87859  1.0000
  C   C6        1.0  0.46832  0.25754  0.37859  1.0000
  C   C7        1.0  0.96832  0.75754  0.12141  1.0000
  C   C8        1.0  0.53168  0.74246  0.62141  1.0000
  C   C9        1.0  0.07529  0.36637  0.91473  1.0000
  C   C10       1.0  0.42471  0.13363  0.41473  1.0000
  C   C11       1.0  0.92471  0.63363  0.08527  1.0000
  C   C12       1.0  0.57529  0.86637  0.58527  1.0000
  C   C13       1.0  0.15828  0.46305  0.86060  1.0000
  C   C14       1.0  0.34172  0.03695  0.36060  1.0000
  C   C15       1.0  0.84172  0.53695  0.13940  1.0000
  C   C16       1.0  0.65827  0.96305  0.63940  1.0000
  C   C17       1.0  0.19464  0.42906  0.77137  1.0000
  C   C18       1.0  0.30536  0.07094  0.27137  1.0000
  C   C19       1.0  0.80536  0.57094  0.22863  1.0000
  C   C20       1.0  0.69464  0.92906  0.72863  1.0000
  C   C21       1.0  0.20705  0.59304  0.89744  1.0000
  C   C22       1.0  0.29295  0.90696  0.39744  1.0000
  C   C23       1.0  0.79295  0.40696  0.10256  1.0000
  C   C24       1.0  0.70705  0.09304  0.60256  1.0000
  C   C25       1.0  0.34052  0.90077  0.84007  1.0000
  C   C26       1.0  0.15948  0.59923  0.34007  1.0000
  C   C27       1.0  0.65948  0.09923  0.15993  1.0000
  C   C28       1.0  0.84051  0.40077  0.65993  1.0000
  C   C29       1.0  0.44334  0.27978  0.94830  1.0000
  C   C30       1.0  0.05666  0.22022  0.44830  1.0000
  C   C31       1.0  0.55667  0.72022  0.05170  1.0000
  C   C32       1.0  0.94333  0.77978  0.55170  1.0000
  C   C33       1.0  0.49000  0.25683  0.85983  1.0000
  C   C34       1.0  0.01000  0.24317  0.35983  1.0000
  C   C35       1.0  0.51000  0.74317  0.14017  1.0000
  C   C36       1.0  0.99000  0.75683  0.64017  1.0000
  C   C37       1.0  0.45400  0.13252  0.82279  1.0000
  C   C38       1.0  0.04600  0.36748  0.32279  1.0000
  C   C39       1.0  0.54600  0.86748  0.17721  1.0000
  C   C40       1.0  0.95400  0.63252  0.67721  1.0000
  C   C41       1.0  0.37696  0.03243  0.87671  1.0000
  C   C42       1.0  0.12304  0.46757  0.37671  1.0000
  C   C43       1.0  0.62304  0.96757  0.12329  1.0000
  C   C44       1.0  0.87696  0.53243  0.62329  1.0000
  C   C45       1.0  0.33047  0.06476  0.96444  1.0000
  C   C46       1.0  0.16953  0.43524  0.46444  1.0000
  C   C47       1.0  0.66953  0.93524  0.03556  1.0000
  C   C48       1.0  0.83047  0.56476  0.53556  1.0000
  N   N1        1.0  0.15366  0.30900  0.73718  1.0000
  N   N2        1.0  0.34634  0.19100  0.23718  1.0000
  N   N3        1.0  0.84634  0.69100  0.26282  1.0000
  N   N4        1.0  0.65366  0.80900  0.76282  1.0000
  N   N5        1.0  0.27522  0.68524  0.84660  1.0000
  N   N6        1.0  0.22478  0.81475  0.34660  1.0000
  N   N7        1.0  0.72478  0.31476  0.15340  1.0000
  N   N8        1.0  0.77522  0.18525  0.65340  1.0000
  N   N9        1.0  0.31191  0.80123  0.89397  1.0000
  N   N10       1.0  0.18809  0.69877  0.39397  1.0000
  N   N11       1.0  0.68809  0.19877  0.10603  1.0000
  N   N12       1.0  0.81191  0.30123  0.60603  1.0000
  N   N13       1.0  0.36161  0.18602  0.99867  1.0000
  N   N14       1.0  0.13839  0.31398  0.49867  1.0000
  N   N15       1.0  0.63839  0.81398  0.00133  1.0000
  N   N16       1.0  0.86160  0.68602  0.50133  1.0000
  Cl  Cl1       1.0  0.46585  0.38922  0.61456  1.0000
  Cl  Cl2       1.0  0.03415  0.11078  0.11456  1.0000
  Cl  Cl3       1.0  0.53415  0.61077  0.38544  1.0000
  Cl  Cl4       1.0  0.96585  0.88922  0.88544  1.0000
  Cl  Cl5       1.0  0.23107  0.04437  0.61656  1.0000
  Cl  Cl6       1.0  0.26893  0.45563  0.11656  1.0000
  Cl  Cl7       1.0  0.76893  0.95563  0.38344  1.0000
  Cl  Cl8       1.0  0.73107  0.54437  0.88344  1.0000
