data_image0
_chemical_formula_structural       Zn4H40C48N16Cl8
_chemical_formula_sum              "Zn4 H40 C48 N16 Cl8"
_cell_length_a       7.9241
_cell_length_b       8.17494
_cell_length_c       21.4716
_cell_angle_alpha    90
_cell_angle_beta     90
_cell_angle_gamma    90

_space_group_name_H-M_alt    "P 1"
_space_group_IT_number       1

loop_
  _space_group_symop_operation_xyz
  'x, y, z'

loop_
  _atom_site_type_symbol
  _atom_site_label
  _atom_site_symmetry_multiplicity
  _atom_site_fract_x
  _atom_site_fract_y
  _atom_site_fract_z
  _atom_site_occupancy
  Zn  Zn1       1.0  0.50637  0.70938  0.62033  1.0000
  Zn  Zn2       1.0  0.49363  0.20938  0.37967  1.0000
  Zn  Zn3       1.0  0.00637  0.70938  0.87967  1.0000
  Zn  Zn4       1.0  0.99363  0.20938  0.12033  1.0000
  H   H1        1.0  0.42794  0.38804  0.56679  1.0000
  H   H2        1.0  0.57206  0.88804  0.43321  1.0000
  H   H3        1.0  0.92794  0.38804  0.93321  1.0000
  H   H4        1.0  0.07206  0.88804  0.06679  1.0000
  H   H5        1.0  0.30299  0.12443  0.60146  1.0000
  H   H6        1.0  0.69702  0.62443  0.39854  1.0000
  H   H7        1.0  0.80298  0.12443  0.89854  1.0000
  H   H8        1.0  0.19701  0.62443  0.10146  1.0000
  H   H9        1.0  0.25450  0.07919  0.71673  1.0000
  H   H10       1.0  0.74549  0.57919  0.28327  1.0000
  H   H11       1.0  0.75451  0.07919  0.78327  1.0000
  H   H12       1.0  0.24549  0.57919  0.21673  1.0000
  H   H13       1.0  0.46042  0.56137  0.74836  1.0000
  H   H14       1.0  0.53958  0.06137  0.25164  1.0000
  H   H15       1.0  0.96042  0.56137  0.75164  1.0000
  H   H16       1.0  0.03958  0.06137  0.24836  1.0000
  H   H17       1.0  0.25177  0.18867  0.82316  1.0000
  H   H18       1.0  0.74823  0.68867  0.17684  1.0000
  H   H19       1.0  0.75177  0.18867  0.67684  1.0000
  H   H20       1.0  0.24823  0.68867  0.32316  1.0000
  H   H21       1.0  0.55650  0.50004  0.93783  1.0000
  H   H22       1.0  0.44350  0.00004  0.06217  1.0000
  H   H23       1.0  0.05650  0.50004  0.56217  1.0000
  H   H24       1.0  0.94350  0.00004  0.43783  1.0000
  H   H25       1.0  0.31647  0.28825  0.18750  1.0000
  H   H26       1.0  0.68353  0.78825  0.81250  1.0000
  H   H27       1.0  0.81647  0.28824  0.31250  1.0000
  H   H28       1.0  0.18353  0.78825  0.68750  1.0000
  H   H29       1.0  0.59631  0.41112  0.16206  1.0000
  H   H30       1.0  0.40369  0.91112  0.83794  1.0000
  H   H31       1.0  0.09631  0.41112  0.33794  1.0000
  H   H32       1.0  0.90369  0.91112  0.66206  1.0000
  H   H33       1.0  0.66110  0.48196  0.05090  1.0000
  H   H34       1.0  0.33890  0.98196  0.94909  1.0000
  H   H35       1.0  0.16110  0.48196  0.44909  1.0000
  H   H36       1.0  0.83890  0.98196  0.55091  1.0000
  H   H37       1.0  0.17309  0.28489  0.00140  1.0000
  H   H38       1.0  0.82691  0.78490  0.99860  1.0000
  H   H39       1.0  0.67309  0.28490  0.49860  1.0000
  H   H40       1.0  0.32691  0.78489  0.50140  1.0000
  C   C1        1.0  0.40523  0.36363  0.61604  1.0000
  C   C2        1.0  0.59477  0.86363  0.38396  1.0000
  C   C3        1.0  0.90523  0.36363  0.88396  1.0000
  C   C4        1.0  0.09477  0.86363  0.11604  1.0000
  C   C5        1.0  0.33563  0.21680  0.63590  1.0000
  C   C6        1.0  0.66437  0.71680  0.36410  1.0000
  C   C7        1.0  0.83563  0.21680  0.86410  1.0000
  C   C8        1.0  0.16437  0.71680  0.13590  1.0000
  C   C9        1.0  0.30965  0.19244  0.69932  1.0000
  C   C10       1.0  0.69035  0.69244  0.30068  1.0000
  C   C11       1.0  0.80965  0.19244  0.80068  1.0000
  C   C12       1.0  0.19035  0.69244  0.19932  1.0000
  C   C13       1.0  0.35778  0.31471  0.74166  1.0000
  C   C14       1.0  0.64222  0.81470  0.25834  1.0000
  C   C15       1.0  0.85778  0.31471  0.75834  1.0000
  C   C16       1.0  0.14222  0.81471  0.24166  1.0000
  C   C17       1.0  0.42531  0.46045  0.71772  1.0000
  C   C18       1.0  0.57469  0.96045  0.28228  1.0000
  C   C19       1.0  0.92531  0.46045  0.78228  1.0000
  C   C20       1.0  0.07469  0.96045  0.21772  1.0000
  C   C21       1.0  0.33568  0.28869  0.80825  1.0000
  C   C22       1.0  0.66432  0.78869  0.19175  1.0000
  C   C23       1.0  0.83568  0.28869  0.69175  1.0000
  C   C24       1.0  0.16432  0.78869  0.30825  1.0000
  C   C25       1.0  0.45842  0.41141  0.95095  1.0000
  C   C26       1.0  0.54158  0.91141  0.04905  1.0000
  C   C27       1.0  0.95842  0.41141  0.54905  1.0000
  C   C28       1.0  0.04158  0.91141  0.45095  1.0000
  C   C29       1.0  0.35073  0.31680  0.13950  1.0000
  C   C30       1.0  0.64928  0.81680  0.86050  1.0000
  C   C31       1.0  0.85072  0.31680  0.36050  1.0000
  C   C32       1.0  0.14928  0.81680  0.63950  1.0000
  C   C33       1.0  0.50516  0.38744  0.12517  1.0000
  C   C34       1.0  0.49484  0.88744  0.87483  1.0000
  C   C35       1.0  0.00516  0.38744  0.37483  1.0000
  C   C36       1.0  0.99484  0.88744  0.62517  1.0000
  C   C37       1.0  0.54198  0.42393  0.06318  1.0000
  C   C38       1.0  0.45802  0.92393  0.93682  1.0000
  C   C39       1.0  0.04198  0.42393  0.43682  1.0000
  C   C40       1.0  0.95802  0.92393  0.56318  1.0000
  C   C41       1.0  0.42518  0.38211  0.01678  1.0000
  C   C42       1.0  0.57482  0.88211  0.98322  1.0000
  C   C43       1.0  0.92518  0.38211  0.48322  1.0000
  C   C44       1.0  0.07482  0.88211  0.51678  1.0000
  C   C45       1.0  0.27094  0.31343  0.03537  1.0000
  C   C46       1.0  0.72906  0.81343  0.96463  1.0000
  C   C47       1.0  0.77094  0.31343  0.46463  1.0000
  C   C48       1.0  0.22906  0.81343  0.53537  1.0000
  N   N1        1.0  0.44679  0.48387  0.65645  1.0000
  N   N2        1.0  0.55321  0.98387  0.34355  1.0000
  N   N3        1.0  0.94679  0.48387  0.84355  1.0000
  N   N4        1.0  0.05320  0.98387  0.15645  1.0000
  N   N5        1.0  0.41379  0.37824  0.84882  1.0000
  N   N6        1.0  0.58621  0.87824  0.15118  1.0000
  N   N7        1.0  0.91379  0.37824  0.65118  1.0000
  N   N8        1.0  0.08621  0.87824  0.34882  1.0000
  N   N9        1.0  0.37280  0.33321  0.90921  1.0000
  N   N10       1.0  0.62720  0.83321  0.09079  1.0000
  N   N11       1.0  0.87280  0.33321  0.59079  1.0000
  N   N12       1.0  0.12720  0.83321  0.40921  1.0000
  N   N13       1.0  0.23404  0.28420  0.09523  1.0000
  N   N14       1.0  0.76596  0.78420  0.90477  1.0000
  N   N15       1.0  0.73404  0.28420  0.40477  1.0000
  N   N16       1.0  0.26596  0.78420  0.59523  1.0000
  Cl  Cl1       1.0  0.58957  0.86680  0.69958  1.0000
  Cl  Cl2       1.0  0.41043  0.36680  0.30042  1.0000
  Cl  Cl3       1.0  0.08957  0.86680  0.80042  1.0000
  Cl  Cl4       1.0  0.91043  0.36680  0.19958  1.0000
  Cl  Cl5       1.0  0.63920  0.68007  0.52997  1.0000
  Cl  Cl6       1.0  0.36080  0.18007  0.47003  1.0000
  Cl  Cl7       1.0  0.13920  0.68007  0.97003  1.0000
  Cl  Cl8       1.0  0.86080  0.18007  0.02997  1.0000
