data_image0
_chemical_formula_structural       CoH14C13N2Cl2
_chemical_formula_sum              "Co1 H14 C13 N2 Cl2"
_cell_length_a       4.34225
_cell_length_b       8.8463
_cell_length_c       8.8463
_cell_angle_alpha    81.2059
_cell_angle_beta     75.714
_cell_angle_gamma    75.7144

_space_group_name_H-M_alt    "P 1"
_space_group_IT_number       1

loop_
  _space_group_symop_operation_xyz
  'x, y, z'

loop_
  _atom_site_type_symbol
  _atom_site_label
  _atom_site_symmetry_multiplicity
  _atom_site_fract_x
  _atom_site_fract_y
  _atom_site_fract_z
  _atom_site_occupancy
  Co  Co1       1.0  0.21205  0.00004  0.00004  1.0000
  H   H1        1.0  0.94442  0.79884  0.94205  1.0000
  H   H2        1.0  0.94443  0.94204  0.79884  1.0000
  H   H3        1.0  0.68513  0.05869  0.20190  1.0000
  H   H4        1.0  0.68513  0.20190  0.05870  1.0000
  H   H5        1.0  0.40618  0.95109  0.57695  1.0000
  H   H6        1.0  0.40618  0.57696  0.95109  1.0000
  H   H7        1.0  0.93505  0.42298  0.04896  1.0000
  H   H8        1.0  0.93504  0.04896  0.42298  1.0000
  H   H9        1.0  0.90628  0.79347  0.42078  1.0000
  H   H10       1.0  0.90629  0.42078  0.79347  1.0000
  H   H11       1.0  0.12233  0.57871  0.20620  1.0000
  H   H12       1.0  0.12233  0.20620  0.57871  1.0000
  H   H13       1.0  0.38912  0.42250  0.57652  1.0000
  H   H14       1.0  0.38912  0.57652  0.42250  1.0000
  C   C1        1.0  0.94371  0.59756  0.59756  1.0000
  C   C2        1.0  0.13906  0.40215  0.40215  1.0000
  C   C3        1.0  0.37365  0.77379  0.77378  1.0000
  C   C4        1.0  0.92160  0.22642  0.22642  1.0000
  C   C5        1.0  0.51632  0.83494  0.62488  1.0000
  C   C6        1.0  0.51633  0.62488  0.83495  1.0000
  C   C7        1.0  0.97664  0.37515  0.16509  1.0000
  C   C8        1.0  0.97664  0.16508  0.37515  1.0000
  C   C9        1.0  0.79794  0.74685  0.53804  1.0000
  C   C10       1.0  0.79794  0.53804  0.74684  1.0000
  C   C11       1.0  0.08333  0.46181  0.25295  1.0000
  C   C12       1.0  0.08332  0.25294  0.46181  1.0000
  C   C13       1.0  0.23996  0.49973  0.49972  1.0000
  N   N1        1.0  0.09033  0.86569  0.86569  1.0000
  N   N2        1.0  0.82171  0.13473  0.13473  1.0000
  Cl  Cl1       1.0  0.47957  0.16645  0.83410  1.0000
  Cl  Cl2       1.0  0.47956  0.83411  0.16645  1.0000
