data_image0
_chemical_formula_structural       Cd4H56C52N8Cl8
_chemical_formula_sum              "Cd4 H56 C52 N8 Cl8"
_cell_length_a       8.58381
_cell_length_b       11.9266
_cell_length_c       13.691
_cell_angle_alpha    85.3887
_cell_angle_beta     77.1856
_cell_angle_gamma    82.4688

_space_group_name_H-M_alt    "P 1"
_space_group_IT_number       1

loop_
  _space_group_symop_operation_xyz
  'x, y, z'

loop_
  _atom_site_type_symbol
  _atom_site_label
  _atom_site_symmetry_multiplicity
  _atom_site_fract_x
  _atom_site_fract_y
  _atom_site_fract_z
  _atom_site_occupancy
  Cd  Cd1       1.0  0.86027  0.11623  0.06665  1.0000
  Cd  Cd2       1.0  0.13973  0.88377  0.93335  1.0000
  Cd  Cd3       1.0  0.91072  0.39939  0.94307  1.0000
  Cd  Cd4       1.0  0.08928  0.60061  0.05693  1.0000
  H   H1        1.0  0.75297  0.29333  0.19405  1.0000
  H   H2        1.0  0.24703  0.70667  0.80595  1.0000
  H   H3        1.0  0.61154  0.20757  0.21520  1.0000
  H   H4        1.0  0.38846  0.79243  0.78480  1.0000
  H   H5        1.0  0.62324  0.03744  0.33746  1.0000
  H   H6        1.0  0.37677  0.96256  0.66254  1.0000
  H   H7        1.0  0.67212  0.98633  0.50827  1.0000
  H   H8        1.0  0.32788  0.01367  0.49173  1.0000
  H   H9        1.0  0.95562  0.26358  0.48212  1.0000
  H   H10       1.0  0.04437  0.73642  0.51789  1.0000
  H   H11       1.0  0.90243  0.31738  0.31212  1.0000
  H   H12       1.0  0.09757  0.68262  0.68788  1.0000
  H   H13       1.0  0.59120  0.23376  0.69110  1.0000
  H   H14       1.0  0.40881  0.76623  0.30890  1.0000
  H   H15       1.0  0.37332  0.19779  0.83803  1.0000
  H   H16       1.0  0.62668  0.80221  0.16197  1.0000
  H   H17       1.0  0.58601  0.85191  0.86526  1.0000
  H   H18       1.0  0.41398  0.14809  0.13474  1.0000
  H   H19       1.0  0.27308  0.07381  0.97273  1.0000
  H   H20       1.0  0.72692  0.92620  0.02727  1.0000
  H   H21       1.0  0.37927  0.95300  0.00180  1.0000
  H   H22       1.0  0.62072  0.04700  0.99820  1.0000
  H   H23       1.0  0.88991  0.23939  0.81034  1.0000
  H   H24       1.0  0.11009  0.76062  0.18966  1.0000
  H   H25       1.0  0.80004  0.36320  0.77252  1.0000
  H   H26       1.0  0.19996  0.63681  0.22748  1.0000
  H   H27       1.0  0.15219  0.16303  0.73391  1.0000
  H   H28       1.0  0.84781  0.83697  0.26609  1.0000
  H   H29       1.0  0.38897  0.18046  0.59376  1.0000
  H   H30       1.0  0.61103  0.81954  0.40624  1.0000
  H   H31       1.0  0.18825  0.51668  0.51608  1.0000
  H   H32       1.0  0.81176  0.48332  0.48392  1.0000
  H   H33       1.0  0.95216  0.49993  0.65578  1.0000
  H   H34       1.0  0.04784  0.50007  0.34422  1.0000
  H   H35       1.0  0.53150  0.27866  0.45979  1.0000
  H   H36       1.0  0.46850  0.72134  0.54020  1.0000
  H   H37       1.0  0.52354  0.42424  0.47321  1.0000
  H   H38       1.0  0.47647  0.57576  0.52679  1.0000
  H   H39       1.0  0.55964  0.51735  0.31107  1.0000
  H   H40       1.0  0.44036  0.48266  0.68893  1.0000
  H   H41       1.0  0.23799  0.37483  0.05530  1.0000
  H   H42       1.0  0.76201  0.62517  0.94470  1.0000
  H   H43       1.0  0.37981  0.46077  0.01847  1.0000
  H   H44       1.0  0.62019  0.53923  0.98153  1.0000
  H   H45       1.0  0.48941  0.55249  0.14508  1.0000
  H   H46       1.0  0.51059  0.44751  0.85492  1.0000
  H   H47       1.0  0.17568  0.29029  0.21608  1.0000
  H   H48       1.0  0.82432  0.70971  0.78392  1.0000
  H   H49       1.0  0.24497  0.25592  0.38387  1.0000
  H   H50       1.0  0.75503  0.74408  0.61613  1.0000
  H   H51       1.0  0.80602  0.88991  0.71909  1.0000
  H   H52       1.0  0.19397  0.11008  0.28091  1.0000
  H   H53       1.0  0.91654  0.15374  0.63125  1.0000
  H   H54       1.0  0.08346  0.84626  0.36875  1.0000
  H   H55       1.0  0.94365  0.01102  0.60321  1.0000
  H   H56       1.0  0.05635  0.98898  0.39679  1.0000
  C   C1        1.0  0.76079  0.18043  0.31360  1.0000
  C   C2        1.0  0.23921  0.81957  0.68640  1.0000
  C   C3        1.0  0.69616  0.08710  0.36939  1.0000
  C   C4        1.0  0.30385  0.91289  0.63061  1.0000
  C   C5        1.0  0.72353  0.05898  0.46550  1.0000
  C   C6        1.0  0.27648  0.94102  0.53450  1.0000
  C   C7        1.0  0.81732  0.12134  0.50798  1.0000
  C   C8        1.0  0.18268  0.87866  0.49202  1.0000
  C   C9        1.0  0.88270  0.21343  0.45059  1.0000
  C   C10       1.0  0.11729  0.78657  0.54941  1.0000
  C   C11       1.0  0.85521  0.24315  0.35453  1.0000
  C   C12       1.0  0.14478  0.75685  0.64547  1.0000
  C   C13       1.0  0.59040  0.14931  0.72839  1.0000
  C   C14       1.0  0.40960  0.85068  0.27161  1.0000
  C   C15       1.0  0.46711  0.12972  0.81092  1.0000
  C   C16       1.0  0.53289  0.87028  0.18908  1.0000
  C   C17       1.0  0.46505  0.02234  0.86073  1.0000
  C   C18       1.0  0.53495  0.97766  0.13927  1.0000
  C   C19       1.0  0.58610  0.93525  0.82587  1.0000
  C   C20       1.0  0.41390  0.06475  0.17413  1.0000
  C   C21       1.0  0.03790  0.33040  0.70405  1.0000
  C   C22       1.0  0.96210  0.66961  0.29595  1.0000
  C   C23       1.0  0.16126  0.24074  0.68632  1.0000
  C   C24       1.0  0.83874  0.75926  0.31368  1.0000
  C   C25       1.0  0.29362  0.25106  0.60752  1.0000
  C   C26       1.0  0.70638  0.74894  0.39248  1.0000
  C   C27       1.0  0.30752  0.35016  0.54593  1.0000
  C   C28       1.0  0.69248  0.64984  0.45407  1.0000
  C   C29       1.0  0.18200  0.43909  0.56415  1.0000
  C   C30       1.0  0.81800  0.56091  0.43585  1.0000
  C   C31       1.0  0.04841  0.42984  0.64215  1.0000
  C   C32       1.0  0.95159  0.57016  0.35785  1.0000
  C   C33       1.0  0.45172  0.35887  0.46076  1.0000
  C   C34       1.0  0.54828  0.64113  0.53923  1.0000
  C   C35       1.0  0.47375  0.46772  0.29158  1.0000
  C   C36       1.0  0.52625  0.53229  0.70842  1.0000
  C   C37       1.0  0.43512  0.48734  0.19732  1.0000
  C   C38       1.0  0.56488  0.51266  0.80268  1.0000
  C   C39       1.0  0.32917  0.42236  0.16932  1.0000
  C   C40       1.0  0.67083  0.57764  0.83068  1.0000
  C   C41       1.0  0.25972  0.33971  0.23773  1.0000
  C   C42       1.0  0.74028  0.66029  0.76227  1.0000
  C   C43       1.0  0.29915  0.32094  0.33140  1.0000
  C   C44       1.0  0.70085  0.67906  0.66860  1.0000
  C   C45       1.0  0.70869  0.95667  0.74354  1.0000
  C   C46       1.0  0.29130  0.04332  0.25646  1.0000
  C   C47       1.0  0.71398  0.06367  0.69360  1.0000
  C   C48       1.0  0.28602  0.93632  0.30640  1.0000
  C   C49       1.0  0.85510  0.08714  0.60982  1.0000
  C   C50       1.0  0.14490  0.91286  0.39018  1.0000
  C   C51       1.0  0.40751  0.38379  0.35978  1.0000
  C   C52       1.0  0.59249  0.61621  0.64022  1.0000
  N   N1        1.0  0.72939  0.21182  0.21644  1.0000
  N   N2        1.0  0.27061  0.78818  0.78356  1.0000
  N   N3        1.0  0.33976  0.00091  0.94478  1.0000
  N   N4        1.0  0.66024  0.99909  0.05522  1.0000
  N   N5        1.0  0.90556  0.32186  0.78672  1.0000
  N   N6        1.0  0.09444  0.67814  0.21328  1.0000
  N   N7        1.0  0.28591  0.44222  0.07493  1.0000
  N   N8        1.0  0.71409  0.55778  0.92507  1.0000
  Cl  Cl1       1.0  0.10388  0.23876  0.01602  1.0000
  Cl  Cl2       1.0  0.89612  0.76124  0.98398  1.0000
  Cl  Cl3       1.0  0.04186  0.95063  0.12773  1.0000
  Cl  Cl4       1.0  0.95814  0.04937  0.87227  1.0000
  Cl  Cl5       1.0  0.65652  0.28195  0.99810  1.0000
  Cl  Cl6       1.0  0.34348  0.71806  0.00190  1.0000
  Cl  Cl7       1.0  0.85649  0.47954  0.12967  1.0000
  Cl  Cl8       1.0  0.14351  0.52047  0.87033  1.0000
