data_image0
_chemical_formula_structural       Ag4H56C52N12O12
_chemical_formula_sum              "Ag4 H56 C52 N12 O12"
_cell_length_a       4.41654
_cell_length_b       11.7404
_cell_length_c       25.028
_cell_angle_alpha    90
_cell_angle_beta     90
_cell_angle_gamma    90

_space_group_name_H-M_alt    "P 1"
_space_group_IT_number       1

loop_
  _space_group_symop_operation_xyz
  'x, y, z'

loop_
  _atom_site_type_symbol
  _atom_site_label
  _atom_site_symmetry_multiplicity
  _atom_site_fract_x
  _atom_site_fract_y
  _atom_site_fract_z
  _atom_site_occupancy
  Ag  Ag1       1.0  0.00000  0.09337  0.25000  1.0000
  Ag  Ag2       1.0  0.00000  0.40663  0.75000  1.0000
  Ag  Ag3       1.0  0.00000  0.90664  0.75000  1.0000
  Ag  Ag4       1.0  0.00000  0.59336  0.25000  1.0000
  H   H1        1.0  0.65306  0.06144  0.16344  1.0000
  H   H2        1.0  0.34694  0.06144  0.33656  1.0000
  H   H3        1.0  0.34694  0.43856  0.66344  1.0000
  H   H4        1.0  0.65306  0.43856  0.83656  1.0000
  H   H5        1.0  0.34694  0.93856  0.83656  1.0000
  H   H6        1.0  0.65306  0.93856  0.66344  1.0000
  H   H7        1.0  0.65306  0.56144  0.33656  1.0000
  H   H8        1.0  0.34694  0.56144  0.16344  1.0000
  H   H9        1.0  0.66332  0.19629  0.18433  1.0000
  H   H10       1.0  0.33668  0.19629  0.31567  1.0000
  H   H11       1.0  0.33668  0.30371  0.68433  1.0000
  H   H12       1.0  0.66333  0.30371  0.81567  1.0000
  H   H13       1.0  0.33667  0.80371  0.81567  1.0000
  H   H14       1.0  0.66333  0.80371  0.68433  1.0000
  H   H15       1.0  0.66333  0.69629  0.31567  1.0000
  H   H16       1.0  0.33667  0.69629  0.18433  1.0000
  H   H17       1.0  0.06815  0.32744  0.15926  1.0000
  H   H18       1.0  0.93185  0.32744  0.34074  1.0000
  H   H19       1.0  0.93185  0.17256  0.65926  1.0000
  H   H20       1.0  0.06815  0.17256  0.84074  1.0000
  H   H21       1.0  0.93185  0.67256  0.84074  1.0000
  H   H22       1.0  0.06815  0.67256  0.65926  1.0000
  H   H23       1.0  0.06815  0.82744  0.34074  1.0000
  H   H24       1.0  0.93185  0.82744  0.15926  1.0000
  H   H25       1.0  0.98159  0.99083  0.09284  1.0000
  H   H26       1.0  0.01841  0.99083  0.40716  1.0000
  H   H27       1.0  0.01841  0.50917  0.59284  1.0000
  H   H28       1.0  0.98159  0.50917  0.90716  1.0000
  H   H29       1.0  0.01841  0.00917  0.90716  1.0000
  H   H30       1.0  0.98159  0.00917  0.59284  1.0000
  H   H31       1.0  0.98159  0.49083  0.40716  1.0000
  H   H32       1.0  0.01841  0.49083  0.09284  1.0000
  H   H33       1.0  0.74293  0.17922  0.98840  1.0000
  H   H34       1.0  0.25707  0.17922  0.51160  1.0000
  H   H35       1.0  0.25707  0.32078  0.48840  1.0000
  H   H36       1.0  0.74293  0.32078  0.01160  1.0000
  H   H37       1.0  0.25707  0.82078  0.01160  1.0000
  H   H38       1.0  0.74293  0.82078  0.48840  1.0000
  H   H39       1.0  0.74293  0.67922  0.51160  1.0000
  H   H40       1.0  0.25707  0.67922  0.98840  1.0000
  H   H41       1.0  0.32301  0.04428  0.01903  1.0000
  H   H42       1.0  0.67699  0.04428  0.48097  1.0000
  H   H43       1.0  0.67699  0.45572  0.51903  1.0000
  H   H44       1.0  0.32301  0.45572  0.98097  1.0000
  H   H45       1.0  0.67699  0.95572  0.98097  1.0000
  H   H46       1.0  0.32301  0.95572  0.51903  1.0000
  H   H47       1.0  0.32301  0.54428  0.48097  1.0000
  H   H48       1.0  0.67699  0.54428  0.01903  1.0000
  H   H49       1.0  0.43054  0.37800  0.08691  1.0000
  H   H50       1.0  0.56946  0.37800  0.41309  1.0000
  H   H51       1.0  0.56946  0.12200  0.58691  1.0000
  H   H52       1.0  0.43054  0.12200  0.91309  1.0000
  H   H53       1.0  0.56946  0.62200  0.91309  1.0000
  H   H54       1.0  0.43054  0.62200  0.58691  1.0000
  H   H55       1.0  0.43054  0.87800  0.41309  1.0000
  H   H56       1.0  0.56946  0.87800  0.08691  1.0000
  C   C1        1.0  0.99678  0.15671  0.13022  1.0000
  C   C2        1.0  0.00322  0.15671  0.36978  1.0000
  C   C3        1.0  0.00322  0.34329  0.63022  1.0000
  C   C4        1.0  0.99678  0.34329  0.86978  1.0000
  C   C5        1.0  0.00322  0.84329  0.86978  1.0000
  C   C6        1.0  0.99678  0.84329  0.63022  1.0000
  C   C7        1.0  0.99678  0.65671  0.36978  1.0000
  C   C8        1.0  0.00322  0.65671  0.13022  1.0000
  C   C9        1.0  0.12660  0.26550  0.12843  1.0000
  C   C10       1.0  0.87340  0.26550  0.37157  1.0000
  C   C11       1.0  0.87340  0.23450  0.62843  1.0000
  C   C12       1.0  0.12660  0.23450  0.87157  1.0000
  C   C13       1.0  0.87340  0.73450  0.87157  1.0000
  C   C14       1.0  0.12660  0.73450  0.62843  1.0000
  C   C15       1.0  0.12660  0.76550  0.37157  1.0000
  C   C16       1.0  0.87340  0.76550  0.12843  1.0000
  C   C17       1.0  0.39969  0.21567  0.04706  1.0000
  C   C18       1.0  0.60031  0.21567  0.45294  1.0000
  C   C19       1.0  0.60031  0.28433  0.54706  1.0000
  C   C20       1.0  0.39969  0.28433  0.95294  1.0000
  C   C21       1.0  0.60031  0.78433  0.95294  1.0000
  C   C22       1.0  0.39969  0.78433  0.54706  1.0000
  C   C23       1.0  0.39969  0.71567  0.45294  1.0000
  C   C24       1.0  0.60031  0.71567  0.04706  1.0000
  C   C25       1.0  0.07633  0.07648  0.09134  1.0000
  C   C26       1.0  0.92367  0.07648  0.40866  1.0000
  C   C27       1.0  0.92367  0.42353  0.59134  1.0000
  C   C28       1.0  0.07633  0.42353  0.90866  1.0000
  C   C29       1.0  0.92367  0.92352  0.90866  1.0000
  C   C30       1.0  0.07633  0.92352  0.59134  1.0000
  C   C31       1.0  0.07634  0.57648  0.40866  1.0000
  C   C32       1.0  0.92366  0.57648  0.09134  1.0000
  C   C33       1.0  0.59415  0.25000  0.00000  1.0000
  C   C34       1.0  0.40585  0.25000  0.50000  1.0000
  C   C35       1.0  0.40585  0.75000  0.00000  1.0000
  C   C36       1.0  0.59415  0.75000  0.50000  1.0000
  C   C37       1.0  0.27246  0.10665  0.05010  1.0000
  C   C38       1.0  0.72754  0.10665  0.44990  1.0000
  C   C39       1.0  0.72754  0.39335  0.55010  1.0000
  C   C40       1.0  0.27246  0.39335  0.94990  1.0000
  C   C41       1.0  0.72754  0.89335  0.94990  1.0000
  C   C42       1.0  0.27246  0.89335  0.55010  1.0000
  C   C43       1.0  0.27246  0.60665  0.44990  1.0000
  C   C44       1.0  0.72754  0.60665  0.05010  1.0000
  C   C45       1.0  0.32672  0.29359  0.08744  1.0000
  C   C46       1.0  0.67328  0.29359  0.41256  1.0000
  C   C47       1.0  0.67328  0.20641  0.58744  1.0000
  C   C48       1.0  0.32672  0.20641  0.91256  1.0000
  C   C49       1.0  0.67328  0.70641  0.91256  1.0000
  C   C50       1.0  0.32672  0.70641  0.58744  1.0000
  C   C51       1.0  0.32672  0.79359  0.41256  1.0000
  C   C52       1.0  0.67328  0.79359  0.08744  1.0000
  N   N1        1.0  0.79310  0.12828  0.17209  1.0000
  N   N2        1.0  0.20690  0.12828  0.32791  1.0000
  N   N3        1.0  0.20690  0.37172  0.67209  1.0000
  N   N4        1.0  0.79310  0.37172  0.82791  1.0000
  N   N5        1.0  0.20690  0.87172  0.82791  1.0000
  N   N6        1.0  0.79311  0.87172  0.67209  1.0000
  N   N7        1.0  0.79311  0.62828  0.32791  1.0000
  N   N8        1.0  0.20690  0.62828  0.17209  1.0000
  N   N9        1.0  0.50000  0.88398  0.25000  1.0000
  N   N10       1.0  0.50000  0.61602  0.75000  1.0000
  N   N11       1.0  0.50000  0.11602  0.75000  1.0000
  N   N12       1.0  0.50000  0.38398  0.25000  1.0000
  O   O1        1.0  0.37852  0.93740  0.21130  1.0000
  O   O2        1.0  0.62148  0.93740  0.28870  1.0000
  O   O3        1.0  0.62148  0.56260  0.71130  1.0000
  O   O4        1.0  0.37852  0.56261  0.78870  1.0000
  O   O5        1.0  0.62148  0.06260  0.78870  1.0000
  O   O6        1.0  0.37852  0.06260  0.71130  1.0000
  O   O7        1.0  0.37852  0.43740  0.28870  1.0000
  O   O8        1.0  0.62148  0.43740  0.21130  1.0000
  O   O9        1.0  0.50000  0.77575  0.25000  1.0000
  O   O10       1.0  0.50000  0.72425  0.75000  1.0000
  O   O11       1.0  0.50000  0.22425  0.75000  1.0000
  O   O12       1.0  0.50000  0.27575  0.25000  1.0000
