data_image0
_chemical_formula_structural       Cd2H28C26N4Cl4
_chemical_formula_sum              "Cd2 H28 C26 N4 Cl4"
_cell_length_a       4.24425
_cell_length_b       11.9351
_cell_length_c       13.5508
_cell_angle_alpha    108.248
_cell_angle_beta     89.9999
_cell_angle_gamma    89.9993

_space_group_name_H-M_alt    "P 1"
_space_group_IT_number       1

loop_
  _space_group_symop_operation_xyz
  'x, y, z'

loop_
  _atom_site_type_symbol
  _atom_site_label
  _atom_site_symmetry_multiplicity
  _atom_site_fract_x
  _atom_site_fract_y
  _atom_site_fract_z
  _atom_site_occupancy
  Cd  Cd1       1.0  0.04968  0.25000  0.50000  1.0000
  Cd  Cd2       1.0  0.95032  0.75000  0.50000  1.0000
  H   H1        1.0  0.28848  0.11497  0.61623  1.0000
  H   H2        1.0  0.28847  0.38503  0.38377  1.0000
  H   H3        1.0  0.71152  0.88504  0.38377  1.0000
  H   H4        1.0  0.71154  0.61496  0.61623  1.0000
  H   H5        1.0  0.40026  0.25517  0.66518  1.0000
  H   H6        1.0  0.40025  0.24483  0.33482  1.0000
  H   H7        1.0  0.59974  0.74483  0.33482  1.0000
  H   H8        1.0  0.59975  0.75517  0.66518  1.0000
  H   H9        1.0  0.05166  0.40393  0.79124  1.0000
  H   H10       1.0  0.05164  0.09607  0.20876  1.0000
  H   H11       1.0  0.94832  0.59607  0.20876  1.0000
  H   H12       1.0  0.94835  0.90393  0.79124  1.0000
  H   H13       1.0  0.70938  0.42458  0.94376  1.0000
  H   H14       1.0  0.70938  0.07543  0.05623  1.0000
  H   H15       1.0  0.29059  0.57542  0.05623  1.0000
  H   H16       1.0  0.29061  0.92458  0.94376  1.0000
  H   H17       1.0  0.54405  0.05019  0.83989  1.0000
  H   H18       1.0  0.54404  0.44982  0.16011  1.0000
  H   H19       1.0  0.45597  0.94981  0.16011  1.0000
  H   H20       1.0  0.45596  0.55018  0.83989  1.0000
  H   H21       1.0  0.89765  0.02898  0.68935  1.0000
  H   H22       1.0  0.89764  0.47102  0.31065  1.0000
  H   H23       1.0  0.10236  0.97102  0.31065  1.0000
  H   H24       1.0  0.10237  0.52898  0.68935  1.0000
  H   H25       1.0  0.25382  0.32719  0.01517  1.0000
  H   H26       1.0  0.25383  0.17283  0.98483  1.0000
  H   H27       1.0  0.74617  0.67281  0.98483  1.0000
  H   H28       1.0  0.74618  0.82717  0.01517  1.0000
  C   C1        1.0  0.00303  0.21423  0.73183  1.0000
  C   C2        1.0  0.00301  0.28577  0.26817  1.0000
  C   C3        1.0  0.99698  0.78577  0.26817  1.0000
  C   C4        1.0  0.99699  0.71423  0.73183  1.0000
  C   C5        1.0  0.94315  0.32606  0.80245  1.0000
  C   C6        1.0  0.94314  0.17395  0.19755  1.0000
  C   C7        1.0  0.05684  0.67395  0.19755  1.0000
  C   C8        1.0  0.05686  0.82605  0.80245  1.0000
  C   C9        1.0  0.74896  0.33714  0.88801  1.0000
  C   C10       1.0  0.74895  0.16286  0.11199  1.0000
  C   C11       1.0  0.25103  0.66286  0.11199  1.0000
  C   C12       1.0  0.25106  0.83713  0.88800  1.0000
  C   C13       1.0  0.60710  0.23844  0.90460  1.0000
  C   C14       1.0  0.60710  0.26157  0.09540  1.0000
  C   C15       1.0  0.39289  0.76156  0.09540  1.0000
  C   C16       1.0  0.39291  0.73843  0.90460  1.0000
  C   C17       1.0  0.66059  0.12809  0.83112  1.0000
  C   C18       1.0  0.66058  0.37192  0.16888  1.0000
  C   C19       1.0  0.33942  0.87191  0.16888  1.0000
  C   C20       1.0  0.33942  0.62808  0.83112  1.0000
  C   C21       1.0  0.85649  0.11550  0.74572  1.0000
  C   C22       1.0  0.85648  0.38450  0.25428  1.0000
  C   C23       1.0  0.14352  0.88450  0.25427  1.0000
  C   C24       1.0  0.14353  0.61550  0.74572  1.0000
  C   C25       1.0  0.40902  0.25001  0.00000  1.0000
  C   C26       1.0  0.59098  0.74999  1.00000  1.0000
  N   N1        1.0  0.20850  0.20041  0.64546  1.0000
  N   N2        1.0  0.20849  0.29959  0.35454  1.0000
  N   N3        1.0  0.79150  0.79960  0.35454  1.0000
  N   N4        1.0  0.79151  0.70040  0.64546  1.0000
  Cl  Cl1       1.0  0.61416  0.09781  0.42259  1.0000
  Cl  Cl2       1.0  0.61416  0.40219  0.57741  1.0000
  Cl  Cl3       1.0  0.38584  0.90219  0.57741  1.0000
  Cl  Cl4       1.0  0.38584  0.59781  0.42259  1.0000
