data_image0
_chemical_formula_structural       Cd6H56C52N8Cl12
_chemical_formula_sum              "Cd6 H56 C52 N8 Cl12"
_cell_length_a       8.12053
_cell_length_b       11.9936
_cell_length_c       15.9644
_cell_angle_alpha    99.2227
_cell_angle_beta     104.662
_cell_angle_gamma    90.0121

_space_group_name_H-M_alt    "P 1"
_space_group_IT_number       1

loop_
  _space_group_symop_operation_xyz
  'x, y, z'

loop_
  _atom_site_type_symbol
  _atom_site_label
  _atom_site_symmetry_multiplicity
  _atom_site_fract_x
  _atom_site_fract_y
  _atom_site_fract_z
  _atom_site_occupancy
  Cd  Cd1       1.0  0.19239  0.98931  0.10627  1.0000
  Cd  Cd2       1.0  0.08623  0.51061  0.89355  1.0000
  Cd  Cd3       1.0  0.80762  0.01069  0.89374  1.0000
  Cd  Cd4       1.0  0.91377  0.48939  0.10645  1.0000
  Cd  Cd5       1.0  0.86048  0.74996  0.00012  1.0000
  Cd  Cd6       1.0  0.13952  0.25004  0.99988  1.0000
  H   H1        1.0  0.30814  0.19328  0.21457  1.0000
  H   H2        1.0  0.09375  0.30679  0.78517  1.0000
  H   H3        1.0  0.69186  0.80672  0.78543  1.0000
  H   H4        1.0  0.90624  0.69321  0.21483  1.0000
  H   H5        1.0  0.44720  0.09729  0.24549  1.0000
  H   H6        1.0  0.20207  0.40262  0.75409  1.0000
  H   H7        1.0  0.55280  0.90271  0.75451  1.0000
  H   H8        1.0  0.79792  0.59738  0.24590  1.0000
  H   H9        1.0  0.41145  0.97868  0.35591  1.0000
  H   H10       1.0  0.05499  0.52183  0.64387  1.0000
  H   H11       1.0  0.58855  0.02132  0.64409  1.0000
  H   H12       1.0  0.94500  0.47817  0.35612  1.0000
  H   H13       1.0  0.02998  0.27973  0.43338  1.0000
  H   H14       1.0  0.59777  0.21985  0.56711  1.0000
  H   H15       1.0  0.97002  0.72027  0.56662  1.0000
  H   H16       1.0  0.40222  0.78014  0.43289  1.0000
  H   H17       1.0  0.12027  0.26872  0.29483  1.0000
  H   H18       1.0  0.82642  0.23144  0.70552  1.0000
  H   H19       1.0  0.87972  0.73128  0.70517  1.0000
  H   H20       1.0  0.17358  0.76856  0.29448  1.0000
  H   H21       1.0  0.32246  0.99110  0.49466  1.0000
  H   H22       1.0  0.82703  0.50912  0.50542  1.0000
  H   H23       1.0  0.67753  0.00891  0.50534  1.0000
  H   H24       1.0  0.17297  0.49088  0.49457  1.0000
  H   H25       1.0  0.00680  0.07385  0.54595  1.0000
  H   H26       1.0  0.46108  0.42592  0.45466  1.0000
  H   H27       1.0  0.99320  0.92615  0.45405  1.0000
  H   H28       1.0  0.53892  0.57408  0.54534  1.0000
  H   H29       1.0  0.03637  0.22090  0.56291  1.0000
  H   H30       1.0  0.47348  0.27885  0.43784  1.0000
  H   H31       1.0  0.96363  0.77910  0.43710  1.0000
  H   H32       1.0  0.52651  0.72115  0.56216  1.0000
  H   H33       1.0  0.37644  0.28791  0.63328  1.0000
  H   H34       1.0  0.74339  0.21188  0.36674  1.0000
  H   H35       1.0  0.62356  0.71209  0.36672  1.0000
  H   H36       1.0  0.25661  0.78812  0.63326  1.0000
  H   H37       1.0  0.12679  0.98823  0.66736  1.0000
  H   H38       1.0  0.45904  0.51134  0.33326  1.0000
  H   H39       1.0  0.87321  0.01177  0.33264  1.0000
  H   H40       1.0  0.54097  0.48866  0.66674  1.0000
  H   H41       1.0  0.58430  0.29068  0.77754  1.0000
  H   H42       1.0  0.80654  0.20936  0.22226  1.0000
  H   H43       1.0  0.41570  0.70932  0.22246  1.0000
  H   H44       1.0  0.19346  0.79063  0.77774  1.0000
  H   H45       1.0  0.33258  0.99200  0.81245  1.0000
  H   H46       1.0  0.51947  0.50784  0.18798  1.0000
  H   H47       1.0  0.66743  0.00800  0.18755  1.0000
  H   H48       1.0  0.48054  0.49216  0.81202  1.0000
  H   H49       1.0  0.65251  0.22055  0.90919  1.0000
  H   H50       1.0  0.74296  0.27965  0.09068  1.0000
  H   H51       1.0  0.34750  0.77945  0.09081  1.0000
  H   H52       1.0  0.25704  0.72035  0.90932  1.0000
  H   H53       1.0  0.52866  0.12534  0.93331  1.0000
  H   H54       1.0  0.59529  0.37505  0.06680  1.0000
  H   H55       1.0  0.47135  0.87466  0.06669  1.0000
  H   H56       1.0  0.40471  0.62495  0.93320  1.0000
  C   C1        1.0  0.27006  0.12265  0.31636  1.0000
  C   C2        1.0  0.95408  0.37757  0.68361  1.0000
  C   C3        1.0  0.72994  0.87735  0.68364  1.0000
  C   C4        1.0  0.04591  0.62243  0.31638  1.0000
  C   C5        1.0  0.16756  0.13570  0.47357  1.0000
  C   C6        1.0  0.69417  0.36417  0.52673  1.0000
  C   C7        1.0  0.83244  0.86431  0.52644  1.0000
  C   C8        1.0  0.30583  0.63583  0.47327  1.0000
  C   C9        1.0  0.32717  0.04461  0.37294  1.0000
  C   C10       1.0  0.95411  0.45567  0.62702  1.0000
  C   C11       1.0  0.67283  0.95539  0.62707  1.0000
  C   C12       1.0  0.04589  0.54432  0.37298  1.0000
  C   C13       1.0  0.11245  0.21282  0.41616  1.0000
  C   C14       1.0  0.69709  0.28697  0.58418  1.0000
  C   C15       1.0  0.88754  0.78718  0.58384  1.0000
  C   C16       1.0  0.30291  0.71303  0.41582  1.0000
  C   C17       1.0  0.16151  0.20663  0.33805  1.0000
  C   C18       1.0  0.82418  0.29345  0.66218  1.0000
  C   C19       1.0  0.83849  0.79337  0.66195  1.0000
  C   C20       1.0  0.17582  0.70655  0.33782  1.0000
  C   C21       1.0  0.27652  0.05188  0.45078  1.0000
  C   C22       1.0  0.82541  0.44830  0.54936  1.0000
  C   C23       1.0  0.72347  0.94813  0.54922  1.0000
  C   C24       1.0  0.17458  0.55170  0.45064  1.0000
  C   C25       1.0  0.10379  0.14195  0.55519  1.0000
  C   C26       1.0  0.54861  0.35775  0.44531  1.0000
  C   C27       1.0  0.89621  0.85805  0.44482  1.0000
  C   C28       1.0  0.45138  0.64225  0.55469  1.0000
  C   C29       1.0  0.23762  0.13701  0.63933  1.0000
  C   C30       1.0  0.59794  0.36255  0.36094  1.0000
  C   C31       1.0  0.76238  0.86299  0.36067  1.0000
  C   C32       1.0  0.40206  0.63744  0.63906  1.0000
  C   C33       1.0  0.36830  0.22134  0.67158  1.0000
  C   C34       1.0  0.69649  0.27836  0.32847  1.0000
  C   C35       1.0  0.63170  0.77866  0.32843  1.0000
  C   C36       1.0  0.30351  0.72164  0.67153  1.0000
  C   C37       1.0  0.22973  0.05315  0.69002  1.0000
  C   C38       1.0  0.53914  0.44644  0.31034  1.0000
  C   C39       1.0  0.77027  0.94685  0.30998  1.0000
  C   C40       1.0  0.46087  0.55356  0.68966  1.0000
  C   C41       1.0  0.48508  0.22358  0.75247  1.0000
  C   C42       1.0  0.73218  0.27627  0.24746  1.0000
  C   C43       1.0  0.51492  0.77642  0.24753  1.0000
  C   C44       1.0  0.26782  0.72373  0.75254  1.0000
  C   C45       1.0  0.34556  0.05451  0.77149  1.0000
  C   C46       1.0  0.57337  0.44522  0.22878  1.0000
  C   C47       1.0  0.65444  0.94549  0.22852  1.0000
  C   C48       1.0  0.42663  0.55478  0.77122  1.0000
  C   C49       1.0  0.47233  0.14083  0.80366  1.0000
  C   C50       1.0  0.66808  0.35906  0.19639  1.0000
  C   C51       1.0  0.52767  0.85917  0.19634  1.0000
  C   C52       1.0  0.33192  0.64094  0.80361  1.0000
  N   N1        1.0  0.32223  0.11746  0.23708  1.0000
  N   N2        1.0  0.08556  0.38264  0.76270  1.0000
  N   N3        1.0  0.67776  0.88254  0.76292  1.0000
  N   N4        1.0  0.91443  0.61736  0.23730  1.0000
  N   N5        1.0  0.58866  0.14345  0.88718  1.0000
  N   N6        1.0  0.70112  0.35669  0.11286  1.0000
  N   N7        1.0  0.41135  0.85655  0.11282  1.0000
  N   N8        1.0  0.29888  0.64331  0.88714  1.0000
  Cl  Cl1       1.0  0.07398  0.87762  0.94091  1.0000
  Cl  Cl2       1.0  0.13284  0.62236  0.05896  1.0000
  Cl  Cl3       1.0  0.92602  0.12238  0.05909  1.0000
  Cl  Cl4       1.0  0.86717  0.37764  0.94104  1.0000
  Cl  Cl5       1.0  0.99252  0.86739  0.15880  1.0000
  Cl  Cl6       1.0  0.83405  0.63263  0.84136  1.0000
  Cl  Cl7       1.0  0.00749  0.13261  0.84120  1.0000
  Cl  Cl8       1.0  0.16595  0.36737  0.15864  1.0000
  Cl  Cl9       1.0  0.65786  0.62119  0.04785  1.0000
  Cl  Cl10      1.0  0.61057  0.87884  0.95263  1.0000
  Cl  Cl11      1.0  0.34214  0.37881  0.95215  1.0000
  Cl  Cl12      1.0  0.38943  0.12116  0.04737  1.0000
