data_image0
_chemical_formula_structural       Ni2H14C14N2O12
_chemical_formula_sum              "Ni2 H14 C14 N2 O12"
_cell_length_a       6.83439
_cell_length_b       7.57283
_cell_length_c       11.0798
_cell_angle_alpha    56.7731
_cell_angle_beta     66.5669
_cell_angle_gamma    75.6488

_space_group_name_H-M_alt    "P 1"
_space_group_IT_number       1

loop_
  _space_group_symop_operation_xyz
  'x, y, z'

loop_
  _atom_site_type_symbol
  _atom_site_label
  _atom_site_symmetry_multiplicity
  _atom_site_fract_x
  _atom_site_fract_y
  _atom_site_fract_z
  _atom_site_occupancy
  Ni  Ni1       1.0  0.04139  0.33253  0.28359  1.0000
  Ni  Ni2       1.0  0.95861  0.66747  0.71641  1.0000
  H   H1        1.0  0.09479  0.06149  0.06385  1.0000
  H   H2        1.0  0.90521  0.93850  0.93616  1.0000
  H   H3        1.0  0.90452  0.19397  0.99758  1.0000
  H   H4        1.0  0.09548  0.80603  0.00242  1.0000
  H   H5        1.0  0.89739  0.17418  0.20234  1.0000
  H   H6        1.0  0.10260  0.82582  0.79766  1.0000
  H   H7        1.0  0.91542  0.01363  0.36952  1.0000
  H   H8        1.0  0.08457  0.98638  0.63048  1.0000
  H   H9        1.0  0.67441  0.44877  0.18753  1.0000
  H   H10       1.0  0.32560  0.55124  0.81246  1.0000
  H   H11       1.0  0.60499  0.87718  0.41118  1.0000
  H   H12       1.0  0.39501  0.12280  0.58883  1.0000
  H   H13       1.0  0.91207  0.62385  0.39839  1.0000
  H   H14       1.0  0.08793  0.37616  0.60160  1.0000
  C   C1        1.0  0.65637  0.54703  0.23490  1.0000
  C   C2        1.0  0.34363  0.45297  0.76509  1.0000
  C   C3        1.0  0.47453  0.67747  0.24461  1.0000
  C   C4        1.0  0.52546  0.32253  0.75540  1.0000
  C   C5        1.0  0.30151  0.66103  0.19910  1.0000
  C   C6        1.0  0.69850  0.33897  0.80090  1.0000
  C   C7        1.0  0.45631  0.80513  0.30452  1.0000
  C   C8        1.0  0.54369  0.19485  0.69550  1.0000
  C   C9        1.0  0.25565  0.93421  0.32966  1.0000
  C   C10       1.0  0.74435  0.06580  0.67034  1.0000
  C   C11       1.0  0.61744  0.78727  0.35830  1.0000
  C   C12       1.0  0.38254  0.21273  0.64171  1.0000
  C   C13       1.0  0.78980  0.64619  0.35136  1.0000
  C   C14       1.0  0.21022  0.35381  0.64863  1.0000
  N   N1        1.0  0.81142  0.53007  0.28768  1.0000
  N   N2        1.0  0.18857  0.46992  0.71232  1.0000
  O   O1        1.0  0.23850  0.47062  0.27883  1.0000
  O   O2        1.0  0.76151  0.52938  0.72116  1.0000
  O   O3        1.0  0.23857  0.81848  0.09446  1.0000
  O   O4        1.0  0.76143  0.18152  0.90554  1.0000
  O   O5        1.0  0.08482  0.83434  0.40642  1.0000
  O   O6        1.0  0.91518  0.16565  0.59359  1.0000
  O   O7        1.0  0.27440  0.13133  0.27412  1.0000
  O   O8        1.0  0.72561  0.86866  0.72587  1.0000
  O   O9        1.0  0.99469  0.18443  0.05305  1.0000
  O   O10       1.0  0.00531  0.81558  0.94695  1.0000
  O   O11       1.0  0.85233  0.16090  0.30901  1.0000
  O   O12       1.0  0.14766  0.83911  0.69098  1.0000
