data_image0
_chemical_formula_structural       Y4H44C32S4O44
_chemical_formula_sum              "Y4 H44 C32 S4 O44"
_cell_length_a       7.04632
_cell_length_b       10.3467
_cell_length_c       16.467
_cell_angle_alpha    90
_cell_angle_beta     90
_cell_angle_gamma    90

_space_group_name_H-M_alt    "P 1"
_space_group_IT_number       1

loop_
  _space_group_symop_operation_xyz
  'x, y, z'

loop_
  _atom_site_type_symbol
  _atom_site_label
  _atom_site_symmetry_multiplicity
  _atom_site_fract_x
  _atom_site_fract_y
  _atom_site_fract_z
  _atom_site_occupancy
  Y   Y1        1.0  0.89757  0.00521  0.41764  1.0000
  Y   Y2        1.0  0.10243  0.50521  0.58236  1.0000
  Y   Y3        1.0  0.39757  0.00521  0.08236  1.0000
  Y   Y4        1.0  0.60243  0.50521  0.91764  1.0000
  H   H1        1.0  0.57658  0.68041  0.19448  1.0000
  H   H2        1.0  0.42342  0.18041  0.80553  1.0000
  H   H3        1.0  0.07659  0.68041  0.30552  1.0000
  H   H4        1.0  0.92342  0.18041  0.69448  1.0000
  H   H5        1.0  0.71456  0.27499  0.18846  1.0000
  H   H6        1.0  0.28544  0.77499  0.81154  1.0000
  H   H7        1.0  0.21456  0.27499  0.31154  1.0000
  H   H8        1.0  0.78544  0.77499  0.68846  1.0000
  H   H9        1.0  0.69245  0.47357  0.41729  1.0000
  H   H10       1.0  0.30755  0.97357  0.58271  1.0000
  H   H11       1.0  0.19245  0.47357  0.08271  1.0000
  H   H12       1.0  0.80755  0.97357  0.91729  1.0000
  H   H13       1.0  0.53561  0.08383  0.49438  1.0000
  H   H14       1.0  0.46439  0.58383  0.50562  1.0000
  H   H15       1.0  0.03561  0.08383  0.00562  1.0000
  H   H16       1.0  0.96439  0.58383  0.99438  1.0000
  H   H17       1.0  0.51732  0.93486  0.47466  1.0000
  H   H18       1.0  0.48268  0.43486  0.52534  1.0000
  H   H19       1.0  0.01732  0.93486  0.02534  1.0000
  H   H20       1.0  0.98268  0.43486  0.97466  1.0000
  H   H21       1.0  0.17357  0.81693  0.49496  1.0000
  H   H22       1.0  0.82643  0.31693  0.50504  1.0000
  H   H23       1.0  0.67358  0.81692  0.00504  1.0000
  H   H24       1.0  0.32643  0.31692  0.99496  1.0000
  H   H25       1.0  0.23622  0.84129  0.40223  1.0000
  H   H26       1.0  0.76378  0.34129  0.59777  1.0000
  H   H27       1.0  0.73622  0.84129  0.09777  1.0000
  H   H28       1.0  0.26378  0.34129  0.90223  1.0000
  H   H29       1.0  0.17709  0.22782  0.43073  1.0000
  H   H30       1.0  0.82291  0.72782  0.56927  1.0000
  H   H31       1.0  0.67709  0.22782  0.06927  1.0000
  H   H32       1.0  0.32291  0.72782  0.93073  1.0000
  H   H33       1.0  0.29133  0.09433  0.42020  1.0000
  H   H34       1.0  0.70867  0.59433  0.57980  1.0000
  H   H35       1.0  0.79133  0.09433  0.07980  1.0000
  H   H36       1.0  0.20867  0.59433  0.92020  1.0000
  H   H37       1.0  0.12120  0.03042  0.26447  1.0000
  H   H38       1.0  0.87880  0.53042  0.73554  1.0000
  H   H39       1.0  0.62120  0.03042  0.23553  1.0000
  H   H40       1.0  0.37880  0.53042  0.76447  1.0000
  H   H41       1.0  0.99564  0.90487  0.25222  1.0000
  H   H42       1.0  0.00436  0.40487  0.74778  1.0000
  H   H43       1.0  0.49564  0.90487  0.24778  1.0000
  H   H44       1.0  0.50436  0.40487  0.75222  1.0000
  C   C1        1.0  0.63113  0.48167  0.09061  1.0000
  C   C2        1.0  0.36887  0.98167  0.90939  1.0000
  C   C3        1.0  0.13113  0.48167  0.40939  1.0000
  C   C4        1.0  0.86887  0.98167  0.59061  1.0000
  C   C5        1.0  0.63229  0.58876  0.31071  1.0000
  C   C6        1.0  0.36771  0.08876  0.68929  1.0000
  C   C7        1.0  0.13229  0.58876  0.18929  1.0000
  C   C8        1.0  0.86771  0.08876  0.81070  1.0000
  C   C9        1.0  0.74844  0.23529  0.34662  1.0000
  C   C10       1.0  0.25156  0.73529  0.65339  1.0000
  C   C11       1.0  0.24844  0.23529  0.15338  1.0000
  C   C12       1.0  0.75156  0.73529  0.84661  1.0000
  C   C13       1.0  0.61568  0.59200  0.22612  1.0000
  C   C14       1.0  0.38432  0.09200  0.77389  1.0000
  C   C15       1.0  0.11568  0.59200  0.27388  1.0000
  C   C16       1.0  0.88432  0.09200  0.72612  1.0000
  C   C17       1.0  0.64819  0.47896  0.18134  1.0000
  C   C18       1.0  0.35181  0.97896  0.81866  1.0000
  C   C19       1.0  0.14819  0.47897  0.31866  1.0000
  C   C20       1.0  0.85182  0.97897  0.68134  1.0000
  C   C21       1.0  0.69115  0.36416  0.22200  1.0000
  C   C22       1.0  0.30885  0.86416  0.77800  1.0000
  C   C23       1.0  0.19115  0.36416  0.27800  1.0000
  C   C24       1.0  0.80885  0.86416  0.72199  1.0000
  C   C25       1.0  0.70239  0.36081  0.30662  1.0000
  C   C26       1.0  0.29761  0.86081  0.69338  1.0000
  C   C27       1.0  0.20239  0.36081  0.19338  1.0000
  C   C28       1.0  0.79761  0.86081  0.80662  1.0000
  C   C29       1.0  0.67624  0.47447  0.35157  1.0000
  C   C30       1.0  0.32376  0.97447  0.64843  1.0000
  C   C31       1.0  0.17624  0.47447  0.14843  1.0000
  C   C32       1.0  0.82376  0.97447  0.85157  1.0000
  S   S1        1.0  0.59099  0.73450  0.36591  1.0000
  S   S2        1.0  0.40901  0.23450  0.63409  1.0000
  S   S3        1.0  0.09099  0.73450  0.13409  1.0000
  S   S4        1.0  0.90901  0.23450  0.86591  1.0000
  O   O1        1.0  0.67541  0.38208  0.04776  1.0000
  O   O2        1.0  0.32459  0.88208  0.95224  1.0000
  O   O3        1.0  0.17541  0.38209  0.45224  1.0000
  O   O4        1.0  0.82459  0.88209  0.54776  1.0000
  O   O5        1.0  0.57364  0.58392  0.05577  1.0000
  O   O6        1.0  0.42636  0.08392  0.94423  1.0000
  O   O7        1.0  0.07364  0.58392  0.44423  1.0000
  O   O8        1.0  0.92636  0.08392  0.55577  1.0000
  O   O9        1.0  0.79726  0.23170  0.42148  1.0000
  O   O10       1.0  0.20274  0.73170  0.57852  1.0000
  O   O11       1.0  0.29726  0.23170  0.07852  1.0000
  O   O12       1.0  0.70274  0.73170  0.92148  1.0000
  O   O13       1.0  0.74633  0.13057  0.30579  1.0000
  O   O14       1.0  0.25367  0.63057  0.69420  1.0000
  O   O15       1.0  0.24633  0.13057  0.19421  1.0000
  O   O16       1.0  0.75367  0.63057  0.80579  1.0000
  O   O17       1.0  0.76538  0.81326  0.35925  1.0000
  O   O18       1.0  0.23462  0.31326  0.64075  1.0000
  O   O19       1.0  0.26538  0.81326  0.14075  1.0000
  O   O20       1.0  0.73462  0.31326  0.85925  1.0000
  O   O21       1.0  0.55009  0.70022  0.45055  1.0000
  O   O22       1.0  0.44991  0.20022  0.54945  1.0000
  O   O23       1.0  0.05009  0.70022  0.04945  1.0000
  O   O24       1.0  0.94991  0.20021  0.95055  1.0000
  O   O25       1.0  0.42778  0.79702  0.32607  1.0000
  O   O26       1.0  0.57222  0.29702  0.67393  1.0000
  O   O27       1.0  0.92778  0.79702  0.17393  1.0000
  O   O28       1.0  0.07222  0.29702  0.82607  1.0000
  O   O29       1.0  0.55902  0.01709  0.45155  1.0000
  O   O30       1.0  0.44099  0.51709  0.54845  1.0000
  O   O31       1.0  0.05902  0.01708  0.04845  1.0000
  O   O32       1.0  0.94098  0.51708  0.95155  1.0000
  O   O33       1.0  0.16473  0.87782  0.44823  1.0000
  O   O34       1.0  0.83527  0.37782  0.55177  1.0000
  O   O35       1.0  0.66474  0.87782  0.05177  1.0000
  O   O36       1.0  0.33527  0.37782  0.94823  1.0000
  O   O37       1.0  0.17012  0.13710  0.40923  1.0000
  O   O38       1.0  0.82988  0.63710  0.59077  1.0000
  O   O39       1.0  0.67012  0.13710  0.09077  1.0000
  O   O40       1.0  0.32988  0.63710  0.90923  1.0000
  O   O41       1.0  0.05634  0.95992  0.29392  1.0000
  O   O42       1.0  0.94366  0.45992  0.70608  1.0000
  O   O43       1.0  0.55634  0.95992  0.20608  1.0000
  O   O44       1.0  0.44366  0.45992  0.79392  1.0000
