data_image0
_chemical_formula_structural       Zn2H16C8N4O12
_chemical_formula_sum              "Zn2 H16 C8 N4 O12"
_cell_length_a       7.54462
_cell_length_b       7.98098
_cell_length_c       8.29494
_cell_angle_alpha    90.0007
_cell_angle_beta     116.421
_cell_angle_gamma    89.9993

_space_group_name_H-M_alt    "P 1"
_space_group_IT_number       1

loop_
  _space_group_symop_operation_xyz
  'x, y, z'

loop_
  _atom_site_type_symbol
  _atom_site_label
  _atom_site_symmetry_multiplicity
  _atom_site_fract_x
  _atom_site_fract_y
  _atom_site_fract_z
  _atom_site_occupancy
  Zn  Zn1       1.0  1.00000  0.50000  0.50000  1.0000
  Zn  Zn2       1.0  0.50000  0.00000  1.00000  1.0000
  H   H1        1.0  0.52921  0.45252  0.35969  1.0000
  H   H2        1.0  0.97079  0.95252  0.14031  1.0000
  H   H3        1.0  0.47079  0.54747  0.64031  1.0000
  H   H4        1.0  0.02921  0.04748  0.85969  1.0000
  H   H5        1.0  0.38827  0.36737  0.13880  1.0000
  H   H6        1.0  0.11173  0.86737  0.36120  1.0000
  H   H7        1.0  0.61173  0.63263  0.86120  1.0000
  H   H8        1.0  0.88827  0.13263  0.63880  1.0000
  H   H9        1.0  0.09918  0.37023  0.17847  1.0000
  H   H10       1.0  0.40081  0.87023  0.32153  1.0000
  H   H11       1.0  0.90082  0.62977  0.82153  1.0000
  H   H12       1.0  0.59919  0.12977  0.67847  1.0000
  H   H13       1.0  0.27933  0.23513  0.68191  1.0000
  H   H14       1.0  0.22069  0.73513  0.81809  1.0000
  H   H15       1.0  0.72067  0.76487  0.31809  1.0000
  H   H16       1.0  0.77931  0.26488  0.18191  1.0000
  C   C1        1.0  0.23935  0.41221  0.29041  1.0000
  C   C2        1.0  0.26065  0.91221  0.20961  1.0000
  C   C3        1.0  0.76065  0.58778  0.70959  1.0000
  C   C4        1.0  0.73935  0.08779  0.79039  1.0000
  C   C5        1.0  0.28598  0.30834  0.79768  1.0000
  C   C6        1.0  0.21401  0.80834  0.70231  1.0000
  C   C7        1.0  0.71402  0.69166  0.20232  1.0000
  C   C8        1.0  0.78599  0.19166  0.29769  1.0000
  N   N1        1.0  0.39587  0.41347  0.25862  1.0000
  N   N2        1.0  0.10414  0.91347  0.24138  1.0000
  N   N3        1.0  0.60413  0.58653  0.74139  1.0000
  N   N4        1.0  0.89586  0.08653  0.75862  1.0000
  O   O1        1.0  0.18228  0.44007  0.76719  1.0000
  O   O2        1.0  0.31773  0.94008  0.73281  1.0000
  O   O3        1.0  0.81771  0.55993  0.23281  1.0000
  O   O4        1.0  0.68227  0.05992  0.26719  1.0000
  O   O5        1.0  0.39668  0.25346  0.95484  1.0000
  O   O6        1.0  0.10333  0.75347  0.54517  1.0000
  O   O7        1.0  0.60331  0.74654  0.04516  1.0000
  O   O8        1.0  0.89668  0.24653  0.45483  1.0000
  O   O9        1.0  0.24433  0.45654  0.43867  1.0000
  O   O10       1.0  0.25568  0.95655  0.06132  1.0000
  O   O11       1.0  0.75567  0.54346  0.56133  1.0000
  O   O12       1.0  0.74432  0.04345  0.93868  1.0000
