data_image0
_chemical_formula_structural       Cu4H44C52N16Cl4O4
_chemical_formula_sum              "Cu4 H44 C52 N16 Cl4 O4"
_cell_length_a       8.44841
_cell_length_b       11.5681
_cell_length_c       14.2196
_cell_angle_alpha    105.093
_cell_angle_beta     90
_cell_angle_gamma    90

_space_group_name_H-M_alt    "P 1"
_space_group_IT_number       1

loop_
  _space_group_symop_operation_xyz
  'x, y, z'

loop_
  _atom_site_type_symbol
  _atom_site_label
  _atom_site_symmetry_multiplicity
  _atom_site_fract_x
  _atom_site_fract_y
  _atom_site_fract_z
  _atom_site_occupancy
  Cu  Cu1       1.0  0.12143  0.47000  0.15008  1.0000
  Cu  Cu2       1.0  0.62144  0.03000  0.34992  1.0000
  Cu  Cu3       1.0  0.87857  0.52999  0.84991  1.0000
  Cu  Cu4       1.0  0.37857  0.97001  0.65009  1.0000
  H   H1        1.0  0.82152  0.79964  0.26066  1.0000
  H   H2        1.0  0.32152  0.70036  0.23934  1.0000
  H   H3        1.0  0.17848  0.20036  0.73934  1.0000
  H   H4        1.0  0.67848  0.29964  0.76066  1.0000
  H   H5        1.0  0.81931  0.13898  0.21372  1.0000
  H   H6        1.0  0.31931  0.36102  0.28628  1.0000
  H   H7        1.0  0.18070  0.86102  0.78628  1.0000
  H   H8        1.0  0.68070  0.63898  0.71372  1.0000
  H   H9        1.0  0.03229  0.08396  0.08957  1.0000
  H   H10       1.0  0.53229  0.41604  0.41043  1.0000
  H   H11       1.0  0.96771  0.91604  0.91043  1.0000
  H   H12       1.0  0.46771  0.58396  0.58957  1.0000
  H   H13       1.0  0.14197  0.87239  0.04828  1.0000
  H   H14       1.0  0.64197  0.62761  0.45172  1.0000
  H   H15       1.0  0.85803  0.12761  0.95172  1.0000
  H   H16       1.0  0.35803  0.37239  0.54828  1.0000
  H   H17       1.0  0.27500  0.47841  0.82427  1.0000
  H   H18       1.0  0.77500  0.02159  0.67573  1.0000
  H   H19       1.0  0.72499  0.52159  0.17573  1.0000
  H   H20       1.0  0.22500  0.97841  0.32427  1.0000
  H   H21       1.0  0.45768  0.52382  0.88486  1.0000
  H   H22       1.0  0.95768  0.97618  0.61515  1.0000
  H   H23       1.0  0.54232  0.47618  0.11514  1.0000
  H   H24       1.0  0.04232  0.02382  0.38486  1.0000
  H   H25       1.0  0.29184  0.62384  0.90397  1.0000
  H   H26       1.0  0.79184  0.87616  0.59603  1.0000
  H   H27       1.0  0.70816  0.37616  0.09603  1.0000
  H   H28       1.0  0.20816  0.12385  0.40397  1.0000
  H   H29       1.0  0.45403  0.30502  0.85470  1.0000
  H   H30       1.0  0.95403  0.19498  0.64530  1.0000
  H   H31       1.0  0.54597  0.69498  0.14530  1.0000
  H   H32       1.0  0.04597  0.80502  0.35470  1.0000
  H   H33       1.0  0.50654  0.10437  0.88149  1.0000
  H   H34       1.0  0.00654  0.39563  0.61851  1.0000
  H   H35       1.0  0.49346  0.89563  0.11851  1.0000
  H   H36       1.0  0.99346  0.60437  0.38149  1.0000
  H   H37       1.0  0.39485  0.05830  0.03362  1.0000
  H   H38       1.0  0.89485  0.44169  0.46638  1.0000
  H   H39       1.0  0.60514  0.94170  0.96638  1.0000
  H   H40       1.0  0.10514  0.55830  0.53362  1.0000
  H   H41       1.0  0.22455  0.21197  0.14429  1.0000
  H   H42       1.0  0.72455  0.28803  0.35571  1.0000
  H   H43       1.0  0.77546  0.78803  0.85571  1.0000
  H   H44       1.0  0.27546  0.71197  0.64430  1.0000
  C   C1        1.0  0.87143  0.86088  0.22175  1.0000
  C   C2        1.0  0.37143  0.63913  0.27825  1.0000
  C   C3        1.0  0.12857  0.13912  0.77825  1.0000
  C   C4        1.0  0.62858  0.36088  0.72175  1.0000
  C   C5        1.0  0.87067  0.04943  0.19539  1.0000
  C   C6        1.0  0.37067  0.45057  0.30461  1.0000
  C   C7        1.0  0.12932  0.95057  0.80461  1.0000
  C   C8        1.0  0.62933  0.54943  0.69539  1.0000
  C   C9        1.0  0.98962  0.01771  0.12554  1.0000
  C   C10       1.0  0.48962  0.48229  0.37446  1.0000
  C   C11       1.0  0.01038  0.98229  0.87446  1.0000
  C   C12       1.0  0.51038  0.51771  0.62554  1.0000
  C   C13       1.0  0.05002  0.90193  0.10305  1.0000
  C   C14       1.0  0.55002  0.59808  0.39695  1.0000
  C   C15       1.0  0.94998  0.09807  0.89695  1.0000
  C   C16       1.0  0.44997  0.40193  0.60305  1.0000
  C   C17       1.0  0.99010  0.82085  0.15227  1.0000
  C   C18       1.0  0.49010  0.67915  0.34773  1.0000
  C   C19       1.0  0.00990  0.17914  0.84773  1.0000
  C   C20       1.0  0.50991  0.32086  0.65227  1.0000
  C   C21       1.0  0.04683  0.69573  0.13234  1.0000
  C   C22       1.0  0.54683  0.80427  0.36767  1.0000
  C   C23       1.0  0.95317  0.30427  0.86766  1.0000
  C   C24       1.0  0.45317  0.19573  0.63235  1.0000
  C   C25       1.0  0.27361  0.48380  0.97519  1.0000
  C   C26       1.0  0.77361  0.01620  0.52481  1.0000
  C   C27       1.0  0.72639  0.51620  0.02481  1.0000
  C   C28       1.0  0.22639  0.98380  0.47519  1.0000
  C   C29       1.0  0.32846  0.53057  0.89274  1.0000
  C   C30       1.0  0.82846  0.96943  0.60726  1.0000
  C   C31       1.0  0.67155  0.46944  0.10726  1.0000
  C   C32       1.0  0.17154  0.03056  0.39275  1.0000
  C   C33       1.0  0.30971  0.36325  0.98349  1.0000
  C   C34       1.0  0.80970  0.13675  0.51652  1.0000
  C   C35       1.0  0.69028  0.63676  0.01651  1.0000
  C   C36       1.0  0.19028  0.86324  0.48349  1.0000
  C   C37       1.0  0.40546  0.28170  0.91812  1.0000
  C   C38       1.0  0.90547  0.21830  0.58188  1.0000
  C   C39       1.0  0.59454  0.71830  0.08188  1.0000
  C   C40       1.0  0.09454  0.78170  0.41812  1.0000
  C   C41       1.0  0.43620  0.16982  0.93410  1.0000
  C   C42       1.0  0.93620  0.33018  0.56590  1.0000
  C   C43       1.0  0.56380  0.83018  0.06590  1.0000
  C   C44       1.0  0.06380  0.66982  0.43410  1.0000
  C   C45       1.0  0.37270  0.14312  0.01641  1.0000
  C   C46       1.0  0.87269  0.35688  0.48359  1.0000
  C   C47       1.0  0.62730  0.85688  0.98359  1.0000
  C   C48       1.0  0.12729  0.64312  0.51640  1.0000
  C   C49       1.0  0.27732  0.22803  0.07889  1.0000
  C   C50       1.0  0.77732  0.27198  0.42111  1.0000
  C   C51       1.0  0.72268  0.77197  0.92111  1.0000
  C   C52       1.0  0.22268  0.72804  0.57889  1.0000
  N   N1        1.0  0.81272  0.97218  0.24276  1.0000
  N   N2        1.0  0.31272  0.52782  0.25724  1.0000
  N   N3        1.0  0.18728  0.02782  0.75724  1.0000
  N   N4        1.0  0.68728  0.47218  0.74276  1.0000
  N   N5        1.0  0.14407  0.65954  0.05598  1.0000
  N   N6        1.0  0.64407  0.84046  0.44403  1.0000
  N   N7        1.0  0.85593  0.34046  0.94402  1.0000
  N   N8        1.0  0.35594  0.15954  0.55597  1.0000
  N   N9        1.0  0.18780  0.54540  0.04782  1.0000
  N   N10       1.0  0.68779  0.95460  0.45218  1.0000
  N   N11       1.0  0.81219  0.45460  0.95217  1.0000
  N   N12       1.0  0.31219  0.04539  0.54782  1.0000
  N   N13       1.0  0.24462  0.33372  0.06205  1.0000
  N   N14       1.0  0.74463  0.16629  0.43796  1.0000
  N   N15       1.0  0.75539  0.66628  0.93795  1.0000
  N   N16       1.0  0.25540  0.83372  0.56205  1.0000
  Cl  Cl1       1.0  0.98524  0.36786  0.23816  1.0000
  Cl  Cl2       1.0  0.48526  0.13214  0.26184  1.0000
  Cl  Cl3       1.0  0.01475  0.63214  0.76184  1.0000
  Cl  Cl4       1.0  0.51476  0.86785  0.73815  1.0000
  O   O1        1.0  0.99977  0.63043  0.18805  1.0000
  O   O2        1.0  0.49976  0.86957  0.31195  1.0000
  O   O3        1.0  0.00022  0.36958  0.81195  1.0000
  O   O4        1.0  0.50024  0.13042  0.68804  1.0000
