data_image0
_chemical_formula_structural       Na2H22Pd2C14N4O16
_chemical_formula_sum              "Na2 H22 Pd2 C14 N4 O16"
_cell_length_a       7.29629
_cell_length_b       7.59489
_cell_length_c       11.0493
_cell_angle_alpha    103.887
_cell_angle_beta     107.726
_cell_angle_gamma    92.3535

_space_group_name_H-M_alt    "P 1"
_space_group_IT_number       1

loop_
  _space_group_symop_operation_xyz
  'x, y, z'

loop_
  _atom_site_type_symbol
  _atom_site_label
  _atom_site_symmetry_multiplicity
  _atom_site_fract_x
  _atom_site_fract_y
  _atom_site_fract_z
  _atom_site_occupancy
  Na  Na1       1.0  0.26009  0.26145  0.03599  1.0000
  Na  Na2       1.0  0.73993  0.73859  0.96403  1.0000
  H   H1        1.0  0.71090  0.37719  0.07745  1.0000
  H   H2        1.0  0.28907  0.62281  0.92255  1.0000
  H   H3        1.0  0.42045  0.65857  0.11417  1.0000
  H   H4        1.0  0.57957  0.34144  0.88584  1.0000
  H   H5        1.0  0.19292  0.64394  0.08702  1.0000
  H   H6        1.0  0.80709  0.35608  0.91298  1.0000
  H   H7        1.0  0.43549  0.94898  0.13670  1.0000
  H   H8        1.0  0.56453  0.05103  0.86329  1.0000
  H   H9        1.0  0.22031  0.94704  0.13737  1.0000
  H   H10       1.0  0.77969  0.05299  0.86264  1.0000
  H   H11       1.0  0.47224  0.28446  0.29274  1.0000
  H   H12       1.0  0.52773  0.71550  0.70726  1.0000
  H   H13       1.0  0.59762  0.46478  0.43564  1.0000
  H   H14       1.0  0.40238  0.53523  0.56437  1.0000
  H   H15       1.0  0.58991  0.05769  0.42560  1.0000
  H   H16       1.0  0.41009  0.94232  0.57445  1.0000
  H   H17       1.0  0.41366  0.19109  0.46614  1.0000
  H   H18       1.0  0.58631  0.80891  0.53388  1.0000
  H   H19       1.0  0.67634  0.39984  0.65843  1.0000
  H   H20       1.0  0.32370  0.60001  0.34152  1.0000
  H   H21       1.0  0.64379  0.17232  0.66833  1.0000
  H   H22       1.0  0.35621  0.82775  0.33170  1.0000
  Pd  Pd1       1.0  0.00963  0.25578  0.49042  1.0000
  Pd  Pd2       1.0  0.99036  0.74419  0.50958  1.0000
  C   C1        1.0  0.00542  0.30928  0.24489  1.0000
  C   C2        1.0  0.99453  0.69073  0.75511  1.0000
  C   C3        1.0  0.80194  0.32341  0.25155  1.0000
  C   C4        1.0  0.19813  0.67657  0.74844  1.0000
  C   C5        1.0  0.59370  0.31990  0.38534  1.0000
  C   C6        1.0  0.40630  0.68015  0.61463  1.0000
  C   C7        1.0  0.56533  0.19672  0.46985  1.0000
  C   C8        1.0  0.43465  0.80333  0.53012  1.0000
  C   C9        1.0  0.69230  0.25744  0.61368  1.0000
  C   C10       1.0  0.30766  0.74252  0.38628  1.0000
  C   C11       1.0  0.01436  0.21987  0.74115  1.0000
  C   C12       1.0  0.98561  0.78006  0.25887  1.0000
  C   C13       1.0  0.22258  0.20927  0.73824  1.0000
  C   C14       1.0  0.77740  0.79063  0.26170  1.0000
  N   N1        1.0  0.77556  0.30006  0.35788  1.0000
  N   N2        1.0  0.22451  0.69985  0.64211  1.0000
  N   N3        1.0  0.89583  0.24294  0.63011  1.0000
  N   N4        1.0  0.10421  0.75727  0.36995  1.0000
  O   O1        1.0  0.12650  0.27115  0.34550  1.0000
  O   O2        1.0  0.87341  0.72886  0.65449  1.0000
  O   O3        1.0  0.04351  0.33722  0.14853  1.0000
  O   O4        1.0  0.95646  0.66275  0.85145  1.0000
  O   O5        1.0  0.66508  0.36237  0.15558  1.0000
  O   O6        1.0  0.33497  0.63759  0.84445  1.0000
  O   O7        1.0  0.97245  0.21077  0.84355  1.0000
  O   O8        1.0  0.02755  0.78926  0.15651  1.0000
  O   O9        1.0  0.25305  0.22011  0.63139  1.0000
  O   O10       1.0  0.74700  0.77988  0.36858  1.0000
  O   O11       1.0  0.35444  0.19561  0.83921  1.0000
  O   O12       1.0  0.64556  0.80447  0.16081  1.0000
  O   O13       1.0  0.29543  0.58536  0.05587  1.0000
  O   O14       1.0  0.70458  0.41466  0.94412  1.0000
  O   O15       1.0  0.31997  0.01196  0.11519  1.0000
  O   O16       1.0  0.68003  0.98804  0.88480  1.0000
