data_image0
_chemical_formula_structural       Cu8H32C24N8Cl8
_chemical_formula_sum              "Cu8 H32 C24 N8 Cl8"
_cell_length_a       6.3006
_cell_length_b       8.70298
_cell_length_c       15.9603
_cell_angle_alpha    89.9996
_cell_angle_beta     90.0002
_cell_angle_gamma    95.7704

_space_group_name_H-M_alt    "P 1"
_space_group_IT_number       1

loop_
  _space_group_symop_operation_xyz
  'x, y, z'

loop_
  _atom_site_type_symbol
  _atom_site_label
  _atom_site_symmetry_multiplicity
  _atom_site_fract_x
  _atom_site_fract_y
  _atom_site_fract_z
  _atom_site_occupancy
  Cu  Cu1       1.0  0.23580  0.28871  0.86673  1.0000
  Cu  Cu2       1.0  0.76420  0.21129  0.36674  1.0000
  Cu  Cu3       1.0  0.76420  0.71128  0.13326  1.0000
  Cu  Cu4       1.0  0.23580  0.78871  0.63327  1.0000
  Cu  Cu5       1.0  0.23216  0.48113  0.99242  1.0000
  Cu  Cu6       1.0  0.76785  0.01886  0.49242  1.0000
  Cu  Cu7       1.0  0.76785  0.51886  0.00758  1.0000
  Cu  Cu8       1.0  0.23215  0.98114  0.50758  1.0000
  H   H1        1.0  0.57647  0.07544  0.65209  1.0000
  H   H2        1.0  0.42353  0.42456  0.15209  1.0000
  H   H3        1.0  0.42352  0.92456  0.34791  1.0000
  H   H4        1.0  0.57647  0.57543  0.84791  1.0000
  H   H5        1.0  0.58902  0.97991  0.91224  1.0000
  H   H6        1.0  0.41098  0.52009  0.41224  1.0000
  H   H7        1.0  0.41100  0.02009  0.08776  1.0000
  H   H8        1.0  0.58901  0.47992  0.58776  1.0000
  H   H9        1.0  0.28117  0.77591  0.83609  1.0000
  H   H10       1.0  0.71883  0.72410  0.33609  1.0000
  H   H11       1.0  0.71883  0.22408  0.16391  1.0000
  H   H12       1.0  0.28117  0.27592  0.66391  1.0000
  H   H13       1.0  0.83381  0.24163  0.73444  1.0000
  H   H14       1.0  0.16619  0.25837  0.23444  1.0000
  H   H15       1.0  0.16620  0.75836  0.26556  1.0000
  H   H16       1.0  0.83380  0.74163  0.76556  1.0000
  H   H17       1.0  0.74549  0.27745  0.83852  1.0000
  H   H18       1.0  0.25451  0.22255  0.33853  1.0000
  H   H19       1.0  0.25451  0.72255  0.16147  1.0000
  H   H20       1.0  0.74549  0.77746  0.66148  1.0000
  H   H21       1.0  0.07242  0.04818  0.79091  1.0000
  H   H22       1.0  0.92758  0.45182  0.29091  1.0000
  H   H23       1.0  0.92759  0.95181  0.20909  1.0000
  H   H24       1.0  0.07241  0.54819  0.70909  1.0000
  H   H25       1.0  0.93038  0.17834  0.96192  1.0000
  H   H26       1.0  0.06962  0.32166  0.46193  1.0000
  H   H27       1.0  0.06962  0.82166  0.03807  1.0000
  H   H28       1.0  0.93038  0.67835  0.53808  1.0000
  H   H29       1.0  0.13863  0.04454  0.94461  1.0000
  H   H30       1.0  0.86136  0.45545  0.44462  1.0000
  H   H31       1.0  0.86137  0.95545  0.05539  1.0000
  H   H32       1.0  0.13863  0.54455  0.55539  1.0000
  C   C1        1.0  0.53447  0.02134  0.71182  1.0000
  C   C2        1.0  0.46553  0.47865  0.21182  1.0000
  C   C3        1.0  0.46553  0.97865  0.28818  1.0000
  C   C4        1.0  0.53447  0.52135  0.78818  1.0000
  C   C5        1.0  0.53831  0.96939  0.84759  1.0000
  C   C6        1.0  0.46170  0.53062  0.34759  1.0000
  C   C7        1.0  0.46169  0.03060  0.15241  1.0000
  C   C8        1.0  0.53830  0.46940  0.65240  1.0000
  C   C9        1.0  0.38787  0.86842  0.80894  1.0000
  C   C10       1.0  0.61213  0.63159  0.30894  1.0000
  C   C11       1.0  0.61217  0.13158  0.19105  1.0000
  C   C12       1.0  0.38784  0.36842  0.69105  1.0000
  C   C13       1.0  0.80188  0.19057  0.79649  1.0000
  C   C14       1.0  0.19812  0.30943  0.29650  1.0000
  C   C15       1.0  0.19812  0.80943  0.20350  1.0000
  C   C16       1.0  0.80187  0.69057  0.70351  1.0000
  C   C17       1.0  0.99528  0.12600  0.83234  1.0000
  C   C18       1.0  0.00472  0.37400  0.33235  1.0000
  C   C19       1.0  0.00473  0.87400  0.16765  1.0000
  C   C20       1.0  0.99527  0.62600  0.66766  1.0000
  C   C21       1.0  0.03341  0.12394  0.91814  1.0000
  C   C22       1.0  0.96659  0.37605  0.41814  1.0000
  C   C23       1.0  0.96658  0.87605  0.08186  1.0000
  C   C24       1.0  0.03341  0.62395  0.58186  1.0000
  N   N1        1.0  0.38728  0.90180  0.72391  1.0000
  N   N2        1.0  0.61272  0.59820  0.22391  1.0000
  N   N3        1.0  0.61272  0.09820  0.27609  1.0000
  N   N4        1.0  0.38728  0.40180  0.77609  1.0000
  N   N5        1.0  0.62897  0.06541  0.78532  1.0000
  N   N6        1.0  0.37104  0.43459  0.28532  1.0000
  N   N7        1.0  0.37103  0.93459  0.21468  1.0000
  N   N8        1.0  0.62896  0.56541  0.71468  1.0000
  Cl  Cl1       1.0  0.48682  0.30680  0.97892  1.0000
  Cl  Cl2       1.0  0.51318  0.19319  0.47893  1.0000
  Cl  Cl3       1.0  0.51317  0.69319  0.02107  1.0000
  Cl  Cl4       1.0  0.48682  0.80681  0.52107  1.0000
  Cl  Cl5       1.0  0.00688  0.56739  0.89498  1.0000
  Cl  Cl6       1.0  0.99313  0.93261  0.39498  1.0000
  Cl  Cl7       1.0  0.99313  0.43261  0.10502  1.0000
  Cl  Cl8       1.0  0.00686  0.06739  0.60502  1.0000
