data_image0
_chemical_formula_structural       Mn2H32C16N24O4
_chemical_formula_sum              "Mn2 H32 C16 N24 O4"
_cell_length_a       5.41256
_cell_length_b       11.7636
_cell_length_c       11.7819
_cell_angle_alpha    89.6562
_cell_angle_beta     101.959
_cell_angle_gamma    90.2209

_space_group_name_H-M_alt    "P 1"
_space_group_IT_number       1

loop_
  _space_group_symop_operation_xyz
  'x, y, z'

loop_
  _atom_site_type_symbol
  _atom_site_label
  _atom_site_symmetry_multiplicity
  _atom_site_fract_x
  _atom_site_fract_y
  _atom_site_fract_z
  _atom_site_occupancy
  Mn  Mn1       1.0  0.00000  0.50000  0.50000  1.0000
  Mn  Mn2       1.0  0.00000  0.00000  0.00000  1.0000
  H   H1        1.0  0.28147  0.28879  0.66100  1.0000
  H   H2        1.0  0.72784  0.77536  0.83005  1.0000
  H   H3        1.0  0.71853  0.71122  0.33901  1.0000
  H   H4        1.0  0.27217  0.22465  0.16995  1.0000
  H   H5        1.0  0.66721  0.48899  0.70750  1.0000
  H   H6        1.0  0.35716  0.96888  0.78742  1.0000
  H   H7        1.0  0.33277  0.51100  0.29249  1.0000
  H   H8        1.0  0.64284  0.03112  0.21258  1.0000
  H   H9        1.0  0.78843  0.28218  0.95271  1.0000
  H   H10       1.0  0.19891  0.77861  0.52917  1.0000
  H   H11       1.0  0.21155  0.71781  0.04729  1.0000
  H   H12       1.0  0.80109  0.22138  0.47083  1.0000
  H   H13       1.0  0.62114  0.40940  0.90476  1.0000
  H   H14       1.0  0.37805  0.90163  0.58022  1.0000
  H   H15       1.0  0.37885  0.59060  0.09524  1.0000
  H   H16       1.0  0.62196  0.09837  0.41977  1.0000
  H   H17       1.0  0.17946  0.39802  0.03108  1.0000
  H   H18       1.0  0.81000  0.90136  0.46866  1.0000
  H   H19       1.0  0.82051  0.60199  0.96893  1.0000
  H   H20       1.0  0.19001  0.09863  0.53133  1.0000
  H   H21       1.0  0.92105  0.42768  0.09658  1.0000
  H   H22       1.0  0.05587  0.93318  0.39571  1.0000
  H   H23       1.0  0.07891  0.57232  0.90342  1.0000
  H   H24       1.0  0.94413  0.06682  0.60429  1.0000
  H   H25       1.0  0.42674  0.39968  0.45446  1.0000
  H   H26       1.0  0.56636  0.88875  0.05269  1.0000
  H   H27       1.0  0.57326  0.60032  0.54554  1.0000
  H   H28       1.0  0.43365  0.11125  0.94731  1.0000
  H   H29       1.0  0.19205  0.31677  0.41360  1.0000
  H   H30       1.0  0.80003  0.80792  0.09277  1.0000
  H   H31       1.0  0.80796  0.68323  0.58640  1.0000
  H   H32       1.0  0.19997  0.19209  0.90723  1.0000
  C   C1        1.0  0.13484  0.32721  0.69828  1.0000
  C   C2        1.0  0.87621  0.81354  0.79274  1.0000
  C   C3        1.0  0.86517  0.67279  0.30172  1.0000
  C   C4        1.0  0.12380  0.18646  0.20726  1.0000
  C   C5        1.0  0.82205  0.42969  0.71884  1.0000
  C   C6        1.0  0.19500  0.91263  0.77325  1.0000
  C   C7        1.0  0.17794  0.57030  0.28116  1.0000
  C   C8        1.0  0.80501  0.08737  0.22675  1.0000
  C   C9        1.0  0.80905  0.37006  0.92419  1.0000
  C   C10       1.0  0.18750  0.86457  0.56320  1.0000
  C   C11       1.0  0.19094  0.62994  0.07581  1.0000
  C   C12       1.0  0.81251  0.13543  0.43680  1.0000
  C   C13       1.0  0.99114  0.43736  0.01578  1.0000
  C   C14       1.0  0.00057  0.93850  0.48009  1.0000
  C   C15       1.0  0.00882  0.56264  0.98422  1.0000
  C   C16       1.0  0.99943  0.06150  0.51991  1.0000
  N   N1        1.0  0.89562  0.36556  0.81451  1.0000
  N   N2        1.0  0.11246  0.85415  0.67523  1.0000
  N   N3        1.0  0.10436  0.63444  0.18549  1.0000
  N   N4        1.0  0.88754  0.14585  0.32477  1.0000
  N   N5        1.0  0.09478  0.30014  0.80280  1.0000
  N   N6        1.0  0.90769  0.79073  0.68614  1.0000
  N   N7        1.0  0.90521  0.69987  0.19721  1.0000
  N   N8        1.0  0.09232  0.20927  0.31386  1.0000
  N   N9        1.0  0.97096  0.40851  0.64305  1.0000
  N   N10       1.0  0.04937  0.88933  0.84945  1.0000
  N   N11       1.0  0.02904  0.59149  0.35695  1.0000
  N   N12       1.0  0.95063  0.11068  0.15055  1.0000
  N   N13       1.0  0.29084  0.58679  0.59791  1.0000
  N   N14       1.0  0.69464  0.08615  0.88637  1.0000
  N   N15       1.0  0.70916  0.41321  0.40210  1.0000
  N   N16       1.0  0.30536  0.91386  0.11362  1.0000
  N   N17       1.0  0.33779  0.60450  0.70106  1.0000
  N   N18       1.0  0.65307  0.10878  0.78436  1.0000
  N   N19       1.0  0.66221  0.39550  0.29895  1.0000
  N   N20       1.0  0.34694  0.89122  0.21565  1.0000
  N   N21       1.0  0.39692  0.62409  0.80067  1.0000
  N   N22       1.0  0.60617  0.13062  0.68501  1.0000
  N   N23       1.0  0.60308  0.37591  0.19933  1.0000
  N   N24       1.0  0.39384  0.86939  0.31498  1.0000
  O   O1        1.0  0.25500  0.38025  0.46872  1.0000
  O   O2        1.0  0.73424  0.86890  0.03498  1.0000
  O   O3        1.0  0.74501  0.61975  0.53128  1.0000
  O   O4        1.0  0.26577  0.13111  0.96502  1.0000
