data_image0
_chemical_formula_structural       Cu8H32C24Br8N8
_chemical_formula_sum              "Cu8 H32 C24 Br8 N8"
_cell_length_a       6.4196
_cell_length_b       8.66869
_cell_length_c       16.6931
_cell_angle_alpha    89.9998
_cell_angle_beta     90.0001
_cell_angle_gamma    96.9228

_space_group_name_H-M_alt    "P 1"
_space_group_IT_number       1

loop_
  _space_group_symop_operation_xyz
  'x, y, z'

loop_
  _atom_site_type_symbol
  _atom_site_label
  _atom_site_symmetry_multiplicity
  _atom_site_fract_x
  _atom_site_fract_y
  _atom_site_fract_z
  _atom_site_occupancy
  Cu  Cu1       1.0  0.22018  0.79103  0.63427  1.0000
  Cu  Cu2       1.0  0.77983  0.70897  0.13426  1.0000
  Cu  Cu3       1.0  0.77982  0.20898  0.36573  1.0000
  Cu  Cu4       1.0  0.22017  0.29103  0.86574  1.0000
  Cu  Cu5       1.0  0.24188  0.98171  0.50808  1.0000
  Cu  Cu6       1.0  0.75813  0.51827  0.00808  1.0000
  Cu  Cu7       1.0  0.75812  0.01829  0.49192  1.0000
  Cu  Cu8       1.0  0.24188  0.48172  0.99192  1.0000
  H   H1        1.0  0.57297  0.57876  0.84673  1.0000
  H   H2        1.0  0.42701  0.92124  0.34674  1.0000
  H   H3        1.0  0.42703  0.42123  0.15326  1.0000
  H   H4        1.0  0.57299  0.07877  0.65326  1.0000
  H   H5        1.0  0.57988  0.47428  0.59873  1.0000
  H   H6        1.0  0.42013  0.02572  0.09872  1.0000
  H   H7        1.0  0.42010  0.52573  0.40127  1.0000
  H   H8        1.0  0.57989  0.97427  0.90127  1.0000
  H   H9        1.0  0.27057  0.27422  0.67325  1.0000
  H   H10       1.0  0.72944  0.22577  0.17325  1.0000
  H   H11       1.0  0.72943  0.72577  0.32674  1.0000
  H   H12       1.0  0.27057  0.77423  0.82675  1.0000
  H   H13       1.0  0.73973  0.77567  0.66579  1.0000
  H   H14       1.0  0.26027  0.72434  0.16580  1.0000
  H   H15       1.0  0.26027  0.22434  0.33421  1.0000
  H   H16       1.0  0.73973  0.27566  0.83421  1.0000
  H   H17       1.0  0.83188  0.74408  0.76481  1.0000
  H   H18       1.0  0.16811  0.75593  0.26480  1.0000
  H   H19       1.0  0.16812  0.25592  0.23519  1.0000
  H   H20       1.0  0.83189  0.24407  0.73520  1.0000
  H   H21       1.0  0.06055  0.54857  0.71021  1.0000
  H   H22       1.0  0.93945  0.95144  0.21019  1.0000
  H   H23       1.0  0.93945  0.45143  0.28979  1.0000
  H   H24       1.0  0.06055  0.04856  0.78981  1.0000
  H   H25       1.0  0.91154  0.67211  0.54724  1.0000
  H   H26       1.0  0.08847  0.82788  0.04724  1.0000
  H   H27       1.0  0.08846  0.32789  0.45275  1.0000
  H   H28       1.0  0.91153  0.17213  0.95277  1.0000
  H   H29       1.0  0.11384  0.53856  0.56291  1.0000
  H   H30       1.0  0.88617  0.96143  0.06290  1.0000
  H   H31       1.0  0.88616  0.46145  0.43708  1.0000
  H   H32       1.0  0.11384  0.03857  0.93711  1.0000
  C   C1        1.0  0.52965  0.52269  0.79010  1.0000
  C   C2        1.0  0.47034  0.97732  0.29010  1.0000
  C   C3        1.0  0.47035  0.47731  0.20990  1.0000
  C   C4        1.0  0.52966  0.02269  0.70990  1.0000
  C   C5        1.0  0.53032  0.46639  0.66069  1.0000
  C   C6        1.0  0.46968  0.03361  0.16069  1.0000
  C   C7        1.0  0.46968  0.53361  0.33930  1.0000
  C   C8        1.0  0.53032  0.96639  0.83931  1.0000
  C   C9        1.0  0.37894  0.36721  0.69858  1.0000
  C   C10       1.0  0.62107  0.13279  0.19858  1.0000
  C   C11       1.0  0.62106  0.63278  0.30141  1.0000
  C   C12       1.0  0.37894  0.86721  0.80142  1.0000
  C   C13       1.0  0.79591  0.68986  0.70629  1.0000
  C   C14       1.0  0.20406  0.81013  0.20629  1.0000
  C   C15       1.0  0.20407  0.31013  0.29371  1.0000
  C   C16       1.0  0.79593  0.18987  0.79372  1.0000
  C   C17       1.0  0.98267  0.62460  0.67071  1.0000
  C   C18       1.0  0.01735  0.87540  0.17071  1.0000
  C   C19       1.0  0.01734  0.37540  0.32928  1.0000
  C   C20       1.0  0.98265  0.12460  0.82929  1.0000
  C   C21       1.0  0.01465  0.61943  0.58853  1.0000
  C   C22       1.0  0.98535  0.88056  0.08852  1.0000
  C   C23       1.0  0.98534  0.38058  0.41147  1.0000
  C   C24       1.0  0.01465  0.11944  0.91148  1.0000
  Br  Br1       1.0  0.48362  0.78631  0.52099  1.0000
  Br  Br2       1.0  0.51638  0.71369  0.02099  1.0000
  Br  Br3       1.0  0.51637  0.21369  0.47901  1.0000
  Br  Br4       1.0  0.48363  0.28631  0.97900  1.0000
  Br  Br5       1.0  0.00387  0.06639  0.60654  1.0000
  Br  Br6       1.0  0.99614  0.43361  0.10654  1.0000
  Br  Br7       1.0  0.99613  0.93361  0.39346  1.0000
  Br  Br8       1.0  0.00386  0.56639  0.89346  1.0000
  N   N1        1.0  0.62379  0.56408  0.71934  1.0000
  N   N2        1.0  0.37620  0.93592  0.21934  1.0000
  N   N3        1.0  0.37621  0.43592  0.28066  1.0000
  N   N4        1.0  0.62380  0.06408  0.78066  1.0000
  N   N5        1.0  0.38029  0.40293  0.77960  1.0000
  N   N6        1.0  0.61971  0.09707  0.27960  1.0000
  N   N7        1.0  0.61972  0.59706  0.22040  1.0000
  N   N8        1.0  0.38030  0.90293  0.72040  1.0000
