data_image0
_chemical_formula_structural       Zn2H32C40N4O12
_chemical_formula_sum              "Zn2 H32 C40 N4 O12"
_cell_length_a       6.87536
_cell_length_b       11.1604
_cell_length_c       12.3074
_cell_angle_alpha    86.2413
_cell_angle_beta     86.1306
_cell_angle_gamma    70.7096

_space_group_name_H-M_alt    "P 1"
_space_group_IT_number       1

loop_
  _space_group_symop_operation_xyz
  'x, y, z'

loop_
  _atom_site_type_symbol
  _atom_site_label
  _atom_site_symmetry_multiplicity
  _atom_site_fract_x
  _atom_site_fract_y
  _atom_site_fract_z
  _atom_site_occupancy
  Zn  Zn1       1.0  0.44838  0.82009  0.79528  1.0000
  Zn  Zn2       1.0  0.55163  0.17991  0.20472  1.0000
  H   H1        1.0  0.92010  0.37847  0.78694  1.0000
  H   H2        1.0  0.07990  0.62153  0.21307  1.0000
  H   H3        1.0  0.89736  0.84155  0.10469  1.0000
  H   H4        1.0  0.10264  0.15845  0.89531  1.0000
  H   H5        1.0  0.13603  0.63871  0.58623  1.0000
  H   H6        1.0  0.86397  0.36129  0.41377  1.0000
  H   H7        1.0  0.89311  0.10379  0.82754  1.0000
  H   H8        1.0  0.10690  0.89621  0.17246  1.0000
  H   H9        1.0  0.65215  0.77068  0.01025  1.0000
  H   H10       1.0  0.34786  0.22932  0.98975  1.0000
  H   H11       1.0  0.67331  0.46945  0.52316  1.0000
  H   H12       1.0  0.32669  0.53054  0.47684  1.0000
  H   H13       1.0  0.51082  0.43126  0.81120  1.0000
  H   H14       1.0  0.48917  0.56874  0.18880  1.0000
  H   H15       1.0  0.35860  0.48227  0.97483  1.0000
  H   H16       1.0  0.64139  0.51773  0.02517  1.0000
  H   H17       1.0  0.12019  0.59514  0.01574  1.0000
  H   H18       1.0  0.87980  0.40486  0.98425  1.0000
  H   H19       1.0  0.89241  0.76726  0.71913  1.0000
  H   H20       1.0  0.10759  0.23275  0.28086  1.0000
  H   H21       1.0  0.65728  0.27714  0.66795  1.0000
  H   H22       1.0  0.34272  0.72286  0.33206  1.0000
  H   H23       1.0  0.43988  0.61457  0.65601  1.0000
  H   H24       1.0  0.56012  0.38542  0.34400  1.0000
  H   H25       1.0  0.63642  0.02799  0.74979  1.0000
  H   H26       1.0  0.36359  0.97200  0.25021  1.0000
  H   H27       1.0  0.44909  0.17025  0.58462  1.0000
  H   H28       1.0  0.55091  0.82975  0.41539  1.0000
  H   H29       1.0  0.20894  0.13416  0.50482  1.0000
  H   H30       1.0  0.79106  0.86584  0.49519  1.0000
  H   H31       1.0  0.97625  0.10073  0.53786  1.0000
  H   H32       1.0  0.02375  0.89927  0.46214  1.0000
  C   C1        1.0  0.92336  0.97880  0.97428  1.0000
  C   C2        1.0  0.07664  0.02120  0.02572  1.0000
  C   C3        1.0  0.92813  0.54107  0.54001  1.0000
  C   C4        1.0  0.07187  0.45893  0.45999  1.0000
  C   C5        1.0  0.08350  0.35422  0.76271  1.0000
  C   C6        1.0  0.91650  0.64578  0.23729  1.0000
  C   C7        1.0  0.84964  0.88460  0.02480  1.0000
  C   C8        1.0  0.15036  0.11540  0.97520  1.0000
  C   C9        1.0  0.20422  0.41504  0.80860  1.0000
  C   C10       1.0  0.79577  0.58496  0.19140  1.0000
  C   C11       1.0  0.17009  0.26440  0.68394  1.0000
  C   C12       1.0  0.82991  0.73560  0.31606  1.0000
  C   C13       1.0  0.27816  0.66190  0.88200  1.0000
  C   C14       1.0  0.72183  0.33810  0.11800  1.0000
  C   C15       1.0  0.98482  0.62758  0.59740  1.0000
  C   C16       1.0  0.01518  0.37242  0.40260  1.0000
  C   C17       1.0  0.23914  0.98156  0.62411  1.0000
  C   C18       1.0  0.76086  0.01843  0.37589  1.0000
  C   C19       1.0  0.84438  0.03091  0.87295  1.0000
  C   C20       1.0  0.15563  0.96909  0.12705  1.0000
  C   C21       1.0  0.71006  0.84452  0.97330  1.0000
  C   C22       1.0  0.28995  0.15548  0.02670  1.0000
  C   C23       1.0  0.72825  0.53558  0.56275  1.0000
  C   C24       1.0  0.27175  0.46441  0.43725  1.0000
  C   C25       1.0  0.41339  0.38615  0.77584  1.0000
  C   C26       1.0  0.58661  0.61385  0.22417  1.0000
  C   C27       1.0  0.21983  0.55585  0.94450  1.0000
  C   C28       1.0  0.78016  0.44415  0.05550  1.0000
  C   C29       1.0  0.84585  0.70284  0.67239  1.0000
  C   C30       1.0  0.15415  0.29716  0.32760  1.0000
  C   C31       1.0  0.49558  0.29826  0.69517  1.0000
  C   C32       1.0  0.50442  0.70174  0.30484  1.0000
  C   C33       1.0  0.59651  0.61509  0.63730  1.0000
  C   C34       1.0  0.40349  0.38490  0.36270  1.0000
  C   C35       1.0  0.70253  0.98734  0.82735  1.0000
  C   C36       1.0  0.29747  0.01266  0.17265  1.0000
  C   C37       1.0  0.37781  0.23640  0.64834  1.0000
  C   C38       1.0  0.62219  0.76360  0.35167  1.0000
  C   C39       1.0  0.11360  0.11004  0.57263  1.0000
  C   C40       1.0  0.88640  0.88996  0.42738  1.0000
  N   N1        1.0  0.63730  0.89454  0.87563  1.0000
  N   N2        1.0  0.36271  0.10546  0.12437  1.0000
  N   N3        1.0  0.65387  0.69791  0.69192  1.0000
  N   N4        1.0  0.34613  0.30209  0.30808  1.0000
  O   O1        1.0  0.40169  0.70538  0.92876  1.0000
  O   O2        1.0  0.59831  0.29462  0.07124  1.0000
  O   O3        1.0  0.27077  0.97906  0.72700  1.0000
  O   O4        1.0  0.72923  0.02094  0.27300  1.0000
  O   O5        1.0  0.10211  0.50108  0.88496  1.0000
  O   O6        1.0  0.89788  0.49893  0.11504  1.0000
  O   O7        1.0  0.03532  0.21191  0.64526  1.0000
  O   O8        1.0  0.96468  0.78809  0.35474  1.0000
  O   O9        1.0  0.21037  0.70393  0.78988  1.0000
  O   O10       1.0  0.78962  0.29607  0.21011  1.0000
  O   O11       1.0  0.30074  0.89055  0.56270  1.0000
  O   O12       1.0  0.69927  0.10945  0.43729  1.0000
