data_image0
_chemical_formula_structural       Na4H56C40Cl4O32
_chemical_formula_sum              "Na4 H56 C40 Cl4 O32"
_cell_length_a       9.26393
_cell_length_b       9.66796
_cell_length_c       16.738
_cell_angle_alpha    90
_cell_angle_beta     90
_cell_angle_gamma    115.58

_space_group_name_H-M_alt    "P 1"
_space_group_IT_number       1

loop_
  _space_group_symop_operation_xyz
  'x, y, z'

loop_
  _atom_site_type_symbol
  _atom_site_label
  _atom_site_symmetry_multiplicity
  _atom_site_fract_x
  _atom_site_fract_y
  _atom_site_fract_z
  _atom_site_occupancy
  Na  Na1       1.0  0.63557  0.25566  0.00752  1.0000
  Na  Na2       1.0  0.36443  0.24434  0.50752  1.0000
  Na  Na3       1.0  0.36442  0.74433  0.99248  1.0000
  Na  Na4       1.0  0.63557  0.75566  0.49248  1.0000
  H   H1        1.0  0.93366  0.55247  0.92656  1.0000
  H   H2        1.0  0.06633  0.94752  0.42656  1.0000
  H   H3        1.0  0.06632  0.44752  0.07343  1.0000
  H   H4        1.0  0.93368  0.05248  0.57343  1.0000
  H   H5        1.0  0.15256  0.89124  0.04793  1.0000
  H   H6        1.0  0.84742  0.60876  0.54792  1.0000
  H   H7        1.0  0.84744  0.10876  0.95208  1.0000
  H   H8        1.0  0.15257  0.39124  0.45208  1.0000
  H   H9        1.0  0.97417  0.75763  0.00340  1.0000
  H   H10       1.0  0.02582  0.74237  0.50340  1.0000
  H   H11       1.0  0.02583  0.24237  0.99660  1.0000
  H   H12       1.0  0.97418  0.25763  0.49661  1.0000
  H   H13       1.0  0.96451  0.89459  0.14714  1.0000
  H   H14       1.0  0.03547  0.60540  0.64714  1.0000
  H   H15       1.0  0.03549  0.10541  0.85286  1.0000
  H   H16       1.0  0.96452  0.39460  0.35286  1.0000
  H   H17       1.0  0.82344  0.67701  0.23328  1.0000
  H   H18       1.0  0.17656  0.82298  0.73328  1.0000
  H   H19       1.0  0.17656  0.32299  0.76672  1.0000
  H   H20       1.0  0.82345  0.17702  0.26672  1.0000
  H   H21       1.0  0.73355  0.42095  0.18073  1.0000
  H   H22       1.0  0.26645  0.07904  0.68073  1.0000
  H   H23       1.0  0.26645  0.57905  0.81927  1.0000
  H   H24       1.0  0.73355  0.92096  0.31927  1.0000
  H   H25       1.0  0.94019  0.46885  0.19088  1.0000
  H   H26       1.0  0.05981  0.03115  0.69088  1.0000
  H   H27       1.0  0.05980  0.53114  0.80911  1.0000
  H   H28       1.0  0.94020  0.96886  0.30911  1.0000
  H   H29       1.0  0.62892  0.57934  0.06523  1.0000
  H   H30       1.0  0.37108  0.92066  0.56523  1.0000
  H   H31       1.0  0.37108  0.42066  0.93477  1.0000
  H   H32       1.0  0.62893  0.07935  0.43477  1.0000
  H   H33       1.0  0.68137  0.86403  0.90609  1.0000
  H   H34       1.0  0.31864  0.63598  0.40610  1.0000
  H   H35       1.0  0.31864  0.13597  0.09391  1.0000
  H   H36       1.0  0.68136  0.36403  0.59391  1.0000
  H   H37       1.0  0.75628  0.75693  0.96411  1.0000
  H   H38       1.0  0.24373  0.74308  0.46412  1.0000
  H   H39       1.0  0.24373  0.24306  0.03588  1.0000
  H   H40       1.0  0.75627  0.25694  0.53589  1.0000
  H   H41       1.0  0.84665  0.82724  0.80564  1.0000
  H   H42       1.0  0.15334  0.67276  0.30564  1.0000
  H   H43       1.0  0.15334  0.17274  0.19435  1.0000
  H   H44       1.0  0.84666  0.32725  0.69436  1.0000
  H   H45       1.0  0.77756  0.58122  0.74620  1.0000
  H   H46       1.0  0.22244  0.91879  0.24620  1.0000
  H   H47       1.0  0.22242  0.41877  0.25380  1.0000
  H   H48       1.0  0.77758  0.08123  0.75380  1.0000
  H   H49       1.0  0.64991  0.34878  0.82644  1.0000
  H   H50       1.0  0.35010  0.15122  0.32644  1.0000
  H   H51       1.0  0.35008  0.65120  0.17356  1.0000
  H   H52       1.0  0.64991  0.84879  0.67356  1.0000
  H   H53       1.0  0.48774  0.39793  0.81461  1.0000
  H   H54       1.0  0.51226  0.10207  0.31462  1.0000
  H   H55       1.0  0.51225  0.60206  0.18538  1.0000
  H   H56       1.0  0.48775  0.89795  0.68539  1.0000
  C   C1        1.0  0.98999  0.48452  0.95472  1.0000
  C   C2        1.0  0.01001  0.01548  0.45472  1.0000
  C   C3        1.0  0.01000  0.51547  0.04528  1.0000
  C   C4        1.0  0.98999  0.98453  0.54528  1.0000
  C   C5        1.0  0.04968  0.77991  0.05723  1.0000
  C   C6        1.0  0.95030  0.72009  0.55723  1.0000
  C   C7        1.0  0.95032  0.22009  0.94277  1.0000
  C   C8        1.0  0.04969  0.27992  0.44278  1.0000
  C   C9        1.0  0.96092  0.78336  0.13169  1.0000
  C   C10       1.0  0.03908  0.71665  0.63169  1.0000
  C   C11       1.0  0.03908  0.21663  0.86832  1.0000
  C   C12       1.0  0.96092  0.28336  0.36831  1.0000
  C   C13       1.0  0.88035  0.66251  0.17883  1.0000
  C   C14       1.0  0.11963  0.83746  0.67882  1.0000
  C   C15       1.0  0.11965  0.33749  0.82117  1.0000
  C   C16       1.0  0.88037  0.16254  0.32118  1.0000
  C   C17       1.0  0.85314  0.50117  0.16061  1.0000
  C   C18       1.0  0.14686  0.99883  0.66061  1.0000
  C   C19       1.0  0.14686  0.49882  0.83939  1.0000
  C   C20       1.0  0.85314  0.00118  0.33939  1.0000
  C   C21       1.0  0.50624  0.50189  0.04615  1.0000
  C   C22       1.0  0.49375  0.99811  0.54615  1.0000
  C   C23       1.0  0.49375  0.49810  0.95385  1.0000
  C   C24       1.0  0.50625  0.00190  0.45386  1.0000
  C   C25       1.0  0.68613  0.75274  0.91025  1.0000
  C   C26       1.0  0.31387  0.74726  0.41025  1.0000
  C   C27       1.0  0.31387  0.24725  0.08975  1.0000
  C   C28       1.0  0.68613  0.25275  0.58975  1.0000
  C   C29       1.0  0.75952  0.72479  0.83570  1.0000
  C   C30       1.0  0.24048  0.77522  0.33570  1.0000
  C   C31       1.0  0.24048  0.27521  0.16430  1.0000
  C   C32       1.0  0.75952  0.22479  0.66431  1.0000
  C   C33       1.0  0.72258  0.58753  0.80296  1.0000
  C   C34       1.0  0.27742  0.91247  0.30297  1.0000
  C   C35       1.0  0.27741  0.41244  0.19703  1.0000
  C   C36       1.0  0.72259  0.08756  0.69704  1.0000
  C   C37       1.0  0.60983  0.43811  0.83899  1.0000
  C   C38       1.0  0.39018  0.06189  0.33898  1.0000
  C   C39       1.0  0.39016  0.56187  0.16102  1.0000
  C   C40       1.0  0.60984  0.93813  0.66102  1.0000
  Cl  Cl1       1.0  0.60858  0.97894  0.12181  1.0000
  Cl  Cl2       1.0  0.39142  0.52106  0.62181  1.0000
  Cl  Cl3       1.0  0.39141  0.02106  0.87819  1.0000
  Cl  Cl4       1.0  0.60859  0.47894  0.37819  1.0000
  O   O1        1.0  0.59603  0.92769  0.20386  1.0000
  O   O2        1.0  0.40398  0.57233  0.70386  1.0000
  O   O3        1.0  0.40397  0.07231  0.79614  1.0000
  O   O4        1.0  0.59602  0.42768  0.29614  1.0000
  O   O5        1.0  0.71434  0.14379  0.11705  1.0000
  O   O6        1.0  0.28567  0.35621  0.61706  1.0000
  O   O7        1.0  0.28566  0.85621  0.88295  1.0000
  O   O8        1.0  0.71434  0.64379  0.38294  1.0000
  O   O9        1.0  0.44908  0.95325  0.09159  1.0000
  O   O10       1.0  0.55093  0.54675  0.59159  1.0000
  O   O11       1.0  0.55091  0.04676  0.90841  1.0000
  O   O12       1.0  0.44909  0.45325  0.40841  1.0000
  O   O13       1.0  0.67132  0.89469  0.07102  1.0000
  O   O14       1.0  0.32869  0.60531  0.57102  1.0000
  O   O15       1.0  0.32868  0.10531  0.92898  1.0000
  O   O16       1.0  0.67133  0.39469  0.42898  1.0000
  O   O17       1.0  0.14356  0.52407  0.92443  1.0000
  O   O18       1.0  0.85644  0.97594  0.42444  1.0000
  O   O19       1.0  0.85643  0.47593  0.07557  1.0000
  O   O20       1.0  0.14356  0.02406  0.57556  1.0000
  O   O21       1.0  0.88229  0.32947  0.93755  1.0000
  O   O22       1.0  0.11771  0.17052  0.43756  1.0000
  O   O23       1.0  0.11770  0.67052  0.06244  1.0000
  O   O24       1.0  0.88229  0.82948  0.56244  1.0000
  O   O25       1.0  0.39452  0.55237  0.07446  1.0000
  O   O26       1.0  0.60548  0.94763  0.57446  1.0000
  O   O27       1.0  0.60547  0.44762  0.92554  1.0000
  O   O28       1.0  0.39453  0.05238  0.42554  1.0000
  O   O29       1.0  0.47967  0.35613  0.07856  1.0000
  O   O30       1.0  0.52033  0.14387  0.57856  1.0000
  O   O31       1.0  0.52034  0.64387  0.92145  1.0000
  O   O32       1.0  0.47967  0.85614  0.42145  1.0000
