data_image0
_chemical_formula_structural       ZnNi2H30C18O24
_chemical_formula_sum              "Zn1 Ni2 H30 C18 O24"
_cell_length_a       6.29328
_cell_length_b       10.8413
_cell_length_c       10.8412
_cell_angle_alpha    72.9809
_cell_angle_beta     72.429
_cell_angle_gamma    72.4288

_space_group_name_H-M_alt    "P 1"
_space_group_IT_number       1

loop_
  _space_group_symop_operation_xyz
  'x, y, z'

loop_
  _atom_site_type_symbol
  _atom_site_label
  _atom_site_symmetry_multiplicity
  _atom_site_fract_x
  _atom_site_fract_y
  _atom_site_fract_z
  _atom_site_occupancy
  Zn  Zn1       1.0  0.00000  0.01790  0.98210  1.0000
  Ni  Ni1       1.0  0.22559  0.47851  0.00291  1.0000
  Ni  Ni2       1.0  0.77441  0.99709  0.52149  1.0000
  H   H1        1.0  0.56006  0.61451  0.87026  1.0000
  H   H2        1.0  0.43994  0.12973  0.38549  1.0000
  H   H3        1.0  0.64261  0.51284  0.99717  1.0000
  H   H4        1.0  0.35740  0.00283  0.48716  1.0000
  H   H5        1.0  0.41939  0.26955  0.13100  1.0000
  H   H6        1.0  0.58061  0.86900  0.73045  1.0000
  H   H7        1.0  0.57981  0.27066  0.98087  1.0000
  H   H8        1.0  0.42018  0.01913  0.72934  1.0000
  H   H9        1.0  0.93655  0.33896  0.99128  1.0000
  H   H10       1.0  0.06345  0.00872  0.66104  1.0000
  H   H11       1.0  0.89043  0.35340  0.14088  1.0000
  H   H12       1.0  0.10957  0.85912  0.64660  1.0000
  H   H13       1.0  0.85703  0.68140  0.03031  1.0000
  H   H14       1.0  0.14297  0.96969  0.31860  1.0000
  H   H15       1.0  0.03385  0.69210  0.87859  1.0000
  H   H16       1.0  0.96615  0.12141  0.30790  1.0000
  H   H17       1.0  0.29626  0.15813  0.02359  1.0000
  H   H18       1.0  0.70374  0.97641  0.84187  1.0000
  H   H19       1.0  0.31885  0.00983  0.10681  1.0000
  H   H20       1.0  0.68115  0.89319  0.99017  1.0000
  H   H21       1.0  0.15488  0.76446  0.99121  1.0000
  H   H22       1.0  0.84512  0.00879  0.23554  1.0000
  H   H23       1.0  0.35603  0.80462  0.02469  1.0000
  H   H24       1.0  0.64397  0.97531  0.19538  1.0000
  H   H25       1.0  0.30368  0.78156  0.47955  1.0000
  H   H26       1.0  0.69631  0.52045  0.21844  1.0000
  H   H27       1.0  0.50000  0.36194  0.63806  1.0000
  H   H28       1.0  0.20222  0.21498  0.52536  1.0000
  H   H29       1.0  0.79777  0.47464  0.78502  1.0000
  H   H30       1.0  0.00000  0.63428  0.36572  1.0000
  C   C1        1.0  0.38771  0.57352  0.57426  1.0000
  C   C2        1.0  0.61229  0.42574  0.42648  1.0000
  C   C3        1.0  0.38954  0.68179  0.46588  1.0000
  C   C4        1.0  0.61046  0.53412  0.31821  1.0000
  C   C5        1.0  0.50000  0.66234  0.33766  1.0000
  C   C6        1.0  0.50000  0.44618  0.55382  1.0000
  C   C7        1.0  0.26664  0.58996  0.71230  1.0000
  C   C8        1.0  0.73336  0.28770  0.41004  1.0000
  C   C9        1.0  0.50000  0.77788  0.22212  1.0000
  C   C10       1.0  0.10970  0.42146  0.42973  1.0000
  C   C11       1.0  0.89030  0.57027  0.57854  1.0000
  C   C12       1.0  0.11300  0.31438  0.53892  1.0000
  C   C13       1.0  0.88700  0.46107  0.68561  1.0000
  C   C14       1.0  1.00000  0.33349  0.66651  1.0000
  C   C15       1.0  0.00000  0.54991  0.45009  1.0000
  C   C16       1.0  0.21740  0.39460  0.29307  1.0000
  C   C17       1.0  0.78260  0.70693  0.60539  1.0000
  C   C18       1.0  1.00000  0.21914  0.78087  1.0000
  O   O1        1.0  0.29228  0.48638  0.80501  1.0000
  O   O2        1.0  0.70772  0.19499  0.51362  1.0000
  O   O3        1.0  0.14233  0.70397  0.73004  1.0000
  O   O4        1.0  0.85768  0.26996  0.29603  1.0000
  O   O5        1.0  0.59039  0.75765  0.10476  1.0000
  O   O6        1.0  0.40961  0.89525  0.24236  1.0000
  O   O7        1.0  0.15942  0.48667  0.19680  1.0000
  O   O8        1.0  0.84059  0.80320  0.51333  1.0000
  O   O9        1.0  0.35468  0.28214  0.28112  1.0000
  O   O10       1.0  0.64532  0.71888  0.71786  1.0000
  O   O11       1.0  0.11173  0.10206  0.76469  1.0000
  O   O12       1.0  0.88826  0.23531  0.89794  1.0000
  O   O13       1.0  0.50619  0.56466  0.96254  1.0000
  O   O14       1.0  0.49381  0.03746  0.43534  1.0000
  O   O15       1.0  0.41944  0.28268  0.03329  1.0000
  O   O16       1.0  0.58056  0.96671  0.71732  1.0000
  O   O17       1.0  0.91987  0.40272  0.04484  1.0000
  O   O18       1.0  0.08013  0.95516  0.59728  1.0000
  O   O19       1.0  0.01938  0.66595  0.97930  1.0000
  O   O20       1.0  0.98062  0.02070  0.33405  1.0000
  O   O21       1.0  0.24078  0.07698  0.03998  1.0000
  O   O22       1.0  0.75922  0.96002  0.92302  1.0000
  O   O23       1.0  0.22416  0.83965  0.98298  1.0000
  O   O24       1.0  0.77584  0.01702  0.16035  1.0000
