data_image0
_chemical_formula_structural       Cd8H32C56N8O36
_chemical_formula_sum              "Cd8 H32 C56 N8 O36"
_cell_length_a       7.09006
_cell_length_b       14.0936
_cell_length_c       14.8541
_cell_angle_alpha    90.9929
_cell_angle_beta     90.0001
_cell_angle_gamma    90

_space_group_name_H-M_alt    "P 1"
_space_group_IT_number       1

loop_
  _space_group_symop_operation_xyz
  'x, y, z'

loop_
  _atom_site_type_symbol
  _atom_site_label
  _atom_site_symmetry_multiplicity
  _atom_site_fract_x
  _atom_site_fract_y
  _atom_site_fract_z
  _atom_site_occupancy
  Cd  Cd1       1.0  0.36432  0.32680  0.24667  1.0000
  Cd  Cd2       1.0  0.86432  0.17320  0.75333  1.0000
  Cd  Cd3       1.0  0.63568  0.67320  0.75333  1.0000
  Cd  Cd4       1.0  0.13568  0.82680  0.24667  1.0000
  Cd  Cd5       1.0  0.38750  0.95253  0.74593  1.0000
  Cd  Cd6       1.0  0.88750  0.54747  0.25407  1.0000
  Cd  Cd7       1.0  0.61250  0.04747  0.25407  1.0000
  Cd  Cd8       1.0  0.11250  0.45253  0.74593  1.0000
  H   H1        1.0  0.20350  0.37482  0.55473  1.0000
  H   H2        1.0  0.70350  0.12519  0.44527  1.0000
  H   H3        1.0  0.79650  0.62519  0.44527  1.0000
  H   H4        1.0  0.29650  0.87482  0.55473  1.0000
  H   H5        1.0  0.51638  0.41306  0.53329  1.0000
  H   H6        1.0  0.01638  0.08694  0.46671  1.0000
  H   H7        1.0  0.48362  0.58694  0.46671  1.0000
  H   H8        1.0  0.98362  0.91306  0.53329  1.0000
  H   H9        1.0  0.68835  0.43240  0.67792  1.0000
  H   H10       1.0  0.18836  0.06760  0.32208  1.0000
  H   H11       1.0  0.31164  0.56760  0.32208  1.0000
  H   H12       1.0  0.81164  0.93240  0.67792  1.0000
  H   H13       1.0  0.22850  0.90196  0.93660  1.0000
  H   H14       1.0  0.72849  0.59804  0.06340  1.0000
  H   H15       1.0  0.77150  0.09804  0.06340  1.0000
  H   H16       1.0  0.27151  0.40196  0.93660  1.0000
  H   H17       1.0  0.38537  0.23983  0.97845  1.0000
  H   H18       1.0  0.88537  0.26017  0.02155  1.0000
  H   H19       1.0  0.61464  0.76016  0.02155  1.0000
  H   H20       1.0  0.11463  0.73983  0.97845  1.0000
  H   H21       1.0  0.40908  0.15653  0.82885  1.0000
  H   H22       1.0  0.90907  0.34347  0.17115  1.0000
  H   H23       1.0  0.59092  0.84347  0.17115  1.0000
  H   H24       1.0  0.09092  0.65653  0.82885  1.0000
  H   H25       1.0  0.21696  0.77815  0.70660  1.0000
  H   H26       1.0  0.71696  0.72185  0.29340  1.0000
  H   H27       1.0  0.78303  0.22185  0.29340  1.0000
  H   H28       1.0  0.28304  0.27815  0.70660  1.0000
  H   H29       1.0  0.05527  0.82537  0.76891  1.0000
  H   H30       1.0  0.55527  0.67463  0.23109  1.0000
  H   H31       1.0  0.94473  0.17463  0.23109  1.0000
  H   H32       1.0  0.44473  0.32537  0.76891  1.0000
  C   C1        1.0  0.05167  0.38305  0.54727  1.0000
  C   C2        1.0  0.55167  0.11695  0.45273  1.0000
  C   C3        1.0  0.94833  0.61695  0.45273  1.0000
  C   C4        1.0  0.44833  0.88305  0.54727  1.0000
  C   C5        1.0  0.96737  0.37358  0.46289  1.0000
  C   C6        1.0  0.46737  0.12642  0.53711  1.0000
  C   C7        1.0  0.03263  0.62642  0.53711  1.0000
  C   C8        1.0  0.53263  0.87358  0.46289  1.0000
  C   C9        1.0  0.77176  0.38624  0.45620  1.0000
  C   C10       1.0  0.27177  0.11376  0.54380  1.0000
  C   C11       1.0  0.22823  0.61376  0.54380  1.0000
  C   C12       1.0  0.72824  0.88624  0.45620  1.0000
  C   C13       1.0  0.66870  0.40422  0.53480  1.0000
  C   C14       1.0  0.16870  0.09578  0.46520  1.0000
  C   C15       1.0  0.33130  0.59578  0.46520  1.0000
  C   C16       1.0  0.83130  0.90422  0.53480  1.0000
  C   C17       1.0  0.76369  0.41447  0.61608  1.0000
  C   C18       1.0  0.26370  0.08553  0.38392  1.0000
  C   C19       1.0  0.23630  0.58553  0.38392  1.0000
  C   C20       1.0  0.73631  0.91447  0.61608  1.0000
  C   C21       1.0  0.08445  0.35745  0.38042  1.0000
  C   C22       1.0  0.58445  0.14256  0.61958  1.0000
  C   C23       1.0  0.91555  0.64256  0.61958  1.0000
  C   C24       1.0  0.41556  0.85744  0.38042  1.0000
  C   C25       1.0  0.67264  0.38519  0.36682  1.0000
  C   C26       1.0  0.17264  0.11481  0.63318  1.0000
  C   C27       1.0  0.32736  0.61481  0.63318  1.0000
  C   C28       1.0  0.82737  0.88519  0.36682  1.0000
  C   C29       1.0  0.25973  0.97701  0.94772  1.0000
  C   C30       1.0  0.75973  0.52299  0.05228  1.0000
  C   C31       1.0  0.74027  0.02299  0.05228  1.0000
  C   C32       1.0  0.24027  0.47701  0.94772  1.0000
  C   C33       1.0  0.24376  0.01738  0.03383  1.0000
  C   C34       1.0  0.74376  0.48262  0.96617  1.0000
  C   C35       1.0  0.75624  0.98262  0.96617  1.0000
  C   C36       1.0  0.25624  0.51738  0.03383  1.0000
  C   C37       1.0  0.28977  0.11352  0.04599  1.0000
  C   C38       1.0  0.78977  0.38648  0.95401  1.0000
  C   C39       1.0  0.71023  0.88648  0.95401  1.0000
  C   C40       1.0  0.21023  0.61352  0.04599  1.0000
  C   C41       1.0  0.34657  0.16531  0.97123  1.0000
  C   C42       1.0  0.84657  0.33469  0.02877  1.0000
  C   C43       1.0  0.65343  0.83469  0.02877  1.0000
  C   C44       1.0  0.15343  0.66531  0.97123  1.0000
  C   C45       1.0  0.35949  0.11969  0.88804  1.0000
  C   C46       1.0  0.85949  0.38031  0.11196  1.0000
  C   C47       1.0  0.64051  0.88030  0.11196  1.0000
  C   C48       1.0  0.14051  0.61969  0.88804  1.0000
  C   C49       1.0  0.19350  0.95755  0.11246  1.0000
  C   C50       1.0  0.69350  0.54245  0.88754  1.0000
  C   C51       1.0  0.80650  0.04245  0.88754  1.0000
  C   C52       1.0  0.30650  0.45755  0.11246  1.0000
  C   C53       1.0  0.28192  0.16512  0.13531  1.0000
  C   C54       1.0  0.78192  0.33488  0.86469  1.0000
  C   C55       1.0  0.71808  0.83488  0.86469  1.0000
  C   C56       1.0  0.21808  0.66512  0.13531  1.0000
  N   N1        1.0  0.31856  0.02665  0.87657  1.0000
  N   N2        1.0  0.81856  0.47335  0.12344  1.0000
  N   N3        1.0  0.68144  0.97335  0.12344  1.0000
  N   N4        1.0  0.18144  0.52665  0.87656  1.0000
  N   N5        1.0  0.95299  0.40591  0.62173  1.0000
  N   N6        1.0  0.45299  0.09409  0.37827  1.0000
  N   N7        1.0  0.04701  0.59409  0.37827  1.0000
  N   N8        1.0  0.54701  0.90591  0.62173  1.0000
  O   O1        1.0  0.63149  0.30441  0.33154  1.0000
  O   O2        1.0  0.13148  0.19559  0.66846  1.0000
  O   O3        1.0  0.36852  0.69559  0.66846  1.0000
  O   O4        1.0  0.86852  0.80441  0.33154  1.0000
  O   O5        1.0  0.62450  0.46406  0.33539  1.0000
  O   O6        1.0  0.12449  0.03594  0.66461  1.0000
  O   O7        1.0  0.37551  0.53594  0.66461  1.0000
  O   O8        1.0  0.87551  0.96406  0.33539  1.0000
  O   O9        1.0  0.01613  0.38039  0.30468  1.0000
  O   O10       1.0  0.51613  0.11961  0.69532  1.0000
  O   O11       1.0  0.98387  0.61961  0.69532  1.0000
  O   O12       1.0  0.48387  0.88039  0.30468  1.0000
  O   O13       1.0  0.24876  0.32245  0.39008  1.0000
  O   O14       1.0  0.74876  0.17755  0.60992  1.0000
  O   O15       1.0  0.75124  0.67755  0.60992  1.0000
  O   O16       1.0  0.25124  0.82245  0.39008  1.0000
  O   O17       1.0  0.12915  0.20416  0.15837  1.0000
  O   O18       1.0  0.62915  0.29584  0.84163  1.0000
  O   O19       1.0  0.87085  0.79584  0.84163  1.0000
  O   O20       1.0  0.37085  0.70416  0.15837  1.0000
  O   O21       1.0  0.43916  0.17736  0.17684  1.0000
  O   O22       1.0  0.93916  0.32264  0.82316  1.0000
  O   O23       1.0  0.56084  0.82264  0.82316  1.0000
  O   O24       1.0  0.06084  0.67736  0.17684  1.0000
  O   O25       1.0  0.22962  0.99019  0.19081  1.0000
  O   O26       1.0  0.72962  0.50981  0.80919  1.0000
  O   O27       1.0  0.77038  0.00981  0.80919  1.0000
  O   O28       1.0  0.27038  0.49019  0.19081  1.0000
  O   O29       1.0  0.12183  0.87560  0.09784  1.0000
  O   O30       1.0  0.62183  0.62440  0.90216  1.0000
  O   O31       1.0  0.87816  0.12440  0.90216  1.0000
  O   O32       1.0  0.37816  0.37560  0.09784  1.0000
  O   O33       1.0  0.15678  0.83905  0.72541  1.0000
  O   O34       1.0  0.65678  0.66095  0.27459  1.0000
  O   O35       1.0  0.84322  0.16095  0.27459  1.0000
  O   O36       1.0  0.34322  0.33905  0.72541  1.0000
