data_image0
_chemical_formula_structural       H16Pb2C20O14
_chemical_formula_sum              "H16 Pb2 C20 O14"
_cell_length_a       6.58693
_cell_length_b       8.18684
_cell_length_c       10.7445
_cell_angle_alpha    80.5219
_cell_angle_beta     76.7083
_cell_angle_gamma    81.1945

_space_group_name_H-M_alt    "P 1"
_space_group_IT_number       1

loop_
  _space_group_symop_operation_xyz
  'x, y, z'

loop_
  _atom_site_type_symbol
  _atom_site_label
  _atom_site_symmetry_multiplicity
  _atom_site_fract_x
  _atom_site_fract_y
  _atom_site_fract_z
  _atom_site_occupancy
  H   H1        1.0  0.65398  0.22292  0.29339  1.0000
  H   H2        1.0  0.34601  0.77708  0.70660  1.0000
  H   H3        1.0  0.68513  0.99947  0.11931  1.0000
  H   H4        1.0  0.31488  0.00052  0.88067  1.0000
  H   H5        1.0  0.25119  0.90148  0.23719  1.0000
  H   H6        1.0  0.74881  0.09853  0.76281  1.0000
  H   H7        1.0  0.84862  0.52789  0.16999  1.0000
  H   H8        1.0  0.15139  0.47208  0.83002  1.0000
  H   H9        1.0  0.91227  0.70549  0.92555  1.0000
  H   H10       1.0  0.08775  0.29449  0.07445  1.0000
  H   H11       1.0  0.26691  0.72704  0.04160  1.0000
  H   H12       1.0  0.73311  0.27297  0.95840  1.0000
  H   H13       1.0  0.60151  0.04398  0.59470  1.0000
  H   H14       1.0  0.39849  0.95602  0.40529  1.0000
  H   H15       1.0  0.68930  0.21506  0.53497  1.0000
  H   H16       1.0  0.31069  0.78494  0.46502  1.0000
  Pb  Pb1       1.0  0.23986  0.35776  0.56075  1.0000
  Pb  Pb2       1.0  0.76013  0.64225  0.43925  1.0000
  C   C1        1.0  0.04853  0.18097  0.39364  1.0000
  C   C2        1.0  0.95146  0.81904  0.60636  1.0000
  C   C3        1.0  0.98193  0.09649  0.30133  1.0000
  C   C4        1.0  0.01806  0.90351  0.69867  1.0000
  C   C5        1.0  0.78370  0.13047  0.26085  1.0000
  C   C6        1.0  0.21629  0.86953  0.73913  1.0000
  C   C7        1.0  0.79292  0.02346  0.17471  1.0000
  C   C8        1.0  0.20709  0.97653  0.82528  1.0000
  C   C9        1.0  0.09719  0.97016  0.23624  1.0000
  C   C10       1.0  0.90280  0.02984  0.76376  1.0000
  C   C11       1.0  0.37915  0.53103  0.28143  1.0000
  C   C12       1.0  0.62083  0.46897  0.71857  1.0000
  C   C13       1.0  0.50606  0.59857  0.15677  1.0000
  C   C14       1.0  0.49394  0.40143  0.84324  1.0000
  C   C15       1.0  0.73138  0.59096  0.11648  1.0000
  C   C16       1.0  0.26861  0.40904  0.88353  1.0000
  C   C17       1.0  0.77076  0.67701  0.99538  1.0000
  C   C18       1.0  0.22926  0.32298  0.00463  1.0000
  C   C19       1.0  0.42570  0.68887  0.05578  1.0000
  C   C20       1.0  0.57432  0.31113  0.94423  1.0000
  O   O1        1.0  0.91354  0.28329  0.45692  1.0000
  O   O2        1.0  0.08645  0.71672  0.54308  1.0000
  O   O3        1.0  0.23896  0.15003  0.40859  1.0000
  O   O4        1.0  0.76102  0.84998  0.59140  1.0000
  O   O5        1.0  0.98436  0.92388  0.15906  1.0000
  O   O6        1.0  0.01564  0.07612  0.84094  1.0000
  O   O7        1.0  0.18389  0.53498  0.29659  1.0000
  O   O8        1.0  0.81611  0.46501  0.70341  1.0000
  O   O9        1.0  0.48198  0.46932  0.37238  1.0000
  O   O10       1.0  0.51802  0.53067  0.62763  1.0000
  O   O11       1.0  0.58431  0.73870  0.95722  1.0000
  O   O12       1.0  0.41570  0.26131  0.04279  1.0000
  O   O13       1.0  0.56247  0.16652  0.59042  1.0000
  O   O14       1.0  0.43753  0.83348  0.40958  1.0000
