data_image0
_chemical_formula_structural       Tb2Cr2H36C32N16O12
_chemical_formula_sum              "Tb2 Cr2 H36 C32 N16 O12"
_cell_length_a       9.11792
_cell_length_b       9.11734
_cell_length_c       16.682
_cell_angle_alpha    98.2213
_cell_angle_beta     98.0687
_cell_angle_gamma    118.837

_space_group_name_H-M_alt    "P 1"
_space_group_IT_number       1

loop_
  _space_group_symop_operation_xyz
  'x, y, z'

loop_
  _atom_site_type_symbol
  _atom_site_label
  _atom_site_symmetry_multiplicity
  _atom_site_fract_x
  _atom_site_fract_y
  _atom_site_fract_z
  _atom_site_occupancy
  Tb  Tb1       1.0  0.90241  0.15253  0.25004  1.0000
  Tb  Tb2       1.0  0.09759  0.84747  0.74996  1.0000
  Cr  Cr1       1.0  0.50000  0.50000  0.50000  1.0000
  Cr  Cr2       1.0  1.00000  0.49999  1.00000  1.0000
  H   H1        1.0  0.73863  0.12971  0.07461  1.0000
  H   H2        1.0  0.05523  0.16407  0.42548  1.0000
  H   H3        1.0  0.26136  0.87029  0.92539  1.0000
  H   H4        1.0  0.94477  0.83593  0.57452  1.0000
  H   H5        1.0  0.58326  0.97779  0.09995  1.0000
  H   H6        1.0  0.87796  0.98336  0.40005  1.0000
  H   H7        1.0  0.41673  0.02221  0.90005  1.0000
  H   H8        1.0  0.12204  0.01664  0.59996  1.0000
  H   H9        1.0  0.76935  0.78245  0.15980  1.0000
  H   H10       1.0  0.62279  0.10970  0.34026  1.0000
  H   H11       1.0  0.23065  0.21755  0.84020  1.0000
  H   H12       1.0  0.37721  0.89030  0.65974  1.0000
  H   H13       1.0  0.64039  0.75112  0.21955  1.0000
  H   H14       1.0  0.53154  0.92087  0.28048  1.0000
  H   H15       1.0  0.35961  0.24889  0.78045  1.0000
  H   H16       1.0  0.46846  0.07913  0.71952  1.0000
  H   H17       1.0  0.64356  0.35299  0.10538  1.0000
  H   H18       1.0  0.24860  0.03881  0.39487  1.0000
  H   H19       1.0  0.35644  0.64701  0.89462  1.0000
  H   H20       1.0  0.75140  0.96119  0.60513  1.0000
  H   H21       1.0  0.40316  0.18365  0.29441  1.0000
  H   H22       1.0  0.88961  0.60934  0.20579  1.0000
  H   H23       1.0  0.59685  0.81635  0.70559  1.0000
  H   H24       1.0  0.11039  0.39067  0.79421  1.0000
  H   H25       1.0  0.08835  0.11448  0.05646  1.0000
  H   H26       1.0  0.05850  0.53245  0.44370  1.0000
  H   H27       1.0  0.91165  0.88552  0.94354  1.0000
  H   H28       1.0  0.94150  0.46755  0.55631  1.0000
  H   H29       1.0  0.35800  0.25427  0.00665  1.0000
  H   H30       1.0  0.24851  0.85198  0.49354  1.0000
  H   H31       1.0  0.64200  0.74573  0.99335  1.0000
  H   H32       1.0  0.75149  0.14802  0.50646  1.0000
  H   H33       1.0  0.64619  0.30662  0.23933  1.0000
  H   H34       1.0  0.06777  0.90749  0.26094  1.0000
  H   H35       1.0  0.35381  0.69338  0.76067  1.0000
  H   H36       1.0  0.93224  0.09251  0.73906  1.0000
  C   C1        1.0  0.56975  0.33855  0.44731  1.0000
  C   C2        1.0  0.89082  0.62207  0.05270  1.0000
  C   C3        1.0  0.43025  0.66146  0.55269  1.0000
  C   C4        1.0  0.10917  0.37791  0.94730  1.0000
  C   C5        1.0  0.66839  0.69217  0.45637  1.0000
  C   C6        1.0  0.23590  0.71198  0.04371  1.0000
  C   C7        1.0  0.33162  0.30784  0.54364  1.0000
  C   C8        1.0  0.76409  0.28802  0.95628  1.0000
  C   C9        1.0  0.31402  0.42578  0.39627  1.0000
  C   C10       1.0  0.02942  0.41770  0.10370  1.0000
  C   C11       1.0  0.68598  0.57422  0.60373  1.0000
  C   C12       1.0  0.97058  0.58229  0.89630  1.0000
  C   C13       1.0  0.21867  0.13356  0.17954  1.0000
  C   C14       1.0  0.95463  0.53972  0.32059  1.0000
  C   C15       1.0  0.78133  0.86644  0.82046  1.0000
  C   C16       1.0  0.04537  0.46028  0.67941  1.0000
  C   C17       1.0  0.52122  0.29126  0.12282  1.0000
  C   C18       1.0  0.16941  0.89900  0.37738  1.0000
  C   C19       1.0  0.47879  0.70874  0.87718  1.0000
  C   C20       1.0  0.83059  0.10101  0.62262  1.0000
  C   C21       1.0  0.36325  0.23544  0.06965  1.0000
  C   C22       1.0  0.16667  0.79420  0.43053  1.0000
  C   C23       1.0  0.63675  0.76456  0.93035  1.0000
  C   C24       1.0  0.83333  0.20581  0.56947  1.0000
  C   C25       1.0  0.21285  0.15695  0.09732  1.0000
  C   C26       1.0  0.06027  0.61608  0.40282  1.0000
  C   C27       1.0  0.78715  0.84305  0.90268  1.0000
  C   C28       1.0  0.93973  0.38392  0.59718  1.0000
  C   C29       1.0  0.38309  0.19300  0.23010  1.0000
  C   C30       1.0  0.96351  0.65361  0.27008  1.0000
  C   C31       1.0  0.61691  0.80700  0.76990  1.0000
  C   C32       1.0  0.03650  0.34639  0.72992  1.0000
  N   N1        1.0  0.76598  0.80807  0.43249  1.0000
  N   N2        1.0  0.37573  0.83343  0.06753  1.0000
  N   N3        1.0  0.23402  0.19193  0.56751  1.0000
  N   N4        1.0  0.62426  0.16656  0.93247  1.0000
  N   N5        1.0  0.60273  0.23855  0.41502  1.0000
  N   N6        1.0  0.82298  0.68720  0.08495  1.0000
  N   N7        1.0  0.39727  0.76145  0.58498  1.0000
  N   N8        1.0  0.17702  0.31278  0.91505  1.0000
  N   N9        1.0  0.19503  0.37221  0.33954  1.0000
  N   N10       1.0  0.03254  0.35546  0.16042  1.0000
  N   N11       1.0  0.80497  0.62779  0.66046  1.0000
  N   N12       1.0  0.96746  0.64453  0.83958  1.0000
  N   N13       1.0  0.52540  0.26805  0.20077  1.0000
  N   N14       1.0  0.06801  0.82526  0.29945  1.0000
  N   N15       1.0  0.47460  0.73195  0.79923  1.0000
  N   N16       1.0  0.93199  0.17474  0.70055  1.0000
  O   O1        1.0  0.74834  0.83751  0.21053  1.0000
  O   O2        1.0  0.62711  0.03781  0.28958  1.0000
  O   O3        1.0  0.25166  0.16248  0.78947  1.0000
  O   O4        1.0  0.37290  0.96219  0.71042  1.0000
  O   O5        1.0  0.71069  0.06725  0.11816  1.0000
  O   O6        1.0  0.94921  0.09259  0.38189  1.0000
  O   O7        1.0  0.28931  0.93275  0.88184  1.0000
  O   O8        1.0  0.05079  0.90742  0.61811  1.0000
  O   O9        1.0  0.07976  0.06077  0.20880  1.0000
  O   O10       1.0  0.85231  0.37149  0.29131  1.0000
  O   O11       1.0  0.92025  0.93923  0.79120  1.0000
  O   O12       1.0  0.14769  0.62851  0.70869  1.0000
