data_image0
_chemical_formula_structural       Cu2H20C24N8O12
_chemical_formula_sum              "Cu2 H20 C24 N8 O12"
_cell_length_a       8.04766
_cell_length_b       8.82474
_cell_length_c       10.1888
_cell_angle_alpha    90.0004
_cell_angle_beta     96.947
_cell_angle_gamma    89.9989

_space_group_name_H-M_alt    "P 1"
_space_group_IT_number       1

loop_
  _space_group_symop_operation_xyz
  'x, y, z'

loop_
  _atom_site_type_symbol
  _atom_site_label
  _atom_site_symmetry_multiplicity
  _atom_site_fract_x
  _atom_site_fract_y
  _atom_site_fract_z
  _atom_site_occupancy
  Cu  Cu1       1.0  0.00001  0.00000  1.00000  1.0000
  Cu  Cu2       1.0  0.50000  0.50000  0.50000  1.0000
  H   H1        1.0  0.49344  0.00123  0.85671  1.0000
  H   H2        1.0  0.00656  0.50123  0.64330  1.0000
  H   H3        1.0  0.50656  0.99877  0.14329  1.0000
  H   H4        1.0  0.99344  0.49877  0.35670  1.0000
  H   H5        1.0  0.17347  0.83286  0.74866  1.0000
  H   H6        1.0  0.32653  0.33286  0.75134  1.0000
  H   H7        1.0  0.82653  0.16714  0.25134  1.0000
  H   H8        1.0  0.67347  0.66714  0.24866  1.0000
  H   H9        1.0  0.37854  0.76934  0.72467  1.0000
  H   H10       1.0  0.12146  0.26934  0.77533  1.0000
  H   H11       1.0  0.62146  0.23066  0.27533  1.0000
  H   H12       1.0  0.87854  0.73066  0.22467  1.0000
  H   H13       1.0  0.40022  0.85775  0.94612  1.0000
  H   H14       1.0  0.09979  0.35775  0.55389  1.0000
  H   H15       1.0  0.59978  0.14225  0.05388  1.0000
  H   H16       1.0  0.90021  0.64225  0.44611  1.0000
  H   H17       1.0  0.31135  0.14810  0.94317  1.0000
  H   H18       1.0  0.18865  0.64810  0.55683  1.0000
  H   H19       1.0  0.68865  0.85190  0.05683  1.0000
  H   H20       1.0  0.81135  0.35190  0.44317  1.0000
  C   C1        1.0  0.17429  0.04283  0.29079  1.0000
  C   C2        1.0  0.32572  0.54283  0.20923  1.0000
  C   C3        1.0  0.82571  0.95717  0.70921  1.0000
  C   C4        1.0  0.67428  0.45717  0.79077  1.0000
  C   C5        1.0  0.35321  0.18118  0.45257  1.0000
  C   C6        1.0  0.14679  0.68119  0.04743  1.0000
  C   C7        1.0  0.64678  0.81882  0.54743  1.0000
  C   C8        1.0  0.85321  0.31882  0.95257  1.0000
  C   C9        1.0  0.24964  0.05762  0.42071  1.0000
  C   C10       1.0  0.25036  0.55762  0.07930  1.0000
  C   C11       1.0  0.75035  0.94238  0.57930  1.0000
  C   C12       1.0  0.74964  0.44237  0.92070  1.0000
  C   C13       1.0  0.22330  0.94283  0.51872  1.0000
  C   C14       1.0  0.27672  0.44282  0.98129  1.0000
  C   C15       1.0  0.77670  0.05717  0.48128  1.0000
  C   C16       1.0  0.72328  0.55718  0.01871  1.0000
  C   C17       1.0  0.30321  0.86868  0.74410  1.0000
  C   C18       1.0  0.19679  0.36868  0.75590  1.0000
  C   C19       1.0  0.69679  0.13132  0.25590  1.0000
  C   C20       1.0  0.80321  0.63132  0.24410  1.0000
  C   C21       1.0  0.37380  0.94623  0.87016  1.0000
  C   C22       1.0  0.12620  0.44623  0.62984  1.0000
  C   C23       1.0  0.62620  0.05377  0.12984  1.0000
  C   C24       1.0  0.87380  0.55377  0.37016  1.0000
  N   N1        1.0  0.11094  0.03311  0.18163  1.0000
  N   N2        1.0  0.38905  0.53312  0.31837  1.0000
  N   N3        1.0  0.88906  0.96688  0.81837  1.0000
  N   N4        1.0  0.61095  0.46688  0.68163  1.0000
  N   N5        1.0  0.44811  0.28145  0.47620  1.0000
  N   N6        1.0  0.05190  0.78144  0.02380  1.0000
  N   N7        1.0  0.55189  0.71855  0.52380  1.0000
  N   N8        1.0  0.94810  0.21855  0.97620  1.0000
  O   O1        1.0  0.13490  0.82879  0.49501  1.0000
  O   O2        1.0  0.36509  0.32881  0.00500  1.0000
  O   O3        1.0  0.86510  0.17121  0.50499  1.0000
  O   O4        1.0  0.63491  0.67119  0.99500  1.0000
  O   O5        1.0  0.30794  0.97721  0.63720  1.0000
  O   O6        1.0  0.19206  0.47722  0.86281  1.0000
  O   O7        1.0  0.69206  0.02279  0.36280  1.0000
  O   O8        1.0  0.80794  0.52278  0.13719  1.0000
  O   O9        1.0  0.25621  0.05363  0.90838  1.0000
  O   O10       1.0  0.24379  0.55363  0.59162  1.0000
  O   O11       1.0  0.74379  0.94637  0.09162  1.0000
  O   O12       1.0  0.75621  0.44637  0.40838  1.0000
