data_image0
_chemical_formula_structural       Zn4H16C4S4N4O12
_chemical_formula_sum              "Zn4 H16 C4 S4 N4 O12"
_cell_length_a       4.83732
_cell_length_b       6.23158
_cell_length_c       15.216
_cell_angle_alpha    90.0001
_cell_angle_beta     90.0001
_cell_angle_gamma    91.2135

_space_group_name_H-M_alt    "P 1"
_space_group_IT_number       1

loop_
  _space_group_symop_operation_xyz
  'x, y, z'

loop_
  _atom_site_type_symbol
  _atom_site_label
  _atom_site_symmetry_multiplicity
  _atom_site_fract_x
  _atom_site_fract_y
  _atom_site_fract_z
  _atom_site_occupancy
  Zn  Zn1       1.0  0.48877  0.82750  0.80451  1.0000
  Zn  Zn2       1.0  0.01123  0.67250  0.30451  1.0000
  Zn  Zn3       1.0  0.51122  0.17250  0.19549  1.0000
  Zn  Zn4       1.0  0.98877  0.32750  0.69549  1.0000
  H   H1        1.0  0.39488  0.44587  0.85378  1.0000
  H   H2        1.0  0.10512  0.05413  0.35377  1.0000
  H   H3        1.0  0.60512  0.55414  0.14623  1.0000
  H   H4        1.0  0.89488  0.94587  0.64622  1.0000
  H   H5        1.0  0.72514  0.50032  0.86889  1.0000
  H   H6        1.0  0.77487  0.99968  0.36889  1.0000
  H   H7        1.0  0.27488  0.49968  0.13111  1.0000
  H   H8        1.0  0.22514  0.00032  0.63111  1.0000
  H   H9        1.0  0.25515  0.64353  0.97764  1.0000
  H   H10       1.0  0.24485  0.85647  0.47764  1.0000
  H   H11       1.0  0.74485  0.35647  0.02236  1.0000
  H   H12       1.0  0.75515  0.14353  0.52235  1.0000
  H   H13       1.0  0.59703  0.73689  0.99508  1.0000
  H   H14       1.0  0.90298  0.76311  0.49508  1.0000
  H   H15       1.0  0.40297  0.26312  0.00492  1.0000
  H   H16       1.0  0.09703  0.23689  0.50492  1.0000
  C   C1        1.0  0.47313  0.59856  0.97183  1.0000
  C   C2        1.0  0.02687  0.90144  0.47183  1.0000
  C   C3        1.0  0.52686  0.40145  0.02817  1.0000
  C   C4        1.0  0.97313  0.09856  0.52817  1.0000
  S   S1        1.0  0.48919  0.59315  0.62482  1.0000
  S   S2        1.0  0.01080  0.90686  0.12482  1.0000
  S   S3        1.0  0.51081  0.40686  0.37518  1.0000
  S   S4        1.0  0.98919  0.09315  0.87518  1.0000
  N   N1        1.0  0.53129  0.56153  0.87771  1.0000
  N   N2        1.0  0.96871  0.93847  0.37771  1.0000
  N   N3        1.0  0.46872  0.43848  0.12229  1.0000
  N   N4        1.0  0.03130  0.06152  0.62229  1.0000
  O   O1        1.0  0.55135  0.80736  0.67641  1.0000
  O   O2        1.0  0.94865  0.69265  0.17641  1.0000
  O   O3        1.0  0.44865  0.19264  0.32359  1.0000
  O   O4        1.0  0.05135  0.30735  0.82359  1.0000
  O   O5        1.0  0.17327  0.56462  0.62969  1.0000
  O   O6        1.0  0.32672  0.93538  0.12970  1.0000
  O   O7        1.0  0.82673  0.43538  0.37031  1.0000
  O   O8        1.0  0.67327  0.06462  0.87030  1.0000
  O   O9        1.0  0.59174  0.41094  0.68460  1.0000
  O   O10       1.0  0.90825  0.08906  0.18460  1.0000
  O   O11       1.0  0.40825  0.58906  0.31540  1.0000
  O   O12       1.0  0.09175  0.91094  0.81540  1.0000
