data_image0
_chemical_formula_structural       Zn4H40C16S4N8O12
_chemical_formula_sum              "Zn4 H40 C16 S4 N8 O12"
_cell_length_a       7.2744
_cell_length_b       8.27602
_cell_length_c       12.1376
_cell_angle_alpha    90
_cell_angle_beta     90
_cell_angle_gamma    90

_space_group_name_H-M_alt    "P 1"
_space_group_IT_number       1

loop_
  _space_group_symop_operation_xyz
  'x, y, z'

loop_
  _atom_site_type_symbol
  _atom_site_label
  _atom_site_symmetry_multiplicity
  _atom_site_fract_x
  _atom_site_fract_y
  _atom_site_fract_z
  _atom_site_occupancy
  Zn  Zn1       1.0  0.08841  0.63659  0.01358  1.0000
  Zn  Zn2       1.0  0.41159  0.36341  0.51358  1.0000
  Zn  Zn3       1.0  0.91160  0.13659  0.48642  1.0000
  Zn  Zn4       1.0  0.58841  0.86341  0.98643  1.0000
  H   H1        1.0  0.37268  0.61237  0.13168  1.0000
  H   H2        1.0  0.12732  0.38763  0.63167  1.0000
  H   H3        1.0  0.62732  0.11237  0.36833  1.0000
  H   H4        1.0  0.87268  0.88763  0.86833  1.0000
  H   H5        1.0  0.42129  0.64989  0.34878  1.0000
  H   H6        1.0  0.07871  0.35011  0.84878  1.0000
  H   H7        1.0  0.57871  0.14989  0.15122  1.0000
  H   H8        1.0  0.92129  0.85011  0.65122  1.0000
  H   H9        1.0  0.21518  0.66962  0.42535  1.0000
  H   H10       1.0  0.28482  0.33038  0.92535  1.0000
  H   H11       1.0  0.78482  0.16962  0.07465  1.0000
  H   H12       1.0  0.71517  0.83038  0.57465  1.0000
  H   H13       1.0  0.02557  0.62114  0.25976  1.0000
  H   H14       1.0  0.47443  0.37886  0.75976  1.0000
  H   H15       1.0  0.97443  0.12114  0.24024  1.0000
  H   H16       1.0  0.52557  0.87886  0.74024  1.0000
  H   H17       1.0  0.17835  0.78744  0.23670  1.0000
  H   H18       1.0  0.32165  0.21256  0.73671  1.0000
  H   H19       1.0  0.82165  0.28744  0.26329  1.0000
  H   H20       1.0  0.67835  0.71256  0.76329  1.0000
  H   H21       1.0  0.33096  0.21742  0.28553  1.0000
  H   H22       1.0  0.16905  0.78258  0.78553  1.0000
  H   H23       1.0  0.66904  0.71742  0.21447  1.0000
  H   H24       1.0  0.83096  0.28258  0.71447  1.0000
  H   H25       1.0  0.49474  0.37659  0.26616  1.0000
  H   H26       1.0  0.00526  0.62341  0.76616  1.0000
  H   H27       1.0  0.50526  0.87659  0.23384  1.0000
  H   H28       1.0  0.99474  0.12341  0.73384  1.0000
  H   H29       1.0  0.31549  0.34050  0.09769  1.0000
  H   H30       1.0  0.18451  0.65950  0.59769  1.0000
  H   H31       1.0  0.68451  0.84050  0.40231  1.0000
  H   H32       1.0  0.81549  0.15950  0.90231  1.0000
  H   H33       1.0  0.10372  0.35394  0.16901  1.0000
  H   H34       1.0  0.39628  0.64606  0.66901  1.0000
  H   H35       1.0  0.89628  0.85394  0.33099  1.0000
  H   H36       1.0  0.60372  0.14606  0.83099  1.0000
  H   H37       1.0  0.14630  0.39749  0.39063  1.0000
  H   H38       1.0  0.35370  0.60251  0.89063  1.0000
  H   H39       1.0  0.85370  0.89749  0.10937  1.0000
  H   H40       1.0  0.64630  0.10251  0.60937  1.0000
  C   C1        1.0  0.27737  0.61033  0.35373  1.0000
  C   C2        1.0  0.22263  0.38967  0.85373  1.0000
  C   C3        1.0  0.72263  0.11033  0.14627  1.0000
  C   C4        1.0  0.77737  0.88967  0.64627  1.0000
  C   C5        1.0  0.17078  0.65649  0.25068  1.0000
  C   C6        1.0  0.32922  0.34351  0.75068  1.0000
  C   C7        1.0  0.82922  0.15649  0.24932  1.0000
  C   C8        1.0  0.67078  0.84351  0.74932  1.0000
  C   C9        1.0  0.34750  0.34789  0.27291  1.0000
  C   C10       1.0  0.15250  0.65211  0.77291  1.0000
  C   C11       1.0  0.65250  0.84789  0.22709  1.0000
  C   C12       1.0  0.84750  0.15211  0.72709  1.0000
  C   C13       1.0  0.24652  0.39686  0.16816  1.0000
  C   C14       1.0  0.25348  0.60314  0.66816  1.0000
  C   C15       1.0  0.75348  0.89686  0.33184  1.0000
  C   C16       1.0  0.74652  0.10314  0.83184  1.0000
  S   S1        1.0  0.19654  0.01164  0.01340  1.0000
  S   S2        1.0  0.30346  0.98836  0.51340  1.0000
  S   S3        1.0  0.80346  0.51164  0.48660  1.0000
  S   S4        1.0  0.69654  0.48836  0.98660  1.0000
  N   N1        1.0  0.24154  0.57421  0.15075  1.0000
  N   N2        1.0  0.25846  0.42579  0.65075  1.0000
  N   N3        1.0  0.75846  0.07421  0.34925  1.0000
  N   N4        1.0  0.74154  0.92579  0.84925  1.0000
  N   N5        1.0  0.27922  0.43315  0.37238  1.0000
  N   N6        1.0  0.22078  0.56685  0.87238  1.0000
  N   N7        1.0  0.72078  0.93315  0.12762  1.0000
  N   N8        1.0  0.77923  0.06685  0.62762  1.0000
  O   O1        1.0  0.04753  0.87241  0.99826  1.0000
  O   O2        1.0  0.45247  0.12759  0.49826  1.0000
  O   O3        1.0  0.95247  0.37241  0.50174  1.0000
  O   O4        1.0  0.54753  0.62759  0.00174  1.0000
  O   O5        1.0  0.35584  0.95900  0.93512  1.0000
  O   O6        1.0  0.14416  0.04100  0.43512  1.0000
  O   O7        1.0  0.64416  0.45900  0.56488  1.0000
  O   O8        1.0  0.85584  0.54099  0.06488  1.0000
  O   O9        1.0  0.26724  0.99650  0.12895  1.0000
  O   O10       1.0  0.23276  0.00350  0.62895  1.0000
  O   O11       1.0  0.73276  0.49650  0.37105  1.0000
  O   O12       1.0  0.76724  0.50350  0.87105  1.0000
