data_image0
_chemical_formula_structural       Ag2H18C26S12N4O6
_chemical_formula_sum              "Ag2 H18 C26 S12 N4 O6"
_cell_length_a       7.15732
_cell_length_b       8.49527
_cell_length_c       14.481
_cell_angle_alpha    74.6321
_cell_angle_beta     80.7441
_cell_angle_gamma    82.1784

_space_group_name_H-M_alt    "P 1"
_space_group_IT_number       1

loop_
  _space_group_symop_operation_xyz
  'x, y, z'

loop_
  _atom_site_type_symbol
  _atom_site_label
  _atom_site_symmetry_multiplicity
  _atom_site_fract_x
  _atom_site_fract_y
  _atom_site_fract_z
  _atom_site_occupancy
  Ag  Ag1       1.0  0.90311  0.04806  0.13844  1.0000
  Ag  Ag2       1.0  0.09689  0.95193  0.86156  1.0000
  H   H1        1.0  0.74800  0.51591  0.26981  1.0000
  H   H2        1.0  0.25201  0.48409  0.73019  1.0000
  H   H3        1.0  0.08987  0.51720  0.39770  1.0000
  H   H4        1.0  0.91014  0.48280  0.60231  1.0000
  H   H5        1.0  0.56337  0.70881  0.18846  1.0000
  H   H6        1.0  0.43663  0.29120  0.81153  1.0000
  H   H7        1.0  0.32954  0.91482  0.10381  1.0000
  H   H8        1.0  0.67046  0.08518  0.89619  1.0000
  H   H9        1.0  0.57030  0.82903  0.93178  1.0000
  H   H10       1.0  0.42969  0.17097  0.06822  1.0000
  H   H11       1.0  0.45930  0.64487  0.98131  1.0000
  H   H12       1.0  0.54069  0.35513  0.01869  1.0000
  H   H13       1.0  0.68167  0.50764  0.86522  1.0000
  H   H14       1.0  0.31832  0.49236  0.13478  1.0000
  H   H15       1.0  0.81002  0.56940  0.94172  1.0000
  H   H16       1.0  0.18997  0.43060  0.05828  1.0000
  H   H17       1.0  0.87893  0.73343  0.30426  1.0000
  H   H18       1.0  0.12107  0.26655  0.69574  1.0000
  C   C1        1.0  0.61054  0.10711  0.57648  1.0000
  C   C2        1.0  0.38946  0.89290  0.42352  1.0000
  C   C3        1.0  0.66906  0.44875  0.33607  1.0000
  C   C4        1.0  0.33094  0.55125  0.66393  1.0000
  C   C5        1.0  0.47744  0.47193  0.35906  1.0000
  C   C6        1.0  0.52256  0.52807  0.64094  1.0000
  C   C7        1.0  0.71706  0.86286  0.71450  1.0000
  C   C8        1.0  0.28294  0.13715  0.28550  1.0000
  C   C9        1.0  0.52403  0.88202  0.73099  1.0000
  C   C10       1.0  0.47597  0.11799  0.26901  1.0000
  C   C11       1.0  0.34889  0.59388  0.30346  1.0000
  C   C12       1.0  0.65112  0.40612  0.69654  1.0000
  C   C13       1.0  0.59993  0.23271  0.49596  1.0000
  C   C14       1.0  0.40008  0.76729  0.50404  1.0000
  C   C15       1.0  0.15162  0.60293  0.33334  1.0000
  C   C16       1.0  0.84839  0.39707  0.66666  1.0000
  C   C17       1.0  0.41360  0.70928  0.21829  1.0000
  C   C18       1.0  0.58641  0.29072  0.78171  1.0000
  C   C19       1.0  0.28338  0.82521  0.17005  1.0000
  C   C20       1.0  0.71662  0.17479  0.82995  1.0000
  C   C21       1.0  0.53984  0.71643  0.91637  1.0000
  C   C22       1.0  0.46015  0.28357  0.08363  1.0000
  C   C23       1.0  0.71818  0.61507  0.88448  1.0000
  C   C24       1.0  0.28181  0.38493  0.11552  1.0000
  C   C25       1.0  0.03173  0.72379  0.28108  1.0000
  C   C26       1.0  0.96828  0.27620  0.71892  1.0000
  S   S1        1.0  0.38141  0.34120  0.46763  1.0000
  S   S2        1.0  0.61860  0.65881  0.53238  1.0000
  S   S3        1.0  0.40528  0.04582  0.65461  1.0000
  S   S4        1.0  0.59472  0.95418  0.34539  1.0000
  S   S5        1.0  0.79728  0.30041  0.41307  1.0000
  S   S6        1.0  0.20273  0.69961  0.58693  1.0000
  S   S7        1.0  0.82459  0.00129  0.61360  1.0000
  S   S8        1.0  0.17543  0.99872  0.38640  1.0000
  S   S9        1.0  0.87574  0.72482  0.78334  1.0000
  S   S10       1.0  0.12426  0.27518  0.21666  1.0000
  S   S11       1.0  0.37831  0.76498  0.82562  1.0000
  S   S12       1.0  0.62168  0.23502  0.17438  1.0000
  N   N1        1.0  0.09439  0.83519  0.20082  1.0000
  N   N2        1.0  0.90560  0.16480  0.79918  1.0000
  N   N3        1.0  0.10526  0.27239  0.94435  1.0000
  N   N4        1.0  0.89474  0.72760  0.05565  1.0000
  O   O1        1.0  0.21609  0.14002  0.95836  1.0000
  O   O2        1.0  0.78390  0.85997  0.04165  1.0000
  O   O3        1.0  0.94326  0.27866  0.99581  1.0000
  O   O4        1.0  0.05672  0.72133  0.00419  1.0000
  O   O5        1.0  0.15331  0.39794  0.88017  1.0000
  O   O6        1.0  0.84669  0.60203  0.11983  1.0000
