data_image0
_chemical_formula_structural       Sc4H20C36O34
_chemical_formula_sum              "Sc4 H20 C36 O34"
_cell_length_a       8.71079
_cell_length_b       10.5676
_cell_length_c       11.9174
_cell_angle_alpha    92.5463
_cell_angle_beta     92.0691
_cell_angle_gamma    105.119

_space_group_name_H-M_alt    "P 1"
_space_group_IT_number       1

loop_
  _space_group_symop_operation_xyz
  'x, y, z'

loop_
  _atom_site_type_symbol
  _atom_site_label
  _atom_site_symmetry_multiplicity
  _atom_site_fract_x
  _atom_site_fract_y
  _atom_site_fract_z
  _atom_site_occupancy
  Sc  Sc1       1.0  0.48500  0.04711  0.29433  1.0000
  Sc  Sc2       1.0  0.51500  0.95289  0.70567  1.0000
  Sc  Sc3       1.0  0.92279  0.26911  0.05858  1.0000
  Sc  Sc4       1.0  0.07721  0.73088  0.94142  1.0000
  H   H1        1.0  0.35936  0.90780  0.09388  1.0000
  H   H2        1.0  0.64064  0.09220  0.90612  1.0000
  H   H3        1.0  0.54315  0.89387  0.10320  1.0000
  H   H4        1.0  0.45686  0.10613  0.89680  1.0000
  H   H5        1.0  0.79741  0.98935  0.99681  1.0000
  H   H6        1.0  0.20259  0.01065  0.00319  1.0000
  H   H7        1.0  0.89568  0.07394  0.89469  1.0000
  H   H8        1.0  0.10432  0.92607  0.10531  1.0000
  H   H9        1.0  0.39852  0.45131  0.26797  1.0000
  H   H10       1.0  0.60148  0.54869  0.73203  1.0000
  H   H11       1.0  0.48656  0.70828  0.20837  1.0000
  H   H12       1.0  0.51343  0.29171  0.79163  1.0000
  H   H13       1.0  0.20681  0.25161  0.39350  1.0000
  H   H14       1.0  0.79320  0.74839  0.60650  1.0000
  H   H15       1.0  0.21871  0.21761  0.62103  1.0000
  H   H16       1.0  0.78129  0.78239  0.37897  1.0000
  H   H17       1.0  0.23959  0.55147  0.54558  1.0000
  H   H18       1.0  0.76042  0.44854  0.45442  1.0000
  H   H19       1.0  0.03425  0.41578  0.37401  1.0000
  H   H20       1.0  0.96575  0.58421  0.62599  1.0000
  C   C1        1.0  0.58239  0.29166  0.14633  1.0000
  C   C2        1.0  0.41761  0.70833  0.85367  1.0000
  C   C3        1.0  0.57593  0.42932  0.14783  1.0000
  C   C4        1.0  0.42407  0.57067  0.85217  1.0000
  C   C5        1.0  0.48652  0.49528  0.20921  1.0000
  C   C6        1.0  0.51348  0.50472  0.79078  1.0000
  C   C7        1.0  0.53210  0.62742  0.17874  1.0000
  C   C8        1.0  0.46789  0.37257  0.82126  1.0000
  C   C9        1.0  0.64645  0.63462  0.10046  1.0000
  C   C10       1.0  0.35354  0.36538  0.89953  1.0000
  C   C11       1.0  0.73728  0.74616  0.03942  1.0000
  C   C12       1.0  0.26272  0.25383  0.96058  1.0000
  C   C13       1.0  0.87428  0.14211  0.29485  1.0000
  C   C14       1.0  0.12573  0.85789  0.70516  1.0000
  C   C15       1.0  0.95328  0.15373  0.40728  1.0000
  C   C16       1.0  0.04673  0.84628  0.59272  1.0000
  C   C17       1.0  0.10933  0.20829  0.44553  1.0000
  C   C18       1.0  0.89068  0.79171  0.55447  1.0000
  C   C19       1.0  0.11574  0.19053  0.56253  1.0000
  C   C20       1.0  0.88426  0.80948  0.43747  1.0000
  C   C21       1.0  0.96369  0.12503  0.58922  1.0000
  C   C22       1.0  0.03632  0.87498  0.41079  1.0000
  C   C23       1.0  0.89930  0.07479  0.69652  1.0000
  C   C24       1.0  0.10071  0.92522  0.30349  1.0000
  C   C25       1.0  0.43561  0.80925  0.46489  1.0000
  C   C26       1.0  0.56438  0.19075  0.53510  1.0000
  C   C27       1.0  0.31017  0.69576  0.41726  1.0000
  C   C28       1.0  0.68983  0.30424  0.58273  1.0000
  C   C29       1.0  0.22481  0.58087  0.46066  1.0000
  C   C30       1.0  0.77520  0.41914  0.53934  1.0000
  C   C31       1.0  0.11855  0.51110  0.37230  1.0000
  C   C32       1.0  0.88145  0.48890  0.62770  1.0000
  C   C33       1.0  0.14482  0.58753  0.28051  1.0000
  C   C34       1.0  0.85517  0.41247  0.71949  1.0000
  C   C35       1.0  0.07853  0.56756  0.16387  1.0000
  C   C36       1.0  0.92145  0.43243  0.83614  1.0000
  O   O1        1.0  0.45851  0.92527  0.14197  1.0000
  O   O2        1.0  0.54149  0.07473  0.85803  1.0000
  O   O3        1.0  0.83555  0.07936  0.96621  1.0000
  O   O4        1.0  0.16445  0.92064  0.03379  1.0000
  O   O5        1.0  0.48170  0.21590  0.20438  1.0000
  O   O6        1.0  0.51829  0.78410  0.79563  1.0000
  O   O7        1.0  0.68573  0.25583  0.08891  1.0000
  O   O8        1.0  0.31426  0.74417  0.91109  1.0000
  O   O9        1.0  0.67428  0.51396  0.08104  1.0000
  O   O10       1.0  0.32572  0.48603  0.91895  1.0000
  O   O11       1.0  0.84960  0.72807  0.97998  1.0000
  O   O12       1.0  0.15041  0.27193  0.02001  1.0000
  O   O13       1.0  0.69784  0.85313  0.04841  1.0000
  O   O14       1.0  0.30217  0.14686  0.95160  1.0000
  O   O15       1.0  0.72849  0.08041  0.28073  1.0000
  O   O16       1.0  0.27151  0.91960  0.71927  1.0000
  O   O17       1.0  0.96012  0.19729  0.21729  1.0000
  O   O18       1.0  0.03989  0.80271  0.78272  1.0000
  O   O19       1.0  0.86376  0.10205  0.49482  1.0000
  O   O20       1.0  0.13625  0.89795  0.50518  1.0000
  O   O21       1.0  0.75379  0.00540  0.69427  1.0000
  O   O22       1.0  0.24621  0.99461  0.30574  1.0000
  O   O23       1.0  0.99137  0.10102  0.78264  1.0000
  O   O24       1.0  0.00863  0.89899  0.21736  1.0000
  O   O25       1.0  0.50245  0.89713  0.40033  1.0000
  O   O26       1.0  0.49755  0.10287  0.59967  1.0000
  O   O27       1.0  0.46938  0.80947  0.56957  1.0000
  O   O28       1.0  0.53061  0.19053  0.43042  1.0000
  O   O29       1.0  0.26084  0.70061  0.30773  1.0000
  O   O30       1.0  0.73916  0.29939  0.69227  1.0000
  O   O31       1.0  0.11809  0.66250  0.10074  1.0000
  O   O32       1.0  0.88190  0.33750  0.89925  1.0000
  O   O33       1.0  0.98628  0.45515  0.13607  1.0000
  O   O34       1.0  0.01372  0.54485  0.86394  1.0000
