data_image0
_chemical_formula_structural       Tb2H30C52N4O20
_chemical_formula_sum              "Tb2 H30 C52 N4 O20"
_cell_length_a       7.65374
_cell_length_b       10.6344
_cell_length_c       14.375
_cell_angle_alpha    75.8082
_cell_angle_beta     84.5981
_cell_angle_gamma    75.9131

_space_group_name_H-M_alt    "P 1"
_space_group_IT_number       1

loop_
  _space_group_symop_operation_xyz
  'x, y, z'

loop_
  _atom_site_type_symbol
  _atom_site_label
  _atom_site_symmetry_multiplicity
  _atom_site_fract_x
  _atom_site_fract_y
  _atom_site_fract_z
  _atom_site_occupancy
  Tb  Tb1       1.0  0.19663  0.08718  0.33627  1.0000
  Tb  Tb2       1.0  0.80337  0.91282  0.66373  1.0000
  H   H1        1.0  0.50146  0.23093  0.10750  1.0000
  H   H2        1.0  0.49854  0.76907  0.89250  1.0000
  H   H3        1.0  0.85748  0.04455  0.90076  1.0000
  H   H4        1.0  0.14252  0.95545  0.09924  1.0000
  H   H5        1.0  0.96186  0.80048  0.94118  1.0000
  H   H6        1.0  0.03814  0.19953  0.05882  1.0000
  H   H7        1.0  0.61587  0.78704  0.19690  1.0000
  H   H8        1.0  0.38413  0.21296  0.80310  1.0000
  H   H9        1.0  0.12632  0.64113  0.07472  1.0000
  H   H10       1.0  0.87369  0.35888  0.92529  1.0000
  H   H11       1.0  0.23983  0.39829  0.13584  1.0000
  H   H12       1.0  0.76018  0.60171  0.86416  1.0000
  H   H13       1.0  0.68473  0.36539  0.19767  1.0000
  H   H14       1.0  0.31528  0.63461  0.80233  1.0000
  H   H15       1.0  0.58954  0.61030  0.12975  1.0000
  H   H16       1.0  0.41046  0.38970  0.87025  1.0000
  H   H17       1.0  0.71626  0.49706  0.65879  1.0000
  H   H18       1.0  0.28374  0.50294  0.34121  1.0000
  H   H19       1.0  0.55931  0.31479  0.66611  1.0000
  H   H20       1.0  0.44069  0.68521  0.33389  1.0000
  H   H21       1.0  0.08320  0.61456  0.56304  1.0000
  H   H22       1.0  0.91680  0.38544  0.43696  1.0000
  H   H23       1.0  0.42651  0.22144  0.57418  1.0000
  H   H24       1.0  0.57348  0.77856  0.42582  1.0000
  H   H25       1.0  0.27557  0.03412  0.61155  1.0000
  H   H26       1.0  0.72443  0.96588  0.38845  1.0000
  H   H27       1.0  0.83234  0.27986  0.74444  1.0000
  H   H28       1.0  0.16765  0.72013  0.25556  1.0000
  H   H29       1.0  0.99458  0.46596  0.69195  1.0000
  H   H30       1.0  0.00541  0.53404  0.30805  1.0000
  C   C1        1.0  0.68609  0.05679  0.02663  1.0000
  C   C2        1.0  0.31391  0.94321  0.97337  1.0000
  C   C3        1.0  0.80910  0.98713  0.96745  1.0000
  C   C4        1.0  0.19090  0.01287  0.03255  1.0000
  C   C5        1.0  0.86736  0.84936  0.98991  1.0000
  C   C6        1.0  0.13264  0.15064  0.01009  1.0000
  C   C7        1.0  0.79760  0.77671  0.07331  1.0000
  C   C8        1.0  0.20240  0.22329  0.92669  1.0000
  C   C9        1.0  0.67351  0.84249  0.13250  1.0000
  C   C10       1.0  0.32649  0.15751  0.86750  1.0000
  C   C11       1.0  0.48297  0.03236  0.18597  1.0000
  C   C12       1.0  0.51703  0.96764  0.81403  1.0000
  C   C13       1.0  0.64027  0.20611  0.98707  1.0000
  C   C14       1.0  0.35973  0.79388  0.01293  1.0000
  C   C15       1.0  0.03475  0.57484  0.09950  1.0000
  C   C16       1.0  0.96526  0.42516  0.90050  1.0000
  C   C17       1.0  0.09560  0.44115  0.13557  1.0000
  C   C18       1.0  0.90441  0.55885  0.86443  1.0000
  C   C19       1.0  0.97243  0.35844  0.17688  1.0000
  C   C20       1.0  0.02757  0.64156  0.82311  1.0000
  C   C21       1.0  0.78508  0.42382  0.17102  1.0000
  C   C22       1.0  0.21493  0.57618  0.82898  1.0000
  C   C23       1.0  0.73093  0.55793  0.13456  1.0000
  C   C24       1.0  0.26907  0.44207  0.86544  1.0000
  C   C25       1.0  0.31439  0.68908  0.57646  1.0000
  C   C26       1.0  0.68560  0.31092  0.42354  1.0000
  C   C27       1.0  0.49385  0.65543  0.60626  1.0000
  C   C28       1.0  0.50615  0.34457  0.39374  1.0000
  C   C29       1.0  0.57850  0.52043  0.63626  1.0000
  C   C30       1.0  0.42149  0.47957  0.36374  1.0000
  C   C31       1.0  0.49127  0.41905  0.64044  1.0000
  C   C32       1.0  0.50872  0.58095  0.35957  1.0000
  C   C33       1.0  0.31100  0.45410  0.61551  1.0000
  C   C34       1.0  0.68900  0.54589  0.38450  1.0000
  C   C35       1.0  0.22366  0.58741  0.58316  1.0000
  C   C36       1.0  0.77634  0.41259  0.41684  1.0000
  C   C37       1.0  0.20937  0.82787  0.53206  1.0000
  C   C38       1.0  0.79062  0.17213  0.46794  1.0000
  C   C39       1.0  0.60070  0.75300  0.61532  1.0000
  C   C40       1.0  0.39929  0.24700  0.38468  1.0000
  C   C41       1.0  0.29195  0.23112  0.60795  1.0000
  C   C42       1.0  0.70804  0.76888  0.39205  1.0000
  C   C43       1.0  0.20722  0.12789  0.62989  1.0000
  C   C44       1.0  0.79277  0.87211  0.37011  1.0000
  C   C45       1.0  0.03674  0.13973  0.68125  1.0000
  C   C46       1.0  0.96326  0.86027  0.31875  1.0000
  C   C47       1.0  0.95925  0.26699  0.70288  1.0000
  C   C48       1.0  0.04075  0.73301  0.29713  1.0000
  C   C49       1.0  0.04696  0.36846  0.67598  1.0000
  C   C50       1.0  0.95304  0.63154  0.32402  1.0000
  C   C51       1.0  0.61714  0.98176  0.11195  1.0000
  C   C52       1.0  0.38286  0.01824  0.88805  1.0000
  N   N1        1.0  0.85454  0.63418  0.10047  1.0000
  N   N2        1.0  0.14546  0.36582  0.89953  1.0000
  N   N3        1.0  0.21311  0.35152  0.62957  1.0000
  N   N4        1.0  0.78689  0.64848  0.37043  1.0000
  O   O1        1.0  0.41898  0.94880  0.24976  1.0000
  O   O2        1.0  0.58102  0.05120  0.75024  1.0000
  O   O3        1.0  0.43275  0.15716  0.18542  1.0000
  O   O4        1.0  0.56725  0.84283  0.81458  1.0000
  O   O5        1.0  0.55002  0.28594  0.04076  1.0000
  O   O6        1.0  0.44997  0.71406  0.95924  1.0000
  O   O7        1.0  0.69032  0.25293  0.90378  1.0000
  O   O8        1.0  0.30968  0.74708  0.09622  1.0000
  O   O9        1.0  0.05357  0.86469  0.56802  1.0000
  O   O10       1.0  0.94643  0.13532  0.43198  1.0000
  O   O11       1.0  0.27899  0.89279  0.45783  1.0000
  O   O12       1.0  0.72101  0.10721  0.54217  1.0000
  O   O13       1.0  0.52794  0.87582  0.60760  1.0000
  O   O14       1.0  0.47206  0.12418  0.39240  1.0000
  O   O15       1.0  0.76826  0.70686  0.63497  1.0000
  O   O16       1.0  0.23174  0.29314  0.36503  1.0000
  O   O17       1.0  0.02389  0.23439  0.21591  1.0000
  O   O18       1.0  0.97612  0.76561  0.78409  1.0000
  O   O19       1.0  0.95900  0.04277  0.70864  1.0000
  O   O20       1.0  0.04100  0.95722  0.29136  1.0000
