data_image0
_chemical_formula_structural       Ag4H16Au4C64N8Cl16F24
_chemical_formula_sum              "Ag4 H16 Au4 C64 N8 Cl16 F24"
_cell_length_a       7.38846
_cell_length_b       13.592
_cell_length_c       21.4656
_cell_angle_alpha    104.536
_cell_angle_beta     90
_cell_angle_gamma    105.771

_space_group_name_H-M_alt    "P 1"
_space_group_IT_number       1

loop_
  _space_group_symop_operation_xyz
  'x, y, z'

loop_
  _atom_site_type_symbol
  _atom_site_label
  _atom_site_symmetry_multiplicity
  _atom_site_fract_x
  _atom_site_fract_y
  _atom_site_fract_z
  _atom_site_occupancy
  Ag  Ag1       1.0  0.03919  0.93130  0.79575  1.0000
  Ag  Ag2       1.0  0.10820  0.06876  0.70425  1.0000
  Ag  Ag3       1.0  0.96080  0.06869  0.20424  1.0000
  Ag  Ag4       1.0  0.89179  0.93124  0.29575  1.0000
  H   H1        1.0  0.99172  0.98316  0.94013  1.0000
  H   H2        1.0  0.00892  0.01673  0.55986  1.0000
  H   H3        1.0  0.00830  0.01685  0.05987  1.0000
  H   H4        1.0  0.99106  0.98327  0.44014  1.0000
  H   H5        1.0  0.88787  0.72173  0.01487  1.0000
  H   H6        1.0  0.16419  0.27834  0.48525  1.0000
  H   H7        1.0  0.11212  0.27828  0.98514  1.0000
  H   H8        1.0  0.83583  0.72166  0.51475  1.0000
  H   H9        1.0  0.93253  0.60798  0.90605  1.0000
  H   H10       1.0  0.32301  0.39213  0.59400  1.0000
  H   H11       1.0  0.06745  0.39202  0.09396  1.0000
  H   H12       1.0  0.67704  0.60787  0.40600  1.0000
  H   H13       1.0  0.00478  0.69685  0.81509  1.0000
  H   H14       1.0  0.30810  0.30316  0.68483  1.0000
  H   H15       1.0  0.99520  0.30314  0.18491  1.0000
  H   H16       1.0  0.69194  0.69684  0.31517  1.0000
  Au  Au1       1.0  0.76351  0.99993  0.74985  1.0000
  Au  Au2       1.0  0.23649  0.00007  0.25014  1.0000
  Au  Au3       1.0  0.37790  0.00013  0.75014  1.0000
  Au  Au4       1.0  0.62210  0.99987  0.24986  1.0000
  C   C1        1.0  0.68840  0.83685  0.73430  1.0000
  C   C2        1.0  0.85175  0.16308  0.76547  1.0000
  C   C3        1.0  0.31160  0.16315  0.26570  1.0000
  C   C4        1.0  0.14825  0.83691  0.23452  1.0000
  C   C5        1.0  0.59943  0.78749  0.78031  1.0000
  C   C6        1.0  0.81216  0.21254  0.71951  1.0000
  C   C7        1.0  0.40057  0.21251  0.21969  1.0000
  C   C8        1.0  0.18784  0.78746  0.28048  1.0000
  C   C9        1.0  0.52452  0.67809  0.76973  1.0000
  C   C10       1.0  0.84688  0.32195  0.73014  1.0000
  C   C11       1.0  0.47549  0.32191  0.23026  1.0000
  C   C12       1.0  0.15311  0.67804  0.26986  1.0000
  C   C13       1.0  0.54149  0.61456  0.70908  1.0000
  C   C14       1.0  0.92776  0.38540  0.79076  1.0000
  C   C15       1.0  0.45850  0.38544  0.29092  1.0000
  C   C16       1.0  0.07223  0.61459  0.20924  1.0000
  C   C17       1.0  0.63008  0.65816  0.66061  1.0000
  C   C18       1.0  0.97253  0.34171  0.83920  1.0000
  C   C19       1.0  0.36992  0.34183  0.33939  1.0000
  C   C20       1.0  0.02747  0.65829  0.16080  1.0000
  C   C21       1.0  0.70212  0.76844  0.67501  1.0000
  C   C22       1.0  0.93385  0.23140  0.82477  1.0000
  C   C23       1.0  0.29787  0.23155  0.32499  1.0000
  C   C24       1.0  0.06615  0.76859  0.17522  1.0000
  C   C25       1.0  0.30936  0.87796  0.66669  1.0000
  C   C26       1.0  0.43112  0.12236  0.83356  1.0000
  C   C27       1.0  0.69065  0.12205  0.33331  1.0000
  C   C28       1.0  0.56885  0.87763  0.16645  1.0000
  C   C29       1.0  0.22996  0.77272  0.66697  1.0000
  C   C30       1.0  0.45757  0.22764  0.83324  1.0000
  C   C31       1.0  0.77006  0.22728  0.33304  1.0000
  C   C32       1.0  0.54239  0.77236  0.16676  1.0000
  C   C33       1.0  0.20354  0.68675  0.61267  1.0000
  C   C34       1.0  0.51739  0.31360  0.88755  1.0000
  C   C35       1.0  0.79648  0.31325  0.38733  1.0000
  C   C36       1.0  0.48259  0.68639  0.11245  1.0000
  C   C37       1.0  0.25709  0.70869  0.55394  1.0000
  C   C38       1.0  0.54877  0.29165  0.94628  1.0000
  C   C39       1.0  0.74293  0.29131  0.44605  1.0000
  C   C40       1.0  0.45122  0.70834  0.05371  1.0000
  C   C41       1.0  0.33243  0.81260  0.54949  1.0000
  C   C42       1.0  0.51934  0.18770  0.95078  1.0000
  C   C43       1.0  0.66758  0.18740  0.45051  1.0000
  C   C44       1.0  0.48066  0.81230  0.04922  1.0000
  C   C45       1.0  0.35429  0.89398  0.60622  1.0000
  C   C46       1.0  0.45940  0.10633  0.89406  1.0000
  C   C47       1.0  0.64572  0.10603  0.39378  1.0000
  C   C48       1.0  0.54059  0.89366  0.10594  1.0000
  C   C49       1.0  0.97567  0.89852  0.93241  1.0000
  C   C50       1.0  0.07717  0.10141  0.56758  1.0000
  C   C51       1.0  0.02433  0.10148  0.06759  1.0000
  C   C52       1.0  0.92282  0.89860  0.43243  1.0000
  C   C53       1.0  0.91967  0.75442  0.97325  1.0000
  C   C54       1.0  0.16391  0.24566  0.52683  1.0000
  C   C55       1.0  0.08031  0.24559  0.02675  1.0000
  C   C56       1.0  0.83612  0.75433  0.47317  1.0000
  C   C57       1.0  0.94364  0.69161  0.91345  1.0000
  C   C58       1.0  0.25087  0.30847  0.58660  1.0000
  C   C59       1.0  0.05633  0.30840  0.08655  1.0000
  C   C60       1.0  0.74916  0.69153  0.41341  1.0000
  C   C61       1.0  0.98391  0.74034  0.86335  1.0000
  C   C62       1.0  0.24343  0.25966  0.63663  1.0000
  C   C63       1.0  0.01607  0.25966  0.13666  1.0000
  C   C64       1.0  0.75660  0.74034  0.36337  1.0000
  N   N1        1.0  0.99959  0.84426  0.87263  1.0000
  N   N2        1.0  0.15564  0.15569  0.62733  1.0000
  N   N3        1.0  0.00040  0.15575  0.12738  1.0000
  N   N4        1.0  0.84438  0.84432  0.37267  1.0000
  N   N5        1.0  0.93647  0.85806  0.98297  1.0000
  N   N6        1.0  0.07768  0.14193  0.51708  1.0000
  N   N7        1.0  0.06352  0.14196  0.01703  1.0000
  N   N8        1.0  0.92232  0.85807  0.48292  1.0000
  Cl  Cl1       1.0  0.41131  0.62340  0.82775  1.0000
  Cl  Cl2       1.0  0.78826  0.37686  0.67225  1.0000
  Cl  Cl3       1.0  0.58871  0.37661  0.17225  1.0000
  Cl  Cl4       1.0  0.21174  0.62315  0.32775  1.0000
  Cl  Cl5       1.0  0.64297  0.57741  0.58605  1.0000
  Cl  Cl6       1.0  0.06632  0.42240  0.91373  1.0000
  Cl  Cl7       1.0  0.35702  0.42259  0.41395  1.0000
  Cl  Cl8       1.0  0.93368  0.57759  0.08627  1.0000
  Cl  Cl9       1.0  0.11212  0.55878  0.61722  1.0000
  Cl  Cl10      1.0  0.55450  0.44164  0.88299  1.0000
  Cl  Cl11      1.0  0.88790  0.44122  0.38278  1.0000
  Cl  Cl12      1.0  0.44548  0.55836  0.11701  1.0000
  Cl  Cl13      1.0  0.39377  0.83869  0.47733  1.0000
  Cl  Cl14      1.0  0.55448  0.16157  0.02294  1.0000
  Cl  Cl15      1.0  0.60625  0.16131  0.52267  1.0000
  Cl  Cl16      1.0  0.44552  0.83843  0.97705  1.0000
  F   F1        1.0  0.58147  0.84873  0.83927  1.0000
  F   F2        1.0  0.73304  0.15143  0.66053  1.0000
  F   F3        1.0  0.41853  0.15127  0.16073  1.0000
  F   F4        1.0  0.26696  0.84857  0.33947  1.0000
  F   F5        1.0  0.46925  0.50857  0.69707  1.0000
  F   F6        1.0  0.96226  0.49143  0.80280  1.0000
  F   F7        1.0  0.53074  0.49142  0.30293  1.0000
  F   F8        1.0  0.03774  0.50857  0.19721  1.0000
  F   F9        1.0  0.78735  0.81030  0.62743  1.0000
  F   F10       1.0  0.97671  0.18943  0.87235  1.0000
  F   F11       1.0  0.21265  0.18970  0.37257  1.0000
  F   F12       1.0  0.02329  0.81057  0.12764  1.0000
  F   F13       1.0  0.17629  0.74962  0.72408  1.0000
  F   F14       1.0  0.42740  0.25079  0.77611  1.0000
  F   F15       1.0  0.82372  0.25038  0.27593  1.0000
  F   F16       1.0  0.57255  0.74920  0.22389  1.0000
  F   F17       1.0  0.23389  0.62763  0.50036  1.0000
  F   F18       1.0  0.60721  0.37267  0.99985  1.0000
  F   F19       1.0  0.76612  0.37237  0.49963  1.0000
  F   F20       1.0  0.39279  0.62732  0.00014  1.0000
  F   F21       1.0  0.42579  0.99466  0.60104  1.0000
  F   F22       1.0  0.42949  0.00561  0.89925  1.0000
  F   F23       1.0  0.57423  0.00534  0.39895  1.0000
  F   F24       1.0  0.57052  0.99439  0.10075  1.0000
