data_image0
_chemical_formula_structural       Hg4H16C4N24Cl8
_chemical_formula_sum              "Hg4 H16 C4 N24 Cl8"
_cell_length_a       4.14645
_cell_length_b       9.89848
_cell_length_c       17.6833
_cell_angle_alpha    90.0003
_cell_angle_beta     89.9996
_cell_angle_gamma    91.2904

_space_group_name_H-M_alt    "P 1"
_space_group_IT_number       1

loop_
  _space_group_symop_operation_xyz
  'x, y, z'

loop_
  _atom_site_type_symbol
  _atom_site_label
  _atom_site_symmetry_multiplicity
  _atom_site_fract_x
  _atom_site_fract_y
  _atom_site_fract_z
  _atom_site_occupancy
  Hg  Hg1       1.0  0.67656  0.38658  0.59705  1.0000
  Hg  Hg2       1.0  0.32344  0.11341  0.09705  1.0000
  Hg  Hg3       1.0  0.32344  0.61341  0.40295  1.0000
  Hg  Hg4       1.0  0.67656  0.88659  0.90295  1.0000
  H   H1        1.0  0.32401  0.33163  0.93732  1.0000
  H   H2        1.0  0.67599  0.16836  0.43732  1.0000
  H   H3        1.0  0.67599  0.66837  0.06268  1.0000
  H   H4        1.0  0.32401  0.83163  0.56268  1.0000
  H   H5        1.0  0.64658  0.42367  0.96357  1.0000
  H   H6        1.0  0.35341  0.07633  0.46357  1.0000
  H   H7        1.0  0.35341  0.57633  0.03643  1.0000
  H   H8        1.0  0.64659  0.92367  0.53643  1.0000
  H   H9        1.0  0.23389  0.59334  0.82698  1.0000
  H   H10       1.0  0.76612  0.90666  0.32699  1.0000
  H   H11       1.0  0.76611  0.40667  0.17302  1.0000
  H   H12       1.0  0.23388  0.09334  0.67301  1.0000
  H   H13       1.0  0.28686  0.58884  0.72884  1.0000
  H   H14       1.0  0.71314  0.91116  0.22884  1.0000
  H   H15       1.0  0.71314  0.41116  0.27116  1.0000
  H   H16       1.0  0.28686  0.08884  0.77116  1.0000
  C   C1        1.0  0.54069  0.45018  0.78800  1.0000
  C   C2        1.0  0.45932  0.04981  0.28801  1.0000
  C   C3        1.0  0.45932  0.54981  0.21200  1.0000
  C   C4        1.0  0.54069  0.95018  0.71199  1.0000
  N   N1        1.0  0.70783  0.38620  0.73396  1.0000
  N   N2        1.0  0.29217  0.11380  0.23396  1.0000
  N   N3        1.0  0.29216  0.61381  0.26604  1.0000
  N   N4        1.0  0.70784  0.88620  0.76604  1.0000
  N   N5        1.0  0.87951  0.28800  0.76901  1.0000
  N   N6        1.0  0.12049  0.21200  0.26901  1.0000
  N   N7        1.0  0.12049  0.71201  0.23099  1.0000
  N   N8        1.0  0.87951  0.78800  0.73099  1.0000
  N   N9        1.0  0.82633  0.28702  0.84063  1.0000
  N   N10       1.0  0.17367  0.21299  0.34064  1.0000
  N   N11       1.0  0.17367  0.71299  0.15936  1.0000
  N   N12       1.0  0.82633  0.78701  0.65936  1.0000
  N   N13       1.0  0.61271  0.38851  0.85441  1.0000
  N   N14       1.0  0.38730  0.11149  0.35441  1.0000
  N   N15       1.0  0.38730  0.61150  0.14560  1.0000
  N   N16       1.0  0.61270  0.88851  0.64559  1.0000
  N   N17       1.0  0.47012  0.41297  0.92338  1.0000
  N   N18       1.0  0.52988  0.08702  0.42338  1.0000
  N   N19       1.0  0.52988  0.58703  0.07662  1.0000
  N   N20       1.0  0.47010  0.91298  0.57661  1.0000
  N   N21       1.0  0.34747  0.55473  0.78094  1.0000
  N   N22       1.0  0.65253  0.94528  0.28093  1.0000
  N   N23       1.0  0.65254  0.44528  0.21906  1.0000
  N   N24       1.0  0.34747  0.05473  0.71907  1.0000
  Cl  Cl1       1.0  0.99955  0.19488  0.56804  1.0000
  Cl  Cl2       1.0  0.00044  0.30511  0.06804  1.0000
  Cl  Cl3       1.0  0.00045  0.80511  0.43196  1.0000
  Cl  Cl4       1.0  0.99955  0.69488  0.93196  1.0000
  Cl  Cl5       1.0  0.27088  0.55666  0.58732  1.0000
  Cl  Cl6       1.0  0.72912  0.94334  0.08732  1.0000
  Cl  Cl7       1.0  0.72912  0.44334  0.41268  1.0000
  Cl  Cl8       1.0  0.27088  0.05666  0.91268  1.0000
