data_image0
_chemical_formula_structural       CoH46C66N6O4
_chemical_formula_sum              "Co1 H46 C66 N6 O4"
_cell_length_a       11.5819
_cell_length_b       11.5015
_cell_length_c       12.7257
_cell_angle_alpha    67.1726
_cell_angle_beta     68.6094
_cell_angle_gamma    73.3302

_space_group_name_H-M_alt    "P 1"
_space_group_IT_number       1

loop_
  _space_group_symop_operation_xyz
  'x, y, z'

loop_
  _atom_site_type_symbol
  _atom_site_label
  _atom_site_symmetry_multiplicity
  _atom_site_fract_x
  _atom_site_fract_y
  _atom_site_fract_z
  _atom_site_occupancy
  Co  Co1       1.0  0.50000  0.50000  0.50000  1.0000
  H   H1        1.0  0.16117  0.16303  0.18238  1.0000
  H   H2        1.0  0.83883  0.83698  0.81760  1.0000
  H   H3        1.0  0.10097  0.30487  0.30678  1.0000
  H   H4        1.0  0.89903  0.69514  0.69320  1.0000
  H   H5        1.0  0.87512  0.38356  0.39297  1.0000
  H   H6        1.0  0.12488  0.61645  0.60701  1.0000
  H   H7        1.0  0.76965  0.17579  0.23374  1.0000
  H   H8        1.0  0.23035  0.82422  0.76625  1.0000
  H   H9        1.0  0.99363  0.09978  0.14596  1.0000
  H   H10       1.0  0.00637  0.90023  0.85403  1.0000
  H   H11       1.0  0.61054  0.17110  0.38283  1.0000
  H   H12       1.0  0.38946  0.82890  0.61717  1.0000
  H   H13       1.0  0.21886  0.29574  0.60806  1.0000
  H   H14       1.0  0.78115  0.70426  0.39195  1.0000
  H   H15       1.0  0.06038  0.16500  0.64565  1.0000
  H   H16       1.0  0.93962  0.83500  0.35435  1.0000
  H   H17       1.0  0.11073  0.01343  0.53270  1.0000
  H   H18       1.0  0.88926  0.98658  0.46730  1.0000
  H   H19       1.0  0.32037  0.99159  0.38390  1.0000
  H   H20       1.0  0.67963  0.00842  0.61610  1.0000
  H   H21       1.0  0.47754  0.11821  0.34858  1.0000
  H   H22       1.0  0.52246  0.88180  0.65143  1.0000
  H   H23       1.0  0.73444  0.41552  0.58824  1.0000
  H   H24       1.0  0.26556  0.58447  0.41177  1.0000
  H   H25       1.0  0.84275  0.20418  0.69963  1.0000
  H   H26       1.0  0.15726  0.79581  0.30038  1.0000
  H   H27       1.0  0.71580  0.02638  0.82567  1.0000
  H   H28       1.0  0.28420  0.97361  0.17434  1.0000
  H   H29       1.0  0.39788  0.28502  0.71575  1.0000
  H   H30       1.0  0.60212  0.71497  0.28425  1.0000
  H   H31       1.0  0.29572  0.75216  0.00910  1.0000
  H   H32       1.0  0.70428  0.24784  0.99090  1.0000
  H   H33       1.0  0.28844  0.16030  0.86568  1.0000
  H   H34       1.0  0.71156  0.83970  0.13432  1.0000
  H   H35       1.0  0.69487  0.72712  0.80105  1.0000
  H   H36       1.0  0.30513  0.27288  0.19895  1.0000
  H   H37       1.0  0.77543  0.37569  0.04715  1.0000
  H   H38       1.0  0.22457  0.62431  0.95285  1.0000
  H   H39       1.0  0.56650  0.41067  0.19500  1.0000
  H   H40       1.0  0.43349  0.58933  0.80500  1.0000
  H   H41       1.0  0.42084  0.61840  0.14277  1.0000
  H   H42       1.0  0.57916  0.38160  0.85723  1.0000
  H   H43       1.0  0.11255  0.80320  0.11717  1.0000
  H   H44       1.0  0.88746  0.19681  0.88283  1.0000
  H   H45       1.0  0.88256  0.83773  0.16832  1.0000
  H   H46       1.0  0.11745  0.16227  0.83168  1.0000
  C   C1        1.0  0.06207  0.19617  0.22151  1.0000
  C   C2        1.0  0.93792  0.80383  0.77848  1.0000
  C   C3        1.0  0.02859  0.27604  0.29108  1.0000
  C   C4        1.0  0.97141  0.72397  0.70891  1.0000
  C   C5        1.0  0.90235  0.32042  0.33944  1.0000
  C   C6        1.0  0.09765  0.67959  0.66055  1.0000
  C   C7        1.0  0.80703  0.28439  0.32079  1.0000
  C   C8        1.0  0.19296  0.71562  0.67921  1.0000
  C   C9        1.0  0.84167  0.20405  0.25073  1.0000
  C   C10       1.0  0.15832  0.79596  0.74926  1.0000
  C   C11       1.0  0.96831  0.16094  0.20106  1.0000
  C   C12       1.0  0.03168  0.83907  0.79893  1.0000
  C   C13       1.0  0.67356  0.33112  0.37759  1.0000
  C   C14       1.0  0.32643  0.66888  0.62241  1.0000
  C   C15       1.0  0.58020  0.25999  0.40385  1.0000
  C   C16       1.0  0.41980  0.74001  0.59615  1.0000
  C   C17       1.0  0.45201  0.29266  0.46048  1.0000
  C   C18       1.0  0.54799  0.70734  0.53952  1.0000
  C   C19       1.0  0.35980  0.21453  0.47815  1.0000
  C   C20       1.0  0.64020  0.78547  0.52185  1.0000
  C   C21       1.0  0.24027  0.22757  0.56050  1.0000
  C   C22       1.0  0.75973  0.77243  0.43951  1.0000
  C   C23       1.0  0.15182  0.15544  0.58009  1.0000
  C   C24       1.0  0.84818  0.84456  0.41992  1.0000
  C   C25       1.0  0.17995  0.06995  0.51706  1.0000
  C   C26       1.0  0.82004  0.93006  0.48294  1.0000
  C   C27       1.0  0.29775  0.05720  0.43418  1.0000
  C   C28       1.0  0.70225  0.94280  0.56582  1.0000
  C   C29       1.0  0.38695  0.12850  0.41495  1.0000
  C   C30       1.0  0.61305  0.87151  0.58505  1.0000
  C   C31       1.0  0.68464  0.33534  0.64507  1.0000
  C   C32       1.0  0.31536  0.66465  0.35493  1.0000
  C   C33       1.0  0.74331  0.21821  0.70703  1.0000
  C   C34       1.0  0.25669  0.78178  0.29297  1.0000
  C   C35       1.0  0.67371  0.11993  0.77674  1.0000
  C   C36       1.0  0.32629  0.88006  0.22327  1.0000
  C   C37       1.0  0.54592  0.14143  0.78342  1.0000
  C   C38       1.0  0.45407  0.85857  0.21659  1.0000
  C   C39       1.0  0.49512  0.26228  0.71829  1.0000
  C   C40       1.0  0.50488  0.73771  0.28172  1.0000
  C   C41       1.0  0.47050  0.03745  0.85045  1.0000
  C   C42       1.0  0.52951  0.96255  0.14955  1.0000
  C   C43       1.0  0.47312  0.81913  0.93600  1.0000
  C   C44       1.0  0.52688  0.18087  0.06400  1.0000
  C   C45       1.0  0.34185  0.83581  0.96646  1.0000
  C   C46       1.0  0.65815  0.16418  0.03354  1.0000
  C   C47       1.0  0.27180  0.95961  0.93965  1.0000
  C   C48       1.0  0.72820  0.04039  0.06035  1.0000
  C   C49       1.0  0.33862  0.06211  0.88274  1.0000
  C   C50       1.0  0.66138  0.93789  0.11726  1.0000
  C   C51       1.0  0.54943  0.69074  0.96866  1.0000
  C   C52       1.0  0.45057  0.30925  0.03134  1.0000
  C   C53       1.0  0.66553  0.65856  0.88975  1.0000
  C   C54       1.0  0.33446  0.34143  0.11025  1.0000
  C   C55       1.0  0.70752  0.46303  0.02505  1.0000
  C   C56       1.0  0.29248  0.53697  0.97495  1.0000
  C   C57       1.0  0.59174  0.48307  0.10832  1.0000
  C   C58       1.0  0.40826  0.51693  0.89168  1.0000
  C   C59       1.0  0.51100  0.59854  0.07921  1.0000
  C   C60       1.0  0.48900  0.40145  0.92079  1.0000
  C   C61       1.0  0.13328  0.98046  0.97072  1.0000
  C   C62       1.0  0.86672  0.01954  0.02928  1.0000
  C   C63       1.0  0.06397  0.88937  0.06447  1.0000
  C   C64       1.0  0.93604  0.11064  0.93553  1.0000
  C   C65       1.0  0.93360  0.90854  0.09318  1.0000
  C   C66       1.0  0.06640  0.09146  0.90682  1.0000
  N   N1        1.0  0.56249  0.35637  0.65003  1.0000
  N   N2        1.0  0.43751  0.64363  0.34997  1.0000
  N   N3        1.0  0.53656  0.91793  0.87689  1.0000
  N   N4        1.0  0.46344  0.08206  0.12312  1.0000
  N   N5        1.0  0.74339  0.54721  0.91589  1.0000
  N   N6        1.0  0.25661  0.45279  0.08411  1.0000
  O   O1        1.0  0.65395  0.43562  0.40140  1.0000
  O   O2        1.0  0.34605  0.56438  0.59860  1.0000
  O   O3        1.0  0.40512  0.38706  0.50305  1.0000
  O   O4        1.0  0.59489  0.61293  0.49695  1.0000
