data_image0
_chemical_formula_structural       Ag16H48C24Br16N16
_chemical_formula_sum              "Ag16 H48 C24 Br16 N16"
_cell_length_a       8.66084
_cell_length_b       9.74788
_cell_length_c       16.906
_cell_angle_alpha    90
_cell_angle_beta     90
_cell_angle_gamma    90

_space_group_name_H-M_alt    "P 1"
_space_group_IT_number       1

loop_
  _space_group_symop_operation_xyz
  'x, y, z'

loop_
  _atom_site_type_symbol
  _atom_site_label
  _atom_site_symmetry_multiplicity
  _atom_site_fract_x
  _atom_site_fract_y
  _atom_site_fract_z
  _atom_site_occupancy
  Ag  Ag1       1.0  0.15566  0.25000  0.36351  1.0000
  Ag  Ag2       1.0  0.34434  0.75000  0.86351  1.0000
  Ag  Ag3       1.0  0.84434  0.75000  0.63649  1.0000
  Ag  Ag4       1.0  0.65566  0.25000  0.13649  1.0000
  Ag  Ag5       1.0  0.33840  0.43066  0.20166  1.0000
  Ag  Ag6       1.0  0.16160  0.93066  0.70166  1.0000
  Ag  Ag7       1.0  0.33840  0.06934  0.20166  1.0000
  Ag  Ag8       1.0  0.16160  0.56934  0.70166  1.0000
  Ag  Ag9       1.0  0.66160  0.56934  0.79834  1.0000
  Ag  Ag10      1.0  0.83840  0.06935  0.29834  1.0000
  Ag  Ag11      1.0  0.66160  0.93066  0.79834  1.0000
  Ag  Ag12      1.0  0.83840  0.43066  0.29834  1.0000
  Ag  Ag13      1.0  0.24912  0.75000  0.41943  1.0000
  Ag  Ag14      1.0  0.25088  0.25000  0.91943  1.0000
  Ag  Ag15      1.0  0.75088  0.25000  0.58058  1.0000
  Ag  Ag16      1.0  0.74912  0.75000  0.08058  1.0000
  H   H1        1.0  0.23065  0.46569  0.51405  1.0000
  H   H2        1.0  0.26935  0.96569  0.01405  1.0000
  H   H3        1.0  0.23065  0.03431  0.51405  1.0000
  H   H4        1.0  0.26935  0.53431  0.01405  1.0000
  H   H5        1.0  0.76935  0.53431  0.48595  1.0000
  H   H6        1.0  0.73065  0.03431  0.98595  1.0000
  H   H7        1.0  0.76935  0.96569  0.48595  1.0000
  H   H8        1.0  0.73065  0.46569  0.98595  1.0000
  H   H9        1.0  0.06332  0.37345  0.54570  1.0000
  H   H10       1.0  0.43668  0.87345  0.04570  1.0000
  H   H11       1.0  0.06332  0.12655  0.54570  1.0000
  H   H12       1.0  0.43668  0.62655  0.04570  1.0000
  H   H13       1.0  0.93668  0.62655  0.45430  1.0000
  H   H14       1.0  0.56332  0.12655  0.95430  1.0000
  H   H15       1.0  0.93669  0.87345  0.45430  1.0000
  H   H16       1.0  0.56332  0.37345  0.95430  1.0000
  H   H17       1.0  0.46170  0.37366  0.68706  1.0000
  H   H18       1.0  0.03830  0.87366  0.18706  1.0000
  H   H19       1.0  0.46170  0.12634  0.68706  1.0000
  H   H20       1.0  0.03830  0.62634  0.18706  1.0000
  H   H21       1.0  0.53830  0.62635  0.31294  1.0000
  H   H22       1.0  0.96170  0.12634  0.81294  1.0000
  H   H23       1.0  0.53830  0.87366  0.31294  1.0000
  H   H24       1.0  0.96170  0.37366  0.81294  1.0000
  H   H25       1.0  0.46059  0.46567  0.59599  1.0000
  H   H26       1.0  0.03941  0.96567  0.09599  1.0000
  H   H27       1.0  0.46059  0.03432  0.59599  1.0000
  H   H28       1.0  0.03941  0.53432  0.09599  1.0000
  H   H29       1.0  0.53941  0.53433  0.40401  1.0000
  H   H30       1.0  0.96059  0.03432  0.90401  1.0000
  H   H31       1.0  0.53941  0.96568  0.40401  1.0000
  H   H32       1.0  0.96059  0.46567  0.90401  1.0000
  H   H33       1.0  0.45729  0.15894  0.47154  1.0000
  H   H34       1.0  0.04271  0.65894  0.97154  1.0000
  H   H35       1.0  0.45729  0.34106  0.47154  1.0000
  H   H36       1.0  0.04271  0.84105  0.97154  1.0000
  H   H37       1.0  0.54271  0.84106  0.52846  1.0000
  H   H38       1.0  0.95729  0.34105  0.02846  1.0000
  H   H39       1.0  0.54271  0.65894  0.52846  1.0000
  H   H40       1.0  0.95729  0.15894  0.02846  1.0000
  H   H41       1.0  0.23698  0.25000  0.72908  1.0000
  H   H42       1.0  0.26301  0.75000  0.22908  1.0000
  H   H43       1.0  0.76302  0.75000  0.27092  1.0000
  H   H44       1.0  0.73698  0.25000  0.77092  1.0000
  H   H45       1.0  0.06621  0.25000  0.66848  1.0000
  H   H46       1.0  0.43379  0.75000  0.16848  1.0000
  H   H47       1.0  0.93379  0.75000  0.33152  1.0000
  H   H48       1.0  0.56621  0.25000  0.83152  1.0000
  C   C1        1.0  0.41825  0.37318  0.62606  1.0000
  C   C2        1.0  0.08175  0.87318  0.12606  1.0000
  C   C3        1.0  0.41825  0.12682  0.62606  1.0000
  C   C4        1.0  0.08175  0.62682  0.12606  1.0000
  C   C5        1.0  0.58175  0.62682  0.37394  1.0000
  C   C6        1.0  0.91825  0.12682  0.87394  1.0000
  C   C7        1.0  0.58175  0.87319  0.37395  1.0000
  C   C8        1.0  0.91825  0.37318  0.87394  1.0000
  C   C9        1.0  0.19302  0.25000  0.66816  1.0000
  C   C10       1.0  0.30698  0.75000  0.16816  1.0000
  C   C11       1.0  0.80698  0.75000  0.33184  1.0000
  C   C12       1.0  0.69302  0.25000  0.83184  1.0000
  C   C13       1.0  0.19008  0.37338  0.54492  1.0000
  C   C14       1.0  0.30992  0.87338  0.04492  1.0000
  C   C15       1.0  0.19008  0.12662  0.54492  1.0000
  C   C16       1.0  0.30992  0.62662  0.04492  1.0000
  C   C17       1.0  0.80992  0.62662  0.45508  1.0000
  C   C18       1.0  0.69008  0.12662  0.95508  1.0000
  C   C19       1.0  0.80992  0.87338  0.45508  1.0000
  C   C20       1.0  0.69008  0.37338  0.95508  1.0000
  C   C21       1.0  0.41485  0.25000  0.50298  1.0000
  C   C22       1.0  0.08515  0.75000  0.00298  1.0000
  C   C23       1.0  0.58515  0.75000  0.49702  1.0000
  C   C24       1.0  0.91485  0.25000  0.99702  1.0000
  Br  Br1       1.0  0.48460  0.25000  0.29625  1.0000
  Br  Br2       1.0  0.01540  0.75000  0.79625  1.0000
  Br  Br3       1.0  0.51540  0.75000  0.70375  1.0000
  Br  Br4       1.0  0.98460  0.25000  0.20375  1.0000
  Br  Br5       1.0  0.16500  0.53095  0.33610  1.0000
  Br  Br6       1.0  0.33500  0.03095  0.83609  1.0000
  Br  Br7       1.0  0.16500  0.96905  0.33609  1.0000
  Br  Br8       1.0  0.33500  0.46905  0.83609  1.0000
  Br  Br9       1.0  0.83500  0.46905  0.66391  1.0000
  Br  Br10      1.0  0.66500  0.96905  0.16391  1.0000
  Br  Br11      1.0  0.83500  0.03095  0.66391  1.0000
  Br  Br12      1.0  0.66500  0.53095  0.16391  1.0000
  Br  Br13      1.0  0.83582  0.25000  0.43152  1.0000
  Br  Br14      1.0  0.66418  0.75000  0.93152  1.0000
  Br  Br15      1.0  0.16417  0.75000  0.56848  1.0000
  Br  Br16      1.0  0.33583  0.25000  0.06848  1.0000
  N   N1        1.0  0.24502  0.25000  0.50264  1.0000
  N   N2        1.0  0.25498  0.75000  0.00264  1.0000
  N   N3        1.0  0.75498  0.75000  0.49736  1.0000
  N   N4        1.0  0.74502  0.25000  0.99736  1.0000
  N   N5        1.0  0.24777  0.37550  0.62756  1.0000
  N   N6        1.0  0.25223  0.87550  0.12756  1.0000
  N   N7        1.0  0.24777  0.12450  0.62756  1.0000
  N   N8        1.0  0.25223  0.62450  0.12756  1.0000
  N   N9        1.0  0.75223  0.62450  0.37243  1.0000
  N   N10       1.0  0.74777  0.12450  0.87244  1.0000
  N   N11       1.0  0.75223  0.87551  0.37244  1.0000
  N   N12       1.0  0.74777  0.37550  0.87244  1.0000
  N   N13       1.0  0.47640  0.25000  0.58452  1.0000
  N   N14       1.0  0.02360  0.75000  0.08452  1.0000
  N   N15       1.0  0.52360  0.75000  0.41548  1.0000
  N   N16       1.0  0.97640  0.25000  0.91548  1.0000
