data_image0
_chemical_formula_structural       Ca4H44C68N8O20
_chemical_formula_sum              "Ca4 H44 C68 N8 O20"
_cell_length_a       10.019
_cell_length_b       11.9195
_cell_length_c       14.7122
_cell_angle_alpha    108.434
_cell_angle_beta     90
_cell_angle_gamma    114.852

_space_group_name_H-M_alt    "P 1"
_space_group_IT_number       1

loop_
  _space_group_symop_operation_xyz
  'x, y, z'

loop_
  _atom_site_type_symbol
  _atom_site_label
  _atom_site_symmetry_multiplicity
  _atom_site_fract_x
  _atom_site_fract_y
  _atom_site_fract_z
  _atom_site_occupancy
  Ca  Ca1       1.0  0.60170  0.91558  0.90933  1.0000
  Ca  Ca2       1.0  0.68592  0.08432  0.59062  1.0000
  Ca  Ca3       1.0  0.39830  0.08442  0.09067  1.0000
  Ca  Ca4       1.0  0.31408  0.91568  0.40938  1.0000
  H   H1        1.0  0.21898  0.75058  0.88404  1.0000
  H   H2        1.0  0.46777  0.24938  0.61595  1.0000
  H   H3        1.0  0.78102  0.24942  0.11596  1.0000
  H   H4        1.0  0.53223  0.75062  0.38405  1.0000
  H   H5        1.0  0.00659  0.52552  0.82653  1.0000
  H   H6        1.0  0.48048  0.47443  0.67353  1.0000
  H   H7        1.0  0.99341  0.47448  0.17347  1.0000
  H   H8        1.0  0.51952  0.52557  0.32647  1.0000
  H   H9        1.0  0.05753  0.32959  0.80391  1.0000
  H   H10       1.0  0.72743  0.67040  0.69618  1.0000
  H   H11       1.0  0.94247  0.67041  0.19609  1.0000
  H   H12       1.0  0.27258  0.32960  0.30382  1.0000
  H   H13       1.0  0.50281  0.28757  0.85990  1.0000
  H   H14       1.0  0.21469  0.71236  0.64031  1.0000
  H   H15       1.0  0.49719  0.71243  0.14010  1.0000
  H   H16       1.0  0.78531  0.28764  0.35969  1.0000
  H   H17       1.0  0.24191  0.24629  0.82108  1.0000
  H   H18       1.0  0.99509  0.75368  0.67904  1.0000
  H   H19       1.0  0.75809  0.75371  0.17892  1.0000
  H   H20       1.0  0.00491  0.24632  0.32096  1.0000
  H   H21       1.0  0.76883  0.44556  0.91900  1.0000
  H   H22       1.0  0.32270  0.55445  0.58133  1.0000
  H   H23       1.0  0.23118  0.55444  0.08100  1.0000
  H   H24       1.0  0.67731  0.44555  0.41867  1.0000
  H   H25       1.0  0.96641  0.68325  0.97941  1.0000
  H   H26       1.0  0.28276  0.31684  0.52082  1.0000
  H   H27       1.0  0.03359  0.31675  0.02059  1.0000
  H   H28       1.0  0.71724  0.68316  0.47918  1.0000
  H   H29       1.0  0.89439  0.85893  0.98374  1.0000
  H   H30       1.0  0.03502  0.14103  0.51628  1.0000
  H   H31       1.0  0.10561  0.14107  0.01626  1.0000
  H   H32       1.0  0.96498  0.85897  0.48372  1.0000
  H   H33       1.0  0.10905  0.94162  0.89917  1.0000
  H   H34       1.0  0.16777  0.05849  0.60090  1.0000
  H   H35       1.0  0.89095  0.05838  0.10083  1.0000
  H   H36       1.0  0.83223  0.94151  0.39910  1.0000
  H   H37       1.0  0.62708  0.13151  0.83379  1.0000
  H   H38       1.0  0.49560  0.86849  0.66628  1.0000
  H   H39       1.0  0.37292  0.86849  0.16621  1.0000
  H   H40       1.0  0.50440  0.13151  0.33372  1.0000
  H   H41       1.0  0.78175  0.13697  0.84123  1.0000
  H   H42       1.0  0.64479  0.86300  0.65890  1.0000
  H   H43       1.0  0.21825  0.86303  0.15877  1.0000
  H   H44       1.0  0.35521  0.13700  0.34110  1.0000
  C   C1        1.0  0.23909  0.66447  0.87269  1.0000
  C   C2        1.0  0.57399  0.33547  0.62727  1.0000
  C   C3        1.0  0.76091  0.33553  0.12731  1.0000
  C   C4        1.0  0.42601  0.66453  0.37273  1.0000
  C   C5        1.0  0.11916  0.53739  0.84155  1.0000
  C   C6        1.0  0.58118  0.46256  0.65847  1.0000
  C   C7        1.0  0.88084  0.46261  0.15845  1.0000
  C   C8        1.0  0.41882  0.53744  0.34154  1.0000
  C   C9        1.0  0.14738  0.43009  0.82901  1.0000
  C   C10       1.0  0.71671  0.56986  0.67103  1.0000
  C   C11       1.0  0.85262  0.56991  0.17099  1.0000
  C   C12       1.0  0.28329  0.43014  0.32897  1.0000
  C   C13       1.0  0.29576  0.45154  0.84961  1.0000
  C   C14       1.0  0.84361  0.54838  0.65040  1.0000
  C   C15       1.0  0.70424  0.54846  0.15039  1.0000
  C   C16       1.0  0.15639  0.45162  0.34960  1.0000
  C   C17       1.0  0.41015  0.58356  0.87989  1.0000
  C   C18       1.0  0.82595  0.41634  0.62006  1.0000
  C   C19       1.0  0.58985  0.41644  0.12011  1.0000
  C   C20       1.0  0.17405  0.58366  0.37994  1.0000
  C   C21       1.0  0.56266  0.60825  0.90338  1.0000
  C   C22       1.0  0.95378  0.39165  0.59657  1.0000
  C   C23       1.0  0.43734  0.39175  0.09662  1.0000
  C   C24       1.0  0.04622  0.60835  0.40343  1.0000
  C   C25       1.0  0.59375  0.49978  0.89645  1.0000
  C   C26       1.0  0.09336  0.50013  0.60366  1.0000
  C   C27       1.0  0.40625  0.50022  0.10355  1.0000
  C   C28       1.0  0.90664  0.49987  0.39634  1.0000
  C   C29       1.0  0.47562  0.36872  0.86552  1.0000
  C   C30       1.0  0.10632  0.63121  0.63464  1.0000
  C   C31       1.0  0.52438  0.63127  0.13448  1.0000
  C   C32       1.0  0.89368  0.36879  0.36536  1.0000
  C   C33       1.0  0.33222  0.34570  0.84295  1.0000
  C   C34       1.0  0.98593  0.65424  0.65714  1.0000
  C   C35       1.0  0.66778  0.65430  0.15705  1.0000
  C   C36       1.0  0.01407  0.34576  0.34286  1.0000
  C   C37       1.0  0.74267  0.52704  0.92280  1.0000
  C   C38       1.0  0.21506  0.47293  0.57739  1.0000
  C   C39       1.0  0.25733  0.47296  0.07720  1.0000
  C   C40       1.0  0.78494  0.52707  0.42261  1.0000
  C   C41       1.0  0.85071  0.65630  0.95515  1.0000
  C   C42       1.0  0.19392  0.34369  0.54498  1.0000
  C   C43       1.0  0.14929  0.34370  0.04485  1.0000
  C   C44       1.0  0.80608  0.65631  0.45502  1.0000
  C   C45       1.0  0.80970  0.75677  0.95862  1.0000
  C   C46       1.0  0.05239  0.24317  0.54136  1.0000
  C   C47       1.0  0.19031  0.24323  0.04138  1.0000
  C   C48       1.0  0.94761  0.75683  0.45864  1.0000
  C   C49       1.0  0.86619  0.95547  0.83339  1.0000
  C   C50       1.0  0.91073  0.04443  0.66644  1.0000
  C   C51       1.0  0.13381  0.04453  0.16661  1.0000
  C   C52       1.0  0.08927  0.95557  0.33356  1.0000
  C   C53       1.0  0.00880  0.98332  0.79204  1.0000
  C   C54       1.0  0.02551  0.01659  0.70785  1.0000
  C   C55       1.0  0.99120  0.01668  0.20796  1.0000
  C   C56       1.0  0.97449  0.98341  0.29215  1.0000
  C   C57       1.0  0.12236  0.96822  0.83410  1.0000
  C   C58       1.0  0.15430  0.03181  0.66592  1.0000
  C   C59       1.0  0.87763  0.03178  0.16589  1.0000
  C   C60       1.0  0.84570  0.96819  0.33408  1.0000
  C   C61       1.0  0.36028  0.94933  0.83311  1.0000
  C   C62       1.0  0.41105  0.05074  0.66705  1.0000
  C   C63       1.0  0.63972  0.05067  0.16689  1.0000
  C   C64       1.0  0.58894  0.94926  0.33295  1.0000
  C   C65       1.0  0.25112  0.98290  0.79204  1.0000
  C   C66       1.0  0.26829  0.01712  0.70804  1.0000
  C   C67       1.0  0.74887  0.01710  0.20796  1.0000
  C   C68       1.0  0.73171  0.98288  0.29196  1.0000
  N   N1        1.0  0.38061  0.68807  0.88988  1.0000
  N   N2        1.0  0.69187  0.31184  0.61002  1.0000
  N   N3        1.0  0.61940  0.31193  0.11012  1.0000
  N   N4        1.0  0.30813  0.68816  0.38998  1.0000
  N   N5        1.0  0.67077  0.73466  0.93282  1.0000
  N   N6        1.0  0.93552  0.26523  0.56707  1.0000
  N   N7        1.0  0.32923  0.26534  0.06718  1.0000
  N   N8        1.0  0.06448  0.73477  0.43293  1.0000
  O   O1        1.0  0.87249  0.01021  0.92360  1.0000
  O   O2        1.0  0.86233  0.98974  0.57623  1.0000
  O   O3        1.0  0.12751  0.98979  0.07640  1.0000
  O   O4        1.0  0.13767  0.01026  0.42377  1.0000
  O   O5        1.0  0.74384  0.87482  0.77553  1.0000
  O   O6        1.0  0.86900  0.12505  0.72431  1.0000
  O   O7        1.0  0.25616  0.12518  0.22447  1.0000
  O   O8        1.0  0.13100  0.87495  0.27569  1.0000
  O   O9        1.0  0.70008  0.13231  0.87941  1.0000
  O   O10       1.0  0.56778  0.86760  0.62066  1.0000
  O   O11       1.0  0.29992  0.86769  0.12059  1.0000
  O   O12       1.0  0.43222  0.13239  0.37934  1.0000
  O   O13       1.0  0.39003  0.98512  0.92526  1.0000
  O   O14       1.0  0.40506  0.01500  0.57491  1.0000
  O   O15       1.0  0.60997  0.01488  0.07474  1.0000
  O   O16       1.0  0.59494  0.98500  0.42509  1.0000
  O   O17       1.0  0.41576  0.88161  0.77623  1.0000
  O   O18       1.0  0.53425  0.11848  0.72395  1.0000
  O   O19       1.0  0.58424  0.11838  0.22377  1.0000
  O   O20       1.0  0.46575  0.88152  0.27605  1.0000
