data_image0
_chemical_formula_structural       V4Ni2H34C36N6O14
_chemical_formula_sum              "V4 Ni2 H34 C36 N6 O14"
_cell_length_a       7.75548
_cell_length_b       11.3623
_cell_length_c       13.5014
_cell_angle_alpha    92.1902
_cell_angle_beta     105.921
_cell_angle_gamma    109.545

_space_group_name_H-M_alt    "P 1"
_space_group_IT_number       1

loop_
  _space_group_symop_operation_xyz
  'x, y, z'

loop_
  _atom_site_type_symbol
  _atom_site_label
  _atom_site_symmetry_multiplicity
  _atom_site_fract_x
  _atom_site_fract_y
  _atom_site_fract_z
  _atom_site_occupancy
  V   V1        1.0  0.09192  0.31406  0.01632  1.0000
  V   V2        1.0  0.90809  0.68592  0.98368  1.0000
  V   V3        1.0  0.22466  0.57278  0.14116  1.0000
  V   V4        1.0  0.77534  0.42720  0.85884  1.0000
  Ni  Ni1       1.0  0.49998  0.49999  0.99999  1.0000
  Ni  Ni2       1.0  1.00000  0.99999  0.00000  1.0000
  H   H1        1.0  0.86787  0.11435  0.15251  1.0000
  H   H2        1.0  0.13212  0.88564  0.84749  1.0000
  H   H3        1.0  0.84799  0.09707  0.33175  1.0000
  H   H4        1.0  0.15200  0.90292  0.66826  1.0000
  H   H5        1.0  0.15883  0.84049  0.35085  1.0000
  H   H6        1.0  0.84116  0.15950  0.64916  1.0000
  H   H7        1.0  0.16135  0.86697  0.17093  1.0000
  H   H8        1.0  0.83865  0.13302  0.82908  1.0000
  H   H9        1.0  0.08784  0.89622  0.50433  1.0000
  H   H10       1.0  0.91214  0.10377  0.49568  1.0000
  H   H11       1.0  0.35141  0.34040  0.78739  1.0000
  H   H12       1.0  0.64858  0.65961  0.21259  1.0000
  H   H13       1.0  0.16253  0.34330  0.60793  1.0000
  H   H14       1.0  0.83747  0.65673  0.39205  1.0000
  H   H15       1.0  0.08284  0.67435  0.72599  1.0000
  H   H16       1.0  0.91718  0.32568  0.27401  1.0000
  H   H17       1.0  0.28636  0.66109  0.90045  1.0000
  H   H18       1.0  0.71364  0.33891  0.09956  1.0000
  H   H19       1.0  0.92274  0.59099  0.54560  1.0000
  H   H20       1.0  0.07731  0.40906  0.45439  1.0000
  H   H21       1.0  0.34270  0.05825  0.97946  1.0000
  H   H22       1.0  0.65729  0.94174  0.02054  1.0000
  H   H23       1.0  0.32654  0.18419  0.02224  1.0000
  H   H24       1.0  0.67346  0.81578  0.97777  1.0000
  H   H25       1.0  0.59172  0.10043  0.52602  1.0000
  H   H26       1.0  0.40829  0.89957  0.47398  1.0000
  H   H27       1.0  0.56277  0.29901  0.58367  1.0000
  H   H28       1.0  0.43726  0.70100  0.41633  1.0000
  H   H29       1.0  0.38762  0.34672  0.25880  1.0000
  H   H30       1.0  0.61238  0.65328  0.74120  1.0000
  H   H31       1.0  0.44038  0.14903  0.21602  1.0000
  H   H32       1.0  0.55960  0.85097  0.78398  1.0000
  H   H33       1.0  0.40666  0.50889  0.38499  1.0000
  H   H34       1.0  0.59336  0.49113  0.61501  1.0000
  C   C1        1.0  0.92952  0.05419  0.19986  1.0000
  C   C2        1.0  0.07048  0.94580  0.80014  1.0000
  C   C3        1.0  0.92390  0.04654  0.30098  1.0000
  C   C4        1.0  0.07610  0.95345  0.69903  1.0000
  C   C5        1.0  0.01161  0.97124  0.36094  1.0000
  C   C6        1.0  0.98839  0.02875  0.63906  1.0000
  C   C7        1.0  0.09279  0.90313  0.31069  1.0000
  C   C8        1.0  0.90722  0.09687  0.68932  1.0000
  C   C9        1.0  0.09397  0.91669  0.20922  1.0000
  C   C10       1.0  0.90604  0.08331  0.79079  1.0000
  C   C11       1.0  0.02554  0.96396  0.46988  1.0000
  C   C12       1.0  0.97443  0.03601  0.53012  1.0000
  C   C13       1.0  0.29158  0.41397  0.77005  1.0000
  C   C14       1.0  0.70841  0.58604  0.22994  1.0000
  C   C15       1.0  0.18496  0.41661  0.66954  1.0000
  C   C16       1.0  0.81503  0.58341  0.33045  1.0000
  C   C17       1.0  0.10867  0.51263  0.64900  1.0000
  C   C18       1.0  0.89135  0.48740  0.35099  1.0000
  C   C19       1.0  0.14305  0.60003  0.73522  1.0000
  C   C20       1.0  0.85697  0.39999  0.26478  1.0000
  C   C21       1.0  0.25573  0.59337  0.83288  1.0000
  C   C22       1.0  0.74426  0.40664  0.16712  1.0000
  C   C23       1.0  0.00243  0.52764  0.54586  1.0000
  C   C24       1.0  0.99760  0.47239  0.45413  1.0000
  C   C25       1.0  0.55292  0.15955  0.46843  1.0000
  C   C26       1.0  0.44708  0.84045  0.53157  1.0000
  C   C27       1.0  0.53342  0.27068  0.50075  1.0000
  C   C28       1.0  0.46659  0.72933  0.49925  1.0000
  C   C29       1.0  0.47796  0.34451  0.42561  1.0000
  C   C30       1.0  0.52205  0.65549  0.57440  1.0000
  C   C31       1.0  0.43678  0.29595  0.32091  1.0000
  C   C32       1.0  0.56322  0.70406  0.67909  1.0000
  C   C33       1.0  0.46585  0.18496  0.29697  1.0000
  C   C34       1.0  0.53414  0.81504  0.70304  1.0000
  C   C35       1.0  0.46747  0.46735  0.45140  1.0000
  C   C36       1.0  0.53253  0.53265  0.54860  1.0000
  N   N1        1.0  0.01457  0.99153  0.15368  1.0000
  N   N2        1.0  0.98544  0.00846  0.84633  1.0000
  N   N3        1.0  0.33094  0.50244  0.85084  1.0000
  N   N4        1.0  0.66904  0.49756  0.14915  1.0000
  N   N5        1.0  0.52580  0.11679  0.36882  1.0000
  N   N6        1.0  0.47418  0.88320  0.63119  1.0000
  O   O1        1.0  0.36206  0.59006  0.06203  1.0000
  O   O2        1.0  0.63794  0.40994  0.93796  1.0000
  O   O3        1.0  0.30882  0.32293  0.00647  1.0000
  O   O4        1.0  0.69116  0.67705  0.99351  1.0000
  O   O5        1.0  0.96727  0.36817  0.90804  1.0000
  O   O6        1.0  0.03271  0.63182  0.09195  1.0000
  O   O7        1.0  0.96303  0.16308  0.01560  1.0000
  O   O8        1.0  0.03698  0.83690  0.98441  1.0000
  O   O9        1.0  0.12352  0.40199  0.13706  1.0000
  O   O10       1.0  0.87651  0.59800  0.86294  1.0000
  O   O11       1.0  0.35423  0.64163  0.25926  1.0000
  O   O12       1.0  0.64576  0.35837  0.74073  1.0000
  O   O13       1.0  0.30901  0.09423  0.03477  1.0000
  O   O14       1.0  0.69097  0.90575  0.96522  1.0000
