data_image0
_chemical_formula_structural       Mn2H8C8N16
_chemical_formula_sum              "Mn2 H8 C8 N16"
_cell_length_a       6.74917
_cell_length_b       7.34074
_cell_length_c       8.75963
_cell_angle_alpha    114.771
_cell_angle_beta     108.576
_cell_angle_gamma    90.0056

_space_group_name_H-M_alt    "P 1"
_space_group_IT_number       1

loop_
  _space_group_symop_operation_xyz
  'x, y, z'

loop_
  _atom_site_type_symbol
  _atom_site_label
  _atom_site_symmetry_multiplicity
  _atom_site_fract_x
  _atom_site_fract_y
  _atom_site_fract_z
  _atom_site_occupancy
  Mn  Mn1       1.0  0.74999  0.98790  0.00003  1.0000
  Mn  Mn2       1.0  0.25001  0.01211  0.99997  1.0000
  H   H1        1.0  0.94852  0.79131  0.26935  1.0000
  H   H2        1.0  0.44834  0.47784  0.26910  1.0000
  H   H3        1.0  0.05148  0.20868  0.73065  1.0000
  H   H4        1.0  0.55166  0.52217  0.73090  1.0000
  H   H5        1.0  0.95743  0.45019  0.26583  1.0000
  H   H6        1.0  0.45720  0.81554  0.26578  1.0000
  H   H7        1.0  0.04257  0.54980  0.73417  1.0000
  H   H8        1.0  0.54280  0.18446  0.73422  1.0000
  C   C1        1.0  0.86088  0.65615  0.14751  1.0000
  C   C2        1.0  0.36061  0.49119  0.14727  1.0000
  C   C3        1.0  0.13912  0.34385  0.85248  1.0000
  C   C4        1.0  0.63938  0.50881  0.85273  1.0000
  C   C5        1.0  0.86252  0.46628  0.14701  1.0000
  C   C6        1.0  0.36231  0.68065  0.14689  1.0000
  C   C7        1.0  0.13748  0.53372  0.85299  1.0000
  C   C8        1.0  0.63769  0.31935  0.85311  1.0000
  N   N1        1.0  0.42031  0.90523  0.80895  1.0000
  N   N2        1.0  0.92024  0.90363  0.80892  1.0000
  N   N3        1.0  0.57969  0.09477  0.19104  1.0000
  N   N4        1.0  0.07977  0.09637  0.19109  1.0000
  N   N5        1.0  0.34415  0.76950  0.65798  1.0000
  N   N6        1.0  0.84411  0.88837  0.65791  1.0000
  N   N7        1.0  0.65585  0.23051  0.34204  1.0000
  N   N8        1.0  0.15589  0.11163  0.34207  1.0000
  N   N9        1.0  0.27059  0.63756  0.51361  1.0000
  N   N10       1.0  0.77061  0.87595  0.51357  1.0000
  N   N11       1.0  0.72940  0.36243  0.48638  1.0000
  N   N12       1.0  0.22940  0.12405  0.48644  1.0000
  N   N13       1.0  0.75013  0.67813  0.00014  1.0000
  N   N14       1.0  0.24988  0.32187  0.99987  1.0000
  N   N15       1.0  0.75013  0.29782  0.00006  1.0000
  N   N16       1.0  0.24987  0.70217  0.99994  1.0000
