data_image0
_chemical_formula_structural       Cd4H28C44N24O16
_chemical_formula_sum              "Cd4 H28 C44 N24 O16"
_cell_length_a       9.6549
_cell_length_b       10.3298
_cell_length_c       14.0838
_cell_angle_alpha    97.4284
_cell_angle_beta     90
_cell_angle_gamma    90

_space_group_name_H-M_alt    "P 1"
_space_group_IT_number       1

loop_
  _space_group_symop_operation_xyz
  'x, y, z'

loop_
  _atom_site_type_symbol
  _atom_site_label
  _atom_site_symmetry_multiplicity
  _atom_site_fract_x
  _atom_site_fract_y
  _atom_site_fract_z
  _atom_site_occupancy
  Cd  Cd1       1.0  0.39507  0.71554  0.30928  1.0000
  Cd  Cd2       1.0  0.89507  0.28444  0.19073  1.0000
  Cd  Cd3       1.0  0.60491  0.28446  0.69073  1.0000
  Cd  Cd4       1.0  0.10489  0.71555  0.80926  1.0000
  H   H1        1.0  0.59532  0.47835  0.15349  1.0000
  H   H2        1.0  0.09533  0.52163  0.34651  1.0000
  H   H3        1.0  0.40463  0.52165  0.84653  1.0000
  H   H4        1.0  0.90466  0.47834  0.65347  1.0000
  H   H5        1.0  0.76093  0.85117  0.31455  1.0000
  H   H6        1.0  0.26093  0.14882  0.18543  1.0000
  H   H7        1.0  0.23906  0.14878  0.68547  1.0000
  H   H8        1.0  0.73904  0.85121  0.81456  1.0000
  H   H9        1.0  0.79669  0.10980  0.40005  1.0000
  H   H10       1.0  0.29666  0.89020  0.09991  1.0000
  H   H11       1.0  0.20337  0.89014  0.60000  1.0000
  H   H12       1.0  0.70336  0.10984  0.90006  1.0000
  H   H13       1.0  0.04122  0.86731  0.37408  1.0000
  H   H14       1.0  0.54121  0.13272  0.12596  1.0000
  H   H15       1.0  0.95881  0.13271  0.62594  1.0000
  H   H16       1.0  0.45878  0.86727  0.87403  1.0000
  H   H17       1.0  0.03102  0.14235  0.41748  1.0000
  H   H18       1.0  0.53099  0.85768  0.08255  1.0000
  H   H19       1.0  0.96899  0.85768  0.58253  1.0000
  H   H20       1.0  0.46899  0.14229  0.91746  1.0000
  H   H21       1.0  0.28021  0.21886  0.41856  1.0000
  H   H22       1.0  0.78018  0.78115  0.08143  1.0000
  H   H23       1.0  0.71981  0.78117  0.58145  1.0000
  H   H24       1.0  0.21981  0.21883  0.91855  1.0000
  H   H25       1.0  0.55078  0.19474  0.44285  1.0000
  H   H26       1.0  0.05074  0.80526  0.05713  1.0000
  H   H27       1.0  0.44928  0.80524  0.55719  1.0000
  H   H28       1.0  0.94928  0.19475  0.94284  1.0000
  C   C1        1.0  0.62137  0.48096  0.22882  1.0000
  C   C2        1.0  0.12137  0.51903  0.27119  1.0000
  C   C3        1.0  0.37860  0.51905  0.77119  1.0000
  C   C4        1.0  0.87861  0.48096  0.72880  1.0000
  C   C5        1.0  0.63153  0.54100  0.38273  1.0000
  C   C6        1.0  0.13152  0.45900  0.11727  1.0000
  C   C7        1.0  0.36849  0.45901  0.61729  1.0000
  C   C8        1.0  0.86846  0.54102  0.88271  1.0000
  C   C9        1.0  0.72843  0.43984  0.35809  1.0000
  C   C10       1.0  0.22841  0.56015  0.14191  1.0000
  C   C11       1.0  0.27158  0.56016  0.64191  1.0000
  C   C12       1.0  0.77156  0.43985  0.85808  1.0000
  C   C13       1.0  0.59969  0.62686  0.47240  1.0000
  C   C14       1.0  0.09969  0.37313  0.02761  1.0000
  C   C15       1.0  0.40034  0.37314  0.52762  1.0000
  C   C16       1.0  0.90030  0.62688  0.97237  1.0000
  C   C17       1.0  0.82393  0.36609  0.41398  1.0000
  C   C18       1.0  0.32392  0.63391  0.08602  1.0000
  C   C19       1.0  0.17606  0.63391  0.58602  1.0000
  C   C20       1.0  0.67607  0.36610  0.91398  1.0000
  C   C21       1.0  0.48120  0.01051  0.36773  1.0000
  C   C22       1.0  0.98120  0.98949  0.13227  1.0000
  C   C23       1.0  0.51882  0.98949  0.63230  1.0000
  C   C24       1.0  0.01880  0.01052  0.86770  1.0000
  C   C25       1.0  0.68431  0.92473  0.33911  1.0000
  C   C26       1.0  0.18429  0.07526  0.16088  1.0000
  C   C27       1.0  0.31570  0.07525  0.66092  1.0000
  C   C28       1.0  0.81569  0.92476  0.83910  1.0000
  C   C29       1.0  0.70391  0.05269  0.38197  1.0000
  C   C30       1.0  0.20388  0.94729  0.11800  1.0000
  C   C31       1.0  0.29611  0.94722  0.61806  1.0000
  C   C32       1.0  0.79611  0.05276  0.88198  1.0000
  C   C33       1.0  0.33367  0.01415  0.37732  1.0000
  C   C34       1.0  0.83366  0.98586  0.12268  1.0000
  C   C35       1.0  0.66634  0.98586  0.62271  1.0000
  C   C36       1.0  0.16633  0.01414  0.87727  1.0000
  C   C37       1.0  0.12401  0.93885  0.37961  1.0000
  C   C38       1.0  0.62399  0.06116  0.12041  1.0000
  C   C39       1.0  0.87601  0.06118  0.62041  1.0000
  C   C40       1.0  0.37600  0.93881  0.87956  1.0000
  C   C41       1.0  0.11682  0.07404  0.40401  1.0000
  C   C42       1.0  0.61680  0.92598  0.09601  1.0000
  C   C43       1.0  0.88319  0.92595  0.59600  1.0000
  C   C44       1.0  0.38319  0.07403  0.90398  1.0000
  N   N1        1.0  0.56608  0.56394  0.30043  1.0000
  N   N2        1.0  0.06607  0.43605  0.19957  1.0000
  N   N3        1.0  0.43392  0.43605  0.69957  1.0000
  N   N4        1.0  0.93390  0.56396  0.80041  1.0000
  N   N5        1.0  0.71834  0.40355  0.26116  1.0000
  N   N6        1.0  0.21834  0.59644  0.23884  1.0000
  N   N7        1.0  0.28162  0.59646  0.73884  1.0000
  N   N8        1.0  0.78162  0.40354  0.76115  1.0000
  N   N9        1.0  0.25839  0.90300  0.36307  1.0000
  N   N10       1.0  0.75837  0.09701  0.13694  1.0000
  N   N11       1.0  0.74163  0.09703  0.63696  1.0000
  N   N12       1.0  0.24162  0.90297  0.86302  1.0000
  N   N13       1.0  0.24955  0.11912  0.40212  1.0000
  N   N14       1.0  0.74952  0.88090  0.09789  1.0000
  N   N15       1.0  0.75048  0.88090  0.59791  1.0000
  N   N16       1.0  0.25047  0.11909  0.90208  1.0000
  N   N17       1.0  0.54623  0.89998  0.33002  1.0000
  N   N18       1.0  0.04621  0.10002  0.16998  1.0000
  N   N19       1.0  0.45378  0.10001  0.67001  1.0000
  N   N20       1.0  0.95376  0.89999  0.82999  1.0000
  N   N21       1.0  0.57500  0.10540  0.39861  1.0000
  N   N22       1.0  0.07499  0.89459  0.10137  1.0000
  N   N23       1.0  0.42504  0.89457  0.60142  1.0000
  N   N24       1.0  0.92502  0.10543  0.89860  1.0000
  O   O1        1.0  0.48941  0.69708  0.47155  1.0000
  O   O2        1.0  0.98943  0.30289  0.02847  1.0000
  O   O3        1.0  0.51058  0.30289  0.52849  1.0000
  O   O4        1.0  0.01054  0.69715  0.97150  1.0000
  O   O5        1.0  0.68251  0.63409  0.54249  1.0000
  O   O6        1.0  0.18250  0.36590  0.95752  1.0000
  O   O7        1.0  0.31757  0.36593  0.45751  1.0000
  O   O8        1.0  0.81753  0.63409  0.04248  1.0000
  O   O9        1.0  0.81158  0.36997  0.50338  1.0000
  O   O10       1.0  0.31157  0.63005  0.99663  1.0000
  O   O11       1.0  0.18840  0.63002  0.49662  1.0000
  O   O12       1.0  0.68843  0.36997  0.00338  1.0000
  O   O13       1.0  0.91437  0.29285  0.36598  1.0000
  O   O14       1.0  0.41436  0.70715  0.13403  1.0000
  O   O15       1.0  0.08564  0.70715  0.63402  1.0000
  O   O16       1.0  0.58564  0.29285  0.86598  1.0000
