data_image0
_chemical_formula_structural       Cd2H28C46Br8N12O10
_chemical_formula_sum              "Cd2 H28 C46 Br8 N12 O10"
_cell_length_a       10.7459
_cell_length_b       11.9561
_cell_length_c       12.0615
_cell_angle_alpha    90.7854
_cell_angle_beta     108.822
_cell_angle_gamma    110.618

_space_group_name_H-M_alt    "P 1"
_space_group_IT_number       1

loop_
  _space_group_symop_operation_xyz
  'x, y, z'

loop_
  _atom_site_type_symbol
  _atom_site_label
  _atom_site_symmetry_multiplicity
  _atom_site_fract_x
  _atom_site_fract_y
  _atom_site_fract_z
  _atom_site_occupancy
  Cd  Cd1       1.0  0.33863  0.33431  0.12817  1.0000
  Cd  Cd2       1.0  0.66137  0.66569  0.87183  1.0000
  H   H1        1.0  0.12406  0.38599  0.27644  1.0000
  H   H2        1.0  0.87594  0.61401  0.72356  1.0000
  H   H3        1.0  0.26727  0.10027  0.29351  1.0000
  H   H4        1.0  0.73274  0.89973  0.70649  1.0000
  H   H5        1.0  0.12643  0.08180  0.45499  1.0000
  H   H6        1.0  0.87357  0.91820  0.54501  1.0000
  H   H7        1.0  0.15415  0.22628  0.61583  1.0000
  H   H8        1.0  0.84585  0.77372  0.38417  1.0000
  H   H9        1.0  0.83552  0.35123  0.64867  1.0000
  H   H10       1.0  0.16448  0.64877  0.35133  1.0000
  H   H11       1.0  0.89383  0.32561  0.30990  1.0000
  H   H12       1.0  0.10617  0.67439  0.69010  1.0000
  H   H13       1.0  0.24923  0.39680  0.84078  1.0000
  H   H14       1.0  0.75077  0.60320  0.15922  1.0000
  H   H15       1.0  0.99336  0.13991  0.99279  1.0000
  H   H16       1.0  0.00664  0.86009  0.00721  1.0000
  H   H17       1.0  0.83632  0.12696  0.75528  1.0000
  H   H18       1.0  0.16368  0.87304  0.24472  1.0000
  H   H19       1.0  0.73180  0.47192  0.57545  1.0000
  H   H20       1.0  0.26820  0.52808  0.42455  1.0000
  H   H21       1.0  0.50389  0.50178  0.40488  1.0000
  H   H22       1.0  0.49611  0.49822  0.59512  1.0000
  H   H23       1.0  0.66837  0.30901  0.23540  1.0000
  H   H24       1.0  0.33163  0.69100  0.76460  1.0000
  H   H25       1.0  0.51122  0.28736  0.02568  1.0000
  H   H26       1.0  0.48878  0.71264  0.97432  1.0000
  H   H27       1.0  0.53766  0.40221  0.95641  1.0000
  H   H28       1.0  0.46234  0.59779  0.04359  1.0000
  C   C1        1.0  0.14168  0.30463  0.30167  1.0000
  C   C2        1.0  0.85832  0.69537  0.69833  1.0000
  C   C3        1.0  0.21638  0.15657  0.31557  1.0000
  C   C4        1.0  0.78362  0.84343  0.68443  1.0000
  C   C5        1.0  0.14734  0.14657  0.39499  1.0000
  C   C6        1.0  0.85266  0.85343  0.60501  1.0000
  C   C7        1.0  0.02989  0.27255  0.45537  1.0000
  C   C8        1.0  0.97011  0.72745  0.54463  1.0000
  C   C9        1.0  0.06887  0.25816  0.57501  1.0000
  C   C10       1.0  0.93114  0.74184  0.42499  1.0000
  C   C11       1.0  0.99683  0.28683  0.64168  1.0000
  C   C12       1.0  0.00317  0.71317  0.35832  1.0000
  C   C13       1.0  0.88886  0.32987  0.59278  1.0000
  C   C14       1.0  0.11114  0.67013  0.40722  1.0000
  C   C15       1.0  0.85322  0.34487  0.47310  1.0000
  C   C16       1.0  0.14678  0.65513  0.52690  1.0000
  C   C17       1.0  0.92324  0.31655  0.40368  1.0000
  C   C18       1.0  0.07676  0.68345  0.59632  1.0000
  C   C19       1.0  0.15993  0.32508  0.85157  1.0000
  C   C20       1.0  0.84007  0.67493  0.14843  1.0000
  C   C21       1.0  0.02278  0.19183  0.92601  1.0000
  C   C22       1.0  0.97722  0.80817  0.07399  1.0000
  C   C23       1.0  0.94392  0.18372  0.80925  1.0000
  C   C24       1.0  0.05608  0.81629  0.19074  1.0000
  C   C25       1.0  0.68709  0.44609  0.48032  1.0000
  C   C26       1.0  0.31291  0.55391  0.51968  1.0000
  C   C27       1.0  0.57315  0.45758  0.39578  1.0000
  C   C28       1.0  0.42685  0.54242  0.60422  1.0000
  C   C29       1.0  0.65666  0.36091  0.30316  1.0000
  C   C30       1.0  0.34334  0.63909  0.69684  1.0000
  C   C31       1.0  0.41039  0.09626  0.10210  1.0000
  C   C32       1.0  0.58960  0.90374  0.89790  1.0000
  C   C33       1.0  0.38577  0.96510  0.11867  1.0000
  C   C34       1.0  0.61423  0.03490  0.88133  1.0000
  C   C35       1.0  0.45699  0.93604  0.22658  1.0000
  C   C36       1.0  0.54301  0.06396  0.77342  1.0000
  C   C37       1.0  0.43157  0.81550  0.24309  1.0000
  C   C38       1.0  0.56843  0.18450  0.75691  1.0000
  C   C39       1.0  0.33120  0.72182  0.15315  1.0000
  C   C40       1.0  0.66880  0.27818  0.84685  1.0000
  C   C41       1.0  0.25923  0.75069  0.04531  1.0000
  C   C42       1.0  0.74078  0.24931  0.95470  1.0000
  C   C43       1.0  0.28786  0.87131  0.02769  1.0000
  C   C44       1.0  0.71214  0.12869  0.97231  1.0000
  C   C45       1.0  0.29771  0.59115  0.17482  1.0000
  C   C46       1.0  0.70229  0.40884  0.82518  1.0000
  Br  Br1       1.0  0.58616  0.06285  0.35255  1.0000
  Br  Br2       1.0  0.41384  0.93716  0.64745  1.0000
  Br  Br3       1.0  0.53248  0.77663  0.38867  1.0000
  Br  Br4       1.0  0.46752  0.22338  0.61133  1.0000
  Br  Br5       1.0  0.11768  0.62118  0.92786  1.0000
  Br  Br6       1.0  0.88232  0.37882  0.07215  1.0000
  Br  Br7       1.0  0.19558  0.91277  0.88077  1.0000
  Br  Br8       1.0  0.80442  0.08722  0.11923  1.0000
  N   N1        1.0  0.21291  0.25598  0.25896  1.0000
  N   N2        1.0  0.78709  0.74402  0.74104  1.0000
  N   N3        1.0  0.10004  0.24164  0.38571  1.0000
  N   N4        1.0  0.89996  0.75836  0.61429  1.0000
  N   N5        1.0  0.03233  0.26846  0.76267  1.0000
  N   N6        1.0  0.96767  0.73154  0.23733  1.0000
  N   N7        1.0  0.15571  0.28057  0.95096  1.0000
  N   N8        1.0  0.84429  0.71943  0.04904  1.0000
  N   N9        1.0  0.74090  0.38499  0.42067  1.0000
  N   N10       1.0  0.25910  0.61501  0.57933  1.0000
  N   N11       1.0  0.55477  0.40335  0.28661  1.0000
  N   N12       1.0  0.44522  0.59665  0.71339  1.0000
  O   O1        1.0  0.51418  0.15467  0.07237  1.0000
  O   O2        1.0  0.48582  0.84533  0.92763  1.0000
  O   O3        1.0  0.49755  0.36548  0.01637  1.0000
  O   O4        1.0  0.50245  0.63452  0.98363  1.0000
  O   O5        1.0  0.32124  0.13282  0.12230  1.0000
  O   O6        1.0  0.67875  0.86718  0.87770  1.0000
  O   O7        1.0  0.36359  0.53684  0.13849  1.0000
  O   O8        1.0  0.63641  0.46316  0.86152  1.0000
  O   O9        1.0  0.21100  0.55016  0.22713  1.0000
  O   O10       1.0  0.78900  0.44983  0.77287  1.0000
