data_image0
_chemical_formula_structural       CoH30C28N8O10F8
_chemical_formula_sum              "Co1 H30 C28 N8 O10 F8"
_cell_length_a       8.75413
_cell_length_b       9.60825
_cell_length_c       11.3251
_cell_angle_alpha    81.1274
_cell_angle_beta     64.1827
_cell_angle_gamma    72.7028

_space_group_name_H-M_alt    "P 1"
_space_group_IT_number       1

loop_
  _space_group_symop_operation_xyz
  'x, y, z'

loop_
  _atom_site_type_symbol
  _atom_site_label
  _atom_site_symmetry_multiplicity
  _atom_site_fract_x
  _atom_site_fract_y
  _atom_site_fract_z
  _atom_site_occupancy
  Co  Co1       1.0  0.99998  0.00001  0.50001  1.0000
  H   H1        1.0  0.77669  0.25211  0.46018  1.0000
  H   H2        1.0  0.22330  0.74789  0.53982  1.0000
  H   H3        1.0  0.64346  0.29058  0.60574  1.0000
  H   H4        1.0  0.35655  0.70938  0.39427  1.0000
  H   H5        1.0  0.33070  0.99328  0.51423  1.0000
  H   H6        1.0  0.66929  0.00672  0.48576  1.0000
  H   H7        1.0  0.38403  0.94696  0.35095  1.0000
  H   H8        1.0  0.61593  0.05304  0.64906  1.0000
  H   H9        1.0  0.10277  0.21483  0.60853  1.0000
  H   H10       1.0  0.89723  0.78518  0.39147  1.0000
  H   H11       1.0  0.99476  0.32756  0.51186  1.0000
  H   H12       1.0  0.00523  0.67245  0.48815  1.0000
  H   H13       1.0  0.23983  0.10578  0.22330  1.0000
  H   H14       1.0  0.76013  0.89423  0.77670  1.0000
  H   H15       1.0  0.07294  0.26970  0.29271  1.0000
  H   H16       1.0  0.92703  0.73031  0.70730  1.0000
  H   H17       1.0  0.53630  0.08706  0.16786  1.0000
  H   H18       1.0  0.46366  0.91294  0.83213  1.0000
  H   H19       1.0  0.60177  0.23599  0.19375  1.0000
  H   H20       1.0  0.39821  0.76400  0.80624  1.0000
  H   H21       1.0  0.52797  0.29820  0.41138  1.0000
  H   H22       1.0  0.47203  0.70179  0.58860  1.0000
  H   H23       1.0  0.41010  0.19475  0.54928  1.0000
  H   H24       1.0  0.58990  0.80524  0.45071  1.0000
  H   H25       1.0  0.15482  0.46958  0.32608  1.0000
  H   H26       1.0  0.84517  0.53043  0.67391  1.0000
  H   H27       1.0  0.38192  0.45735  0.28498  1.0000
  H   H28       1.0  0.61808  0.54264  0.71501  1.0000
  H   H29       1.0  0.77810  0.57850  0.46955  1.0000
  H   H30       1.0  0.22193  0.42149  0.53043  1.0000
  C   C1        1.0  0.06850  0.92447  0.73556  1.0000
  C   C2        1.0  0.93149  0.07554  0.26446  1.0000
  C   C3        1.0  0.02614  0.97096  0.87140  1.0000
  C   C4        1.0  0.97385  0.02905  0.12862  1.0000
  C   C5        1.0  0.10827  0.06373  0.89091  1.0000
  C   C6        1.0  0.89172  0.93629  0.10909  1.0000
  C   C7        1.0  0.08473  0.09048  0.01601  1.0000
  C   C8        1.0  0.91526  0.90953  0.98400  1.0000
  C   C9        1.0  0.34665  0.03648  0.41534  1.0000
  C   C10       1.0  0.65333  0.96352  0.58466  1.0000
  C   C11       1.0  0.11921  0.25528  0.50919  1.0000
  C   C12       1.0  0.88078  0.74473  0.49081  1.0000
  C   C13       1.0  0.19828  0.19643  0.28740  1.0000
  C   C14       1.0  0.80170  0.80358  0.71261  1.0000
  C   C15       1.0  0.49933  0.17720  0.23207  1.0000
  C   C16       1.0  0.50066  0.82280  0.76792  1.0000
  C   C17       1.0  0.42991  0.23502  0.44910  1.0000
  C   C18       1.0  0.57010  0.76497  0.55088  1.0000
  C   C19       1.0  0.28082  0.39703  0.32023  1.0000
  C   C20       1.0  0.71918  0.60298  0.67976  1.0000
  C   C21       1.0  0.75918  0.54357  0.27919  1.0000
  C   C22       1.0  0.24087  0.45640  0.72081  1.0000
  C   C23       1.0  0.88133  0.52233  0.13540  1.0000
  C   C24       1.0  0.11870  0.47767  0.86460  1.0000
  C   C25       1.0  0.83867  0.47032  0.04830  1.0000
  C   C26       1.0  0.16138  0.52967  0.95169  1.0000
  C   C27       1.0  0.95437  0.44746  0.91733  1.0000
  C   C28       1.0  0.04567  0.55256  0.08266  1.0000
  N   N1        1.0  0.17110  0.13150  0.42381  1.0000
  N   N2        1.0  0.82888  0.86851  0.57620  1.0000
  N   N3        1.0  0.33273  0.27624  0.23680  1.0000
  N   N4        1.0  0.66724  0.72376  0.76320  1.0000
  N   N5        1.0  0.48077  0.11669  0.36398  1.0000
  N   N6        1.0  0.51922  0.88330  0.63601  1.0000
  N   N7        1.0  0.25783  0.33730  0.45665  1.0000
  N   N8        1.0  0.74217  0.66270  0.54335  1.0000
  O   O1        1.0  0.99344  0.01810  0.67010  1.0000
  O   O2        1.0  0.00653  0.98193  0.32992  1.0000
  O   O3        1.0  0.16767  0.80022  0.70263  1.0000
  O   O4        1.0  0.83230  0.19980  0.29737  1.0000
  O   O5        1.0  0.76646  0.24185  0.55146  1.0000
  O   O6        1.0  0.23355  0.75813  0.44854  1.0000
  O   O7        1.0  0.83916  0.49939  0.35556  1.0000
  O   O8        1.0  0.16093  0.50061  0.64443  1.0000
  O   O9        1.0  0.59862  0.60049  0.31158  1.0000
  O   O10       1.0  0.40143  0.39941  0.68845  1.0000
  F   F1        1.0  0.21738  0.12846  0.78617  1.0000
  F   F2        1.0  0.78260  0.87155  0.21385  1.0000
  F   F3        1.0  0.17451  0.17748  0.02715  1.0000
  F   F4        1.0  0.82548  0.82253  0.97286  1.0000
  F   F5        1.0  0.68304  0.43665  0.09015  1.0000
  F   F6        1.0  0.31702  0.56333  0.90985  1.0000
  F   F7        1.0  0.90424  0.38821  0.84273  1.0000
  F   F8        1.0  0.09578  0.61184  0.15724  1.0000
