data_image0
_chemical_formula_structural       Hg2H28C36I4N8O4
_chemical_formula_sum              "Hg2 H28 C36 I4 N8 O4"
_cell_length_a       4.97644
_cell_length_b       8.38498
_cell_length_c       24.8923
_cell_angle_alpha    95.8166
_cell_angle_beta     89.9608
_cell_angle_gamma    107.301

_space_group_name_H-M_alt    "P 1"
_space_group_IT_number       1

loop_
  _space_group_symop_operation_xyz
  'x, y, z'

loop_
  _atom_site_type_symbol
  _atom_site_label
  _atom_site_symmetry_multiplicity
  _atom_site_fract_x
  _atom_site_fract_y
  _atom_site_fract_z
  _atom_site_occupancy
  Hg  Hg1       1.0  0.76755  0.00002  0.24994  1.0000
  Hg  Hg2       1.0  0.23245  0.99998  0.75006  1.0000
  H   H1        1.0  0.21977  0.66456  0.20074  1.0000
  H   H2        1.0  0.55393  0.33537  0.29898  1.0000
  H   H3        1.0  0.78023  0.33544  0.79926  1.0000
  H   H4        1.0  0.44607  0.66463  0.70101  1.0000
  H   H5        1.0  0.80705  0.58788  0.13530  1.0000
  H   H6        1.0  0.21865  0.41176  0.36482  1.0000
  H   H7        1.0  0.19296  0.41211  0.86470  1.0000
  H   H8        1.0  0.78135  0.58824  0.63518  1.0000
  H   H9        1.0  0.77342  0.79797  0.07165  1.0000
  H   H10       1.0  0.97619  0.20163  0.42857  1.0000
  H   H11       1.0  0.22658  0.20203  0.92835  1.0000
  H   H12       1.0  0.02381  0.79837  0.57143  1.0000
  H   H13       1.0  0.55126  0.12944  0.14539  1.0000
  H   H14       1.0  0.41937  0.86990  0.35387  1.0000
  H   H15       1.0  0.44874  0.87056  0.85461  1.0000
  H   H16       1.0  0.58063  0.13010  0.64613  1.0000
  H   H17       1.0  0.77124  0.29817  0.97837  1.0000
  H   H18       1.0  0.47310  0.70246  0.52140  1.0000
  H   H19       1.0  0.22876  0.70183  0.02163  1.0000
  H   H20       1.0  0.52689  0.29754  0.47860  1.0000
  H   H21       1.0  0.13565  0.44668  0.06997  1.0000
  H   H22       1.0  0.68863  0.55217  0.42996  1.0000
  H   H23       1.0  0.86436  0.55332  0.93003  1.0000
  H   H24       1.0  0.31136  0.44783  0.57004  1.0000
  H   H25       1.0  0.57724  0.16890  0.05798  1.0000
  H   H26       1.0  0.40795  0.83079  0.44167  1.0000
  H   H27       1.0  0.42277  0.83110  0.94202  1.0000
  H   H28       1.0  0.59205  0.16921  0.55833  1.0000
  C   C1        1.0  0.19788  0.75023  0.17195  1.0000
  C   C2        1.0  0.44638  0.24961  0.32779  1.0000
  C   C3        1.0  0.80212  0.24977  0.82805  1.0000
  C   C4        1.0  0.55362  0.75039  0.67221  1.0000
  C   C5        1.0  0.96939  0.70838  0.13524  1.0000
  C   C6        1.0  0.26032  0.29128  0.36470  1.0000
  C   C7        1.0  0.03062  0.29162  0.86476  1.0000
  C   C8        1.0  0.73968  0.70872  0.63530  1.0000
  C   C9        1.0  0.95068  0.82433  0.10024  1.0000
  C   C10       1.0  0.12618  0.17525  0.39975  1.0000
  C   C11       1.0  0.04932  0.17567  0.89976  1.0000
  C   C12       1.0  0.87382  0.82475  0.60025  1.0000
  C   C13       1.0  0.16510  0.97719  0.10202  1.0000
  C   C14       1.0  0.18689  0.02218  0.39769  1.0000
  C   C15       1.0  0.83490  0.02281  0.89798  1.0000
  C   C16       1.0  0.81310  0.97781  0.60231  1.0000
  C   C17       1.0  0.38484  0.00934  0.14042  1.0000
  C   C18       1.0  0.37363  0.99007  0.35907  1.0000
  C   C19       1.0  0.61516  0.99066  0.85958  1.0000
  C   C20       1.0  0.62637  0.00993  0.64093  1.0000
  C   C21       1.0  0.14892  0.10927  0.06738  1.0000
  C   C22       1.0  0.03906  0.88998  0.43238  1.0000
  C   C23       1.0  0.85108  0.89073  0.93262  1.0000
  C   C24       1.0  0.96094  0.11003  0.56762  1.0000
  C   C25       1.0  0.65265  0.38718  0.98762  1.0000
  C   C26       1.0  0.26547  0.61315  0.51225  1.0000
  C   C27       1.0  0.34735  0.61283  0.01238  1.0000
  C   C28       1.0  0.73452  0.38684  0.48775  1.0000
  C   C29       1.0  0.44652  0.35517  0.02684  1.0000
  C   C30       1.0  0.09125  0.64453  0.47298  1.0000
  C   C31       1.0  0.55348  0.64483  0.97316  1.0000
  C   C32       1.0  0.90875  0.35546  0.52702  1.0000
  C   C33       1.0  0.29394  0.46948  0.03919  1.0000
  C   C34       1.0  0.82434  0.52988  0.46076  1.0000
  C   C35       1.0  0.70606  0.53053  0.96081  1.0000
  C   C36       1.0  0.17565  0.47011  0.53924  1.0000
  I   I1        1.0  0.03960  0.29731  0.21375  1.0000
  I   I2        1.0  0.73948  0.70214  0.28576  1.0000
  I   I3        1.0  0.96040  0.70269  0.78624  1.0000
  I   I4        1.0  0.26052  0.29787  0.71424  1.0000
  N   N1        1.0  0.39933  0.89877  0.17464  1.0000
  N   N2        1.0  0.49867  0.10092  0.32490  1.0000
  N   N3        1.0  0.60067  0.10123  0.82536  1.0000
  N   N4        1.0  0.50133  0.89908  0.67510  1.0000
  N   N5        1.0  0.40393  0.21029  0.05391  1.0000
  N   N6        1.0  0.19325  0.78921  0.44580  1.0000
  N   N7        1.0  0.59607  0.78971  0.94609  1.0000
  N   N8        1.0  0.80675  0.21079  0.55420  1.0000
  O   O1        1.0  0.91875  0.12504  0.05318  1.0000
  O   O2        1.0  0.79315  0.87396  0.44671  1.0000
  O   O3        1.0  0.08125  0.87496  0.94682  1.0000
  O   O4        1.0  0.20685  0.12604  0.55329  1.0000
