data_image0
_chemical_formula_structural       Cu2H8C12I2N2Cl2O4
_chemical_formula_sum              "Cu2 H8 C12 I2 N2 Cl2 O4"
_cell_length_a       4.0803
_cell_length_b       6.67503
_cell_length_c       15.8826
_cell_angle_alpha    94.9886
_cell_angle_beta     91.9989
_cell_angle_gamma    96.7374

_space_group_name_H-M_alt    "P 1"
_space_group_IT_number       1

loop_
  _space_group_symop_operation_xyz
  'x, y, z'

loop_
  _atom_site_type_symbol
  _atom_site_label
  _atom_site_symmetry_multiplicity
  _atom_site_fract_x
  _atom_site_fract_y
  _atom_site_fract_z
  _atom_site_occupancy
  Cu  Cu1       1.0  0.24528  0.98260  0.94497  1.0000
  Cu  Cu2       1.0  0.75466  0.01741  0.05504  1.0000
  H   H1        1.0  0.03145  0.36277  0.89148  1.0000
  H   H2        1.0  0.96852  0.63725  0.10851  1.0000
  H   H3        1.0  0.94311  0.51436  0.75605  1.0000
  H   H4        1.0  0.05689  0.48563  0.24393  1.0000
  H   H5        1.0  0.45083  0.88714  0.76907  1.0000
  H   H6        1.0  0.54916  0.11286  0.23094  1.0000
  H   H7        1.0  0.86499  0.58218  0.55251  1.0000
  H   H8        1.0  0.13506  0.41784  0.44748  1.0000
  C   C1        1.0  0.10538  0.29158  0.83187  1.0000
  C   C2        1.0  0.89458  0.70841  0.16813  1.0000
  C   C3        1.0  0.05772  0.37518  0.75617  1.0000
  C   C4        1.0  0.94227  0.62482  0.24383  1.0000
  C   C5        1.0  0.15426  0.28173  0.67985  1.0000
  C   C6        1.0  0.84576  0.71826  0.32015  1.0000
  C   C7        1.0  0.30183  0.10203  0.68514  1.0000
  C   C8        1.0  0.69816  0.89797  0.31486  1.0000
  C   C9        1.0  0.33792  0.02628  0.76385  1.0000
  C   C10       1.0  0.66206  0.97371  0.23615  1.0000
  C   C11       1.0  0.09230  0.37517  0.59970  1.0000
  C   C12       1.0  0.90773  0.62481  0.40030  1.0000
  I   I1        1.0  0.30617  0.27200  0.06876  1.0000
  I   I2        1.0  0.69378  0.72802  0.93123  1.0000
  N   N1        1.0  0.24137  0.11767  0.83586  1.0000
  N   N2        1.0  0.75861  0.88233  0.16414  1.0000
  Cl  Cl1       1.0  0.44192  0.96484  0.60032  1.0000
  Cl  Cl2       1.0  0.55812  0.03515  0.39969  1.0000
  O   O1        1.0  0.20832  0.32041  0.53130  1.0000
  O   O2        1.0  0.79177  0.67959  0.46870  1.0000
  O   O3        1.0  0.90234  0.52246  0.60926  1.0000
  O   O4        1.0  0.09770  0.47754  0.39074  1.0000
