data_image0
_chemical_formula_structural       CuH16C10Br2N16O6
_chemical_formula_sum              "Cu1 H16 C10 Br2 N16 O6"
_cell_length_a       7.81891
_cell_length_b       8.075
_cell_length_c       9.66254
_cell_angle_alpha    77.8414
_cell_angle_beta     81.727
_cell_angle_gamma    87.4545

_space_group_name_H-M_alt    "P 1"
_space_group_IT_number       1

loop_
  _space_group_symop_operation_xyz
  'x, y, z'

loop_
  _atom_site_type_symbol
  _atom_site_label
  _atom_site_symmetry_multiplicity
  _atom_site_fract_x
  _atom_site_fract_y
  _atom_site_fract_z
  _atom_site_occupancy
  Cu  Cu1       1.0  0.00000  0.99999  0.00000  1.0000
  H   H1        1.0  0.82326  0.63627  0.18625  1.0000
  H   H2        1.0  0.17674  0.36372  0.81375  1.0000
  H   H3        1.0  0.36046  0.86049  0.11765  1.0000
  H   H4        1.0  0.63954  0.13951  0.88236  1.0000
  H   H5        1.0  0.63602  0.83104  0.63375  1.0000
  H   H6        1.0  0.36399  0.16897  0.36624  1.0000
  H   H7        1.0  0.43767  0.75383  0.60461  1.0000
  H   H8        1.0  0.56233  0.24618  0.39539  1.0000
  H   H9        1.0  0.87454  0.60926  0.65161  1.0000
  H   H10       1.0  0.12547  0.39075  0.34838  1.0000
  H   H11       1.0  0.83021  0.40738  0.76553  1.0000
  H   H12       1.0  0.16980  0.59263  0.23446  1.0000
  H   H13       1.0  0.51651  0.48858  0.81184  1.0000
  H   H14       1.0  0.48350  0.51143  0.18814  1.0000
  H   H15       1.0  0.59352  0.49937  0.62846  1.0000
  H   H16       1.0  0.40649  0.50064  0.37153  1.0000
  C   C1        1.0  0.83254  0.64945  0.07087  1.0000
  C   C2        1.0  0.16746  0.35054  0.92914  1.0000
  C   C3        1.0  0.36582  0.85214  0.00669  1.0000
  C   C4        1.0  0.63418  0.14786  0.99331  1.0000
  C   C5        1.0  0.53103  0.74192  0.68068  1.0000
  C   C6        1.0  0.46898  0.25809  0.31932  1.0000
  C   C7        1.0  0.78955  0.54138  0.74477  1.0000
  C   C8        1.0  0.21046  0.45862  0.25522  1.0000
  C   C9        1.0  0.60040  0.55955  0.71938  1.0000
  C   C10       1.0  0.39961  0.44045  0.28062  1.0000
  Br  Br1       1.0  0.04432  0.13340  0.62409  1.0000
  Br  Br2       1.0  0.95566  0.86659  0.37591  1.0000
  N   N1        1.0  0.89180  0.79003  0.97549  1.0000
  N   N2        1.0  0.10820  0.20996  0.02451  1.0000
  N   N3        1.0  0.28091  0.87257  0.80049  1.0000
  N   N4        1.0  0.71909  0.12742  0.19951  1.0000
  N   N5        1.0  0.88506  0.76504  0.84569  1.0000
  N   N6        1.0  0.11494  0.23496  0.15431  1.0000
  N   N7        1.0  0.43569  0.80036  0.80432  1.0000
  N   N8        1.0  0.56431  0.19964  0.19568  1.0000
  N   N9        1.0  0.49451  0.78516  0.92946  1.0000
  N   N10       1.0  0.50549  0.21485  0.07054  1.0000
  N   N11       1.0  0.23602  0.90648  0.92882  1.0000
  N   N12       1.0  0.76398  0.09352  0.07118  1.0000
  N   N13       1.0  0.78826  0.53359  0.00297  1.0000
  N   N14       1.0  0.21174  0.46640  0.99702  1.0000
  N   N15       1.0  0.82349  0.61127  0.86555  1.0000
  N   N16       1.0  0.17652  0.38873  0.13445  1.0000
  O   O1        1.0  0.92839  0.15350  0.78428  1.0000
  O   O2        1.0  0.07161  0.84649  0.21574  1.0000
  O   O3        1.0  0.20533  0.27305  0.59934  1.0000
  O   O4        1.0  0.79464  0.72695  0.40065  1.0000
  O   O5        1.0  0.91233  0.20843  0.50268  1.0000
  O   O6        1.0  0.08763  0.79157  0.49735  1.0000
