data_image0
_chemical_formula_structural       Cu2H32C20Br4N32O12
_chemical_formula_sum              "Cu2 H32 C20 Br4 N32 O12"
_cell_length_a       6.56831
_cell_length_b       9.96053
_cell_length_c       16.5302
_cell_angle_alpha    95.0096
_cell_angle_beta     90
_cell_angle_gamma    90

_space_group_name_H-M_alt    "P 1"
_space_group_IT_number       1

loop_
  _space_group_symop_operation_xyz
  'x, y, z'

loop_
  _atom_site_type_symbol
  _atom_site_label
  _atom_site_symmetry_multiplicity
  _atom_site_fract_x
  _atom_site_fract_y
  _atom_site_fract_z
  _atom_site_occupancy
  Cu  Cu1       1.0  0.00000  1.00000  1.00000  1.0000
  Cu  Cu2       1.0  0.50000  0.50000  1.00000  1.0000
  H   H1        1.0  0.72679  0.04847  0.23882  1.0000
  H   H2        1.0  0.22678  0.45153  0.76118  1.0000
  H   H3        1.0  0.27321  0.95153  0.76118  1.0000
  H   H4        1.0  0.77321  0.54847  0.23882  1.0000
  H   H5        1.0  0.57032  0.12019  0.31856  1.0000
  H   H6        1.0  0.07032  0.37981  0.68144  1.0000
  H   H7        1.0  0.42968  0.87981  0.68144  1.0000
  H   H8        1.0  0.92967  0.62019  0.31856  1.0000
  H   H9        1.0  0.36041  0.85613  0.09485  1.0000
  H   H10       1.0  0.86041  0.64386  0.90515  1.0000
  H   H11       1.0  0.63959  0.14386  0.90515  1.0000
  H   H12       1.0  0.13959  0.35614  0.09485  1.0000
  H   H13       1.0  0.52346  0.83283  0.23529  1.0000
  H   H14       1.0  0.02346  0.66717  0.76471  1.0000
  H   H15       1.0  0.47654  0.16717  0.76471  1.0000
  H   H16       1.0  0.97654  0.33283  0.23529  1.0000
  H   H17       1.0  0.37223  0.90300  0.31731  1.0000
  H   H18       1.0  0.87222  0.59700  0.68269  1.0000
  H   H19       1.0  0.62778  0.09699  0.68269  1.0000
  H   H20       1.0  0.12777  0.40300  0.31731  1.0000
  H   H21       1.0  0.34711  0.13811  0.46348  1.0000
  H   H22       1.0  0.84711  0.36188  0.53652  1.0000
  H   H23       1.0  0.65289  0.86189  0.53652  1.0000
  H   H24       1.0  0.15290  0.63812  0.46348  1.0000
  H   H25       1.0  0.67739  0.93212  0.40424  1.0000
  H   H26       1.0  0.17739  0.56788  0.59576  1.0000
  H   H27       1.0  0.32261  0.06788  0.59575  1.0000
  H   H28       1.0  0.82261  0.43212  0.40425  1.0000
  H   H29       1.0  0.84755  0.87155  0.32628  1.0000
  H   H30       1.0  0.34755  0.62845  0.67373  1.0000
  H   H31       1.0  0.15245  0.12845  0.67372  1.0000
  H   H32       1.0  0.65245  0.37155  0.32628  1.0000
  C   C1        1.0  0.63606  0.02534  0.29159  1.0000
  C   C2        1.0  0.13606  0.47466  0.70841  1.0000
  C   C3        1.0  0.36394  0.97466  0.70841  1.0000
  C   C4        1.0  0.86394  0.52534  0.29159  1.0000
  C   C5        1.0  0.29136  0.94173  0.12956  1.0000
  C   C6        1.0  0.79135  0.55826  0.87043  1.0000
  C   C7        1.0  0.70864  0.05826  0.87044  1.0000
  C   C8        1.0  0.20866  0.44175  0.12957  1.0000
  C   C9        1.0  0.46493  0.92751  0.26527  1.0000
  C   C10       1.0  0.96492  0.57249  0.73473  1.0000
  C   C11       1.0  0.53508  0.07249  0.73473  1.0000
  C   C12       1.0  0.03508  0.42751  0.26527  1.0000
  C   C13       1.0  0.19392  0.12945  0.43888  1.0000
  C   C14       1.0  0.69392  0.37054  0.56112  1.0000
  C   C15       1.0  0.80608  0.87055  0.56112  1.0000
  C   C16       1.0  0.30608  0.62946  0.43888  1.0000
  C   C17       1.0  0.76929  0.96166  0.35324  1.0000
  C   C18       1.0  0.26929  0.53835  0.64676  1.0000
  C   C19       1.0  0.23071  0.03835  0.64676  1.0000
  C   C20       1.0  0.73071  0.46165  0.35324  1.0000
  Br  Br1       1.0  0.69212  0.24663  0.09128  1.0000
  Br  Br2       1.0  0.19212  0.25336  0.90872  1.0000
  Br  Br3       1.0  0.30788  0.75337  0.90872  1.0000
  Br  Br4       1.0  0.80788  0.74663  0.09127  1.0000
  N   N1        1.0  0.15023  0.02260  0.10306  1.0000
  N   N2        1.0  0.65023  0.47739  0.89694  1.0000
  N   N3        1.0  0.84977  0.97739  0.89694  1.0000
  N   N4        1.0  0.34977  0.52261  0.10307  1.0000
  N   N5        1.0  0.20757  0.09151  0.22901  1.0000
  N   N6        1.0  0.70757  0.40849  0.77099  1.0000
  N   N7        1.0  0.79243  0.90849  0.77099  1.0000
  N   N8        1.0  0.29244  0.59151  0.22902  1.0000
  N   N9        1.0  0.92728  0.05379  0.38608  1.0000
  N   N10       1.0  0.42729  0.44621  0.61392  1.0000
  N   N11       1.0  0.07271  0.94621  0.61392  1.0000
  N   N12       1.0  0.57272  0.55379  0.38608  1.0000
  N   N13       1.0  0.32732  0.98345  0.20737  1.0000
  N   N14       1.0  0.82732  0.51655  0.79263  1.0000
  N   N15       1.0  0.67267  0.01655  0.79263  1.0000
  N   N16       1.0  0.17268  0.48345  0.20737  1.0000
  N   N17       1.0  0.11023  0.01320  0.40880  1.0000
  N   N18       1.0  0.61023  0.48679  0.59120  1.0000
  N   N19       1.0  0.88977  0.98679  0.59120  1.0000
  N   N20       1.0  0.38978  0.51321  0.40880  1.0000
  N   N21       1.0  0.10139  0.11430  0.16555  1.0000
  N   N22       1.0  0.60139  0.38569  0.83444  1.0000
  N   N23       1.0  0.89861  0.88570  0.83445  1.0000
  N   N24       1.0  0.39861  0.61431  0.16556  1.0000
  N   N25       1.0  0.89642  0.18519  0.40111  1.0000
  N   N26       1.0  0.39641  0.31482  0.59889  1.0000
  N   N27       1.0  0.10358  0.81482  0.59889  1.0000
  N   N28       1.0  0.60359  0.68518  0.40111  1.0000
  N   N29       1.0  0.06589  0.23536  0.43488  1.0000
  N   N30       1.0  0.56589  0.26464  0.56512  1.0000
  N   N31       1.0  0.93410  0.76465  0.56512  1.0000
  N   N32       1.0  0.43411  0.73536  0.43488  1.0000
  O   O1        1.0  0.68322  0.07901  0.06927  1.0000
  O   O2        1.0  0.18322  0.42098  0.93073  1.0000
  O   O3        1.0  0.31677  0.92099  0.93073  1.0000
  O   O4        1.0  0.81677  0.57901  0.06927  1.0000
  O   O5        1.0  0.54086  0.30114  0.01302  1.0000
  O   O6        1.0  0.04086  0.19885  0.98698  1.0000
  O   O7        1.0  0.45915  0.69886  0.98698  1.0000
  O   O8        1.0  0.95914  0.80114  0.01302  1.0000
  O   O9        1.0  0.56334  0.28194  0.17681  1.0000
  O   O10       1.0  0.06334  0.21806  0.82318  1.0000
  O   O11       1.0  0.43666  0.71806  0.82319  1.0000
  O   O12       1.0  0.93666  0.78194  0.17681  1.0000
