data_image0
_chemical_formula_structural       Cd2H28Pd2C20N16
_chemical_formula_sum              "Cd2 H28 Pd2 C20 N16"
_cell_length_a       8.66818
_cell_length_b       8.77333
_cell_length_c       11.5489
_cell_angle_alpha    74.6049
_cell_angle_beta     73.8112
_cell_angle_gamma    69.1776

_space_group_name_H-M_alt    "P 1"
_space_group_IT_number       1

loop_
  _space_group_symop_operation_xyz
  'x, y, z'

loop_
  _atom_site_type_symbol
  _atom_site_label
  _atom_site_symmetry_multiplicity
  _atom_site_fract_x
  _atom_site_fract_y
  _atom_site_fract_z
  _atom_site_occupancy
  Cd  Cd1       1.0  0.33975  0.64775  0.27037  1.0000
  Cd  Cd2       1.0  0.66025  0.35225  0.72963  1.0000
  H   H1        1.0  0.07518  0.92114  0.37482  1.0000
  H   H2        1.0  0.92482  0.07886  0.62518  1.0000
  H   H3        1.0  0.17528  0.00103  0.24140  1.0000
  H   H4        1.0  0.82473  0.99897  0.75860  1.0000
  H   H5        1.0  0.10548  0.61927  0.49960  1.0000
  H   H6        1.0  0.89452  0.38073  0.50040  1.0000
  H   H7        1.0  0.29300  0.48422  0.51971  1.0000
  H   H8        1.0  0.70700  0.51578  0.48029  1.0000
  H   H9        1.0  0.17389  0.43605  0.45547  1.0000
  H   H10       1.0  0.82611  0.56395  0.54453  1.0000
  H   H11       1.0  0.45433  0.70037  0.01486  1.0000
  H   H12       1.0  0.54567  0.29963  0.98514  1.0000
  H   H13       1.0  0.36773  0.88894  0.04776  1.0000
  H   H14       1.0  0.63227  0.11106  0.95224  1.0000
  H   H15       1.0  0.56426  0.78350  0.06111  1.0000
  H   H16       1.0  0.43574  0.21650  0.93889  1.0000
  H   H17       1.0  0.42786  0.28304  0.20473  1.0000
  H   H18       1.0  0.57214  0.71696  0.79527  1.0000
  H   H19       1.0  0.65985  0.01520  0.18711  1.0000
  H   H20       1.0  0.34015  0.98480  0.81289  1.0000
  H   H21       1.0  0.97161  0.22767  0.28935  1.0000
  H   H22       1.0  0.02839  0.77233  0.71065  1.0000
  H   H23       1.0  0.73344  0.48922  0.29011  1.0000
  H   H24       1.0  0.26656  0.51078  0.70989  1.0000
  H   H25       1.0  0.92256  0.83291  0.27139  1.0000
  H   H26       1.0  0.07744  0.16709  0.72861  1.0000
  H   H27       1.0  0.02549  0.92558  0.13129  1.0000
  H   H28       1.0  0.97451  0.07443  0.86871  1.0000
  Pd  Pd1       1.0  0.00000  0.50000  1.00000  1.0000
  Pd  Pd2       1.0  0.50000  1.00000  0.50000  1.0000
  C   C1        1.0  0.13587  0.26328  0.00900  1.0000
  C   C2        1.0  0.86413  0.73672  0.99101  1.0000
  C   C3        1.0  0.12482  0.52924  0.10755  1.0000
  C   C4        1.0  0.87518  0.47076  0.89245  1.0000
  C   C5        1.0  0.50146  0.82489  0.42149  1.0000
  C   C6        1.0  0.49854  0.17510  0.57851  1.0000
  C   C7        1.0  0.26540  0.11998  0.47559  1.0000
  C   C8        1.0  0.73459  0.88003  0.52440  1.0000
  C   C9        1.0  0.55236  0.26600  0.21965  1.0000
  C   C10       1.0  0.44764  0.73400  0.78035  1.0000
  C   C11       1.0  0.68104  0.11693  0.21156  1.0000
  C   C12       1.0  0.31896  0.88307  0.78844  1.0000
  C   C13       1.0  0.83694  0.09799  0.23624  1.0000
  C   C14       1.0  0.16306  0.90201  0.76376  1.0000
  C   C15       1.0  0.85536  0.23361  0.26671  1.0000
  C   C16       1.0  0.14464  0.76639  0.73329  1.0000
  C   C17       1.0  0.72139  0.38000  0.26961  1.0000
  C   C18       1.0  0.27861  0.62001  0.73039  1.0000
  C   C19       1.0  0.97616  0.93575  0.22859  1.0000
  C   C20       1.0  0.02384  0.06425  0.77141  1.0000
  N   N1        1.0  0.21791  0.12341  0.01484  1.0000
  N   N2        1.0  0.78209  0.87659  0.98516  1.0000
  N   N3        1.0  0.19722  0.54772  0.17197  1.0000
  N   N4        1.0  0.80278  0.45228  0.82803  1.0000
  N   N5        1.0  0.50120  0.72350  0.37273  1.0000
  N   N6        1.0  0.49880  0.27650  0.62727  1.0000
  N   N7        1.0  0.12645  0.19120  0.46245  1.0000
  N   N8        1.0  0.87357  0.80879  0.53755  1.0000
  N   N9        1.0  0.57137  0.39683  0.24782  1.0000
  N   N10       1.0  0.42863  0.60317  0.75218  1.0000
  N   N11       1.0  0.11811  0.91115  0.28424  1.0000
  N   N12       1.0  0.88189  0.08885  0.71576  1.0000
  N   N13       1.0  0.20983  0.53223  0.46199  1.0000
  N   N14       1.0  0.79017  0.46777  0.53800  1.0000
  N   N15       1.0  0.44677  0.77218  0.07397  1.0000
  N   N16       1.0  0.55324  0.22782  0.92603  1.0000
