data_image0
_chemical_formula_structural       Cu2H16C8Br4N16O12
_chemical_formula_sum              "Cu2 H16 C8 Br4 N16 O12"
_cell_length_a       6.88149
_cell_length_b       9.35507
_cell_length_c       10.5214
_cell_angle_alpha    103.213
_cell_angle_beta     89.9986
_cell_angle_gamma    89.9989

_space_group_name_H-M_alt    "P 1"
_space_group_IT_number       1

loop_
  _space_group_symop_operation_xyz
  'x, y, z'

loop_
  _atom_site_type_symbol
  _atom_site_label
  _atom_site_symmetry_multiplicity
  _atom_site_fract_x
  _atom_site_fract_y
  _atom_site_fract_z
  _atom_site_occupancy
  Cu  Cu1       1.0  1.00000  1.00000  1.00000  1.0000
  Cu  Cu2       1.0  0.50000  0.50000  0.00000  1.0000
  H   H1        1.0  0.62149  0.11838  0.38567  1.0000
  H   H2        1.0  0.12149  0.38160  0.61433  1.0000
  H   H3        1.0  0.37851  0.88162  0.61433  1.0000
  H   H4        1.0  0.87851  0.61839  0.38567  1.0000
  H   H5        1.0  0.44882  0.17409  0.51528  1.0000
  H   H6        1.0  0.94884  0.32591  0.48473  1.0000
  H   H7        1.0  0.55117  0.82591  0.48472  1.0000
  H   H8        1.0  0.05116  0.67409  0.51528  1.0000
  H   H9        1.0  0.50437  0.29488  0.40979  1.0000
  H   H10       1.0  0.00438  0.20512  0.59021  1.0000
  H   H11       1.0  0.49563  0.70512  0.59021  1.0000
  H   H12       1.0  0.99562  0.79488  0.40980  1.0000
  H   H13       1.0  0.37658  0.17721  0.14640  1.0000
  H   H14       1.0  0.87658  0.32279  0.85361  1.0000
  H   H15       1.0  0.62342  0.82279  0.85359  1.0000
  H   H16       1.0  0.12342  0.67721  0.14639  1.0000
  C   C1        1.0  0.48739  0.18027  0.41572  1.0000
  C   C2        1.0  0.98739  0.31972  0.58428  1.0000
  C   C3        1.0  0.51261  0.81973  0.58427  1.0000
  C   C4        1.0  0.01261  0.68027  0.41573  1.0000
  C   C5        1.0  0.29593  0.11637  0.20528  1.0000
  C   C6        1.0  0.79593  0.38363  0.79472  1.0000
  C   C7        1.0  0.70407  0.88363  0.79472  1.0000
  C   C8        1.0  0.20407  0.61637  0.20528  1.0000
  Br  Br1       1.0  0.81381  0.31034  0.14746  1.0000
  Br  Br2       1.0  0.31379  0.18966  0.85253  1.0000
  Br  Br3       1.0  0.18619  0.68966  0.85254  1.0000
  Br  Br4       1.0  0.68622  0.81034  0.14747  1.0000
  N   N1        1.0  0.08569  0.97523  0.26910  1.0000
  N   N2        1.0  0.58567  0.52478  0.73090  1.0000
  N   N3        1.0  0.91431  0.02477  0.73089  1.0000
  N   N4        1.0  0.41433  0.47523  0.26910  1.0000
  N   N5        1.0  0.14329  0.03066  0.16680  1.0000
  N   N6        1.0  0.64328  0.46934  0.83321  1.0000
  N   N7        1.0  0.85671  0.96934  0.83320  1.0000
  N   N8        1.0  0.35672  0.53066  0.16679  1.0000
  N   N9        1.0  0.19824  0.02467  0.36826  1.0000
  N   N10       1.0  0.69824  0.47533  0.63174  1.0000
  N   N11       1.0  0.80176  0.97533  0.63174  1.0000
  N   N12       1.0  0.30177  0.52467  0.36827  1.0000
  N   N13       1.0  0.33038  0.11363  0.32993  1.0000
  N   N14       1.0  0.83037  0.38637  0.67007  1.0000
  N   N15       1.0  0.66962  0.88636  0.67007  1.0000
  N   N16       1.0  0.16963  0.61363  0.32993  1.0000
  O   O1        1.0  0.96510  0.21842  0.02133  1.0000
  O   O2        1.0  0.46513  0.28159  0.97869  1.0000
  O   O3        1.0  0.03489  0.78158  0.97867  1.0000
  O   O4        1.0  0.53487  0.71841  0.02131  1.0000
  O   O5        1.0  0.80319  0.47638  0.11237  1.0000
  O   O6        1.0  0.30320  0.02362  0.88762  1.0000
  O   O7        1.0  0.19682  0.52362  0.88763  1.0000
  O   O8        1.0  0.69680  0.97638  0.11238  1.0000
  O   O9        1.0  0.94260  0.32897  0.28328  1.0000
  O   O10       1.0  0.44260  0.17102  0.71670  1.0000
  O   O11       1.0  0.05740  0.67103  0.71672  1.0000
  O   O12       1.0  0.55741  0.82898  0.28330  1.0000
