data_image0
_chemical_formula_structural       H24Pb2C32O16
_chemical_formula_sum              "H24 Pb2 C32 O16"
_cell_length_a       8.77231
_cell_length_b       8.54547
_cell_length_c       12.167
_cell_angle_alpha    70.4298
_cell_angle_beta     85.9544
_cell_angle_gamma    73.3162

_space_group_name_H-M_alt    "P 1"
_space_group_IT_number       1

loop_
  _space_group_symop_operation_xyz
  'x, y, z'

loop_
  _atom_site_type_symbol
  _atom_site_label
  _atom_site_symmetry_multiplicity
  _atom_site_fract_x
  _atom_site_fract_y
  _atom_site_fract_z
  _atom_site_occupancy
  H   H1        1.0  0.85709  0.47488  0.87953  1.0000
  H   H2        1.0  0.14292  0.52511  0.12048  1.0000
  H   H3        1.0  0.42478  0.97570  0.70402  1.0000
  H   H4        1.0  0.57523  0.02430  0.29598  1.0000
  H   H5        1.0  0.27830  0.14461  0.68339  1.0000
  H   H6        1.0  0.72170  0.85538  0.31660  1.0000
  H   H7        1.0  0.05435  0.27611  0.46172  1.0000
  H   H8        1.0  0.94565  0.72391  0.53827  1.0000
  H   H9        1.0  0.67178  0.38419  0.22077  1.0000
  H   H10       1.0  0.32822  0.61582  0.77922  1.0000
  H   H11       1.0  0.08012  0.94195  0.25943  1.0000
  H   H12       1.0  0.91986  0.05806  0.74057  1.0000
  H   H13       1.0  0.68722  0.14315  0.93525  1.0000
  H   H14       1.0  0.31279  0.85684  0.06476  1.0000
  H   H15       1.0  0.83997  0.50206  0.04034  1.0000
  H   H16       1.0  0.16003  0.49793  0.95968  1.0000
  H   H17       1.0  0.67921  0.18130  0.11629  1.0000
  H   H18       1.0  0.32078  0.81870  0.88371  1.0000
  H   H19       1.0  0.85730  0.20397  0.03930  1.0000
  H   H20       1.0  0.14269  0.79602  0.96070  1.0000
  H   H21       1.0  0.91067  0.63493  0.17474  1.0000
  H   H22       1.0  0.08933  0.36507  0.82527  1.0000
  H   H23       1.0  0.60742  0.01358  0.80583  1.0000
  H   H24       1.0  0.39259  0.98642  0.19417  1.0000
  Pb  Pb1       1.0  0.45092  0.28060  0.48663  1.0000
  Pb  Pb2       1.0  0.54908  0.71940  0.51338  1.0000
  C   C1        1.0  0.00370  0.24347  0.39583  1.0000
  C   C2        1.0  0.99630  0.75654  0.60416  1.0000
  C   C3        1.0  0.08221  0.09597  0.36655  1.0000
  C   C4        1.0  0.91778  0.90404  0.63345  1.0000
  C   C5        1.0  0.87324  0.16514  0.22317  1.0000
  C   C6        1.0  0.12676  0.83487  0.77682  1.0000
  C   C7        1.0  0.76332  0.49319  0.38417  1.0000
  C   C8        1.0  0.23668  0.50682  0.61583  1.0000
  C   C9        1.0  0.78931  0.30527  0.25867  1.0000
  C   C10       1.0  0.21069  0.69474  0.74132  1.0000
  C   C11       1.0  0.85467  0.34525  0.34415  1.0000
  C   C12       1.0  0.14533  0.65477  0.65584  1.0000
  C   C13       1.0  0.01682  0.05745  0.28043  1.0000
  C   C14       1.0  0.98318  0.94256  0.71957  1.0000
  C   C15       1.0  0.81124  0.89575  0.06126  1.0000
  C   C16       1.0  0.18875  0.10423  0.93874  1.0000
  C   C17       1.0  0.23754  0.97783  0.42541  1.0000
  C   C18       1.0  0.76246  0.02218  0.57459  1.0000
  C   C19       1.0  0.72155  0.74863  0.91057  1.0000
  C   C20       1.0  0.27846  0.25135  0.08944  1.0000
  C   C21       1.0  0.72150  0.00287  0.95887  1.0000
  C   C22       1.0  0.27850  0.99712  0.04113  1.0000
  C   C23       1.0  0.67344  0.67506  0.82947  1.0000
  C   C24       1.0  0.32658  0.32492  0.17054  1.0000
  C   C25       1.0  0.81009  0.64275  0.01436  1.0000
  C   C26       1.0  0.18991  0.35724  0.98565  1.0000
  C   C27       1.0  0.81023  0.13521  0.12241  1.0000
  C   C28       1.0  0.18976  0.86479  0.87759  1.0000
  C   C29       1.0  0.85326  0.71452  0.08973  1.0000
  C   C30       1.0  0.14673  0.28547  0.91028  1.0000
  C   C31       1.0  0.67618  0.92893  0.88529  1.0000
  C   C32       1.0  0.32383  0.07106  0.11471  1.0000
  O   O1        1.0  0.61136  0.51496  0.39567  1.0000
  O   O2        1.0  0.38864  0.48505  0.60432  1.0000
  O   O3        1.0  0.75810  0.51266  0.83340  1.0000
  O   O4        1.0  0.24190  0.48733  0.16660  1.0000
  O   O5        1.0  0.29542  0.83778  0.40149  1.0000
  O   O6        1.0  0.70457  0.16222  0.59852  1.0000
  O   O7        1.0  0.30642  0.02020  0.49530  1.0000
  O   O8        1.0  0.69359  0.97981  0.50469  1.0000
  O   O9        1.0  0.55966  0.74900  0.75922  1.0000
  O   O10       1.0  0.44033  0.25100  0.24076  1.0000
  O   O11       1.0  0.39430  0.10027  0.69246  1.0000
  O   O12       1.0  0.60570  0.89973  0.30753  1.0000
  O   O13       1.0  0.86213  0.95293  0.13921  1.0000
  O   O14       1.0  0.13786  0.04706  0.86080  1.0000
  O   O15       1.0  0.83618  0.58778  0.40517  1.0000
  O   O16       1.0  0.16383  0.41223  0.59482  1.0000
