data_image0
_chemical_formula_structural       Tb2H20C20N4O18
_chemical_formula_sum              "Tb2 H20 C20 N4 O18"
_cell_length_a       6.49821
_cell_length_b       9.63214
_cell_length_c       10.8867
_cell_angle_alpha    99.545
_cell_angle_beta     106.708
_cell_angle_gamma    105.582

_space_group_name_H-M_alt    "P 1"
_space_group_IT_number       1

loop_
  _space_group_symop_operation_xyz
  'x, y, z'

loop_
  _atom_site_type_symbol
  _atom_site_label
  _atom_site_symmetry_multiplicity
  _atom_site_fract_x
  _atom_site_fract_y
  _atom_site_fract_z
  _atom_site_occupancy
  Tb  Tb1       1.0  0.33184  0.39091  0.68733  1.0000
  Tb  Tb2       1.0  0.66816  0.60909  0.31267  1.0000
  H   H1        1.0  0.92163  0.15020  0.56610  1.0000
  H   H2        1.0  0.07836  0.84980  0.43390  1.0000
  H   H3        1.0  0.93120  0.16426  0.72002  1.0000
  H   H4        1.0  0.06880  0.83573  0.27998  1.0000
  H   H5        1.0  0.57465  0.17112  0.69192  1.0000
  H   H6        1.0  0.42536  0.82888  0.30808  1.0000
  H   H7        1.0  0.31885  0.07233  0.61948  1.0000
  H   H8        1.0  0.68116  0.92768  0.38052  1.0000
  H   H9        1.0  0.32325  0.61985  0.52646  1.0000
  H   H10       1.0  0.67676  0.38016  0.47354  1.0000
  H   H11       1.0  0.58681  0.64036  0.58643  1.0000
  H   H12       1.0  0.41320  0.35965  0.41358  1.0000
  H   H13       1.0  0.59839  0.79583  0.89311  1.0000
  H   H14       1.0  0.40161  0.20417  0.10689  1.0000
  H   H15       1.0  0.60336  0.88343  0.68743  1.0000
  H   H16       1.0  0.39664  0.11658  0.31257  1.0000
  H   H17       1.0  0.99248  0.39437  0.00109  1.0000
  H   H18       1.0  0.00752  0.60563  0.99892  1.0000
  H   H19       1.0  0.76064  0.94812  0.17765  1.0000
  H   H20       1.0  0.23937  0.05187  0.82235  1.0000
  C   C1        1.0  0.67445  0.95756  0.78688  1.0000
  C   C2        1.0  0.32555  0.04244  0.21311  1.0000
  C   C3        1.0  0.83238  0.15472  0.95334  1.0000
  C   C4        1.0  0.16763  0.84528  0.04666  1.0000
  C   C5        1.0  0.94246  0.29802  0.03942  1.0000
  C   C6        1.0  0.05754  0.70198  0.96058  1.0000
  C   C7        1.0  0.98262  0.31465  0.17480  1.0000
  C   C8        1.0  0.01740  0.68535  0.82521  1.0000
  C   C9        1.0  0.91641  0.18869  0.22439  1.0000
  C   C10       1.0  0.08359  0.81130  0.77561  1.0000
  C   C11       1.0  0.80748  0.04463  0.13915  1.0000
  C   C12       1.0  0.19253  0.95537  0.86085  1.0000
  C   C13       1.0  0.76807  0.02975  0.00435  1.0000
  C   C14       1.0  0.23194  0.97025  0.99565  1.0000
  C   C15       1.0  0.08540  0.46971  0.26670  1.0000
  C   C16       1.0  0.91459  0.53029  0.73330  1.0000
  C   C17       1.0  0.96906  0.20550  0.37007  1.0000
  C   C18       1.0  0.03094  0.79450  0.62993  1.0000
  C   C19       1.0  0.47400  0.41766  0.00216  1.0000
  C   C20       1.0  0.52599  0.58234  0.99784  1.0000
  N   N1        1.0  0.77002  0.10578  0.81623  1.0000
  N   N2        1.0  0.22998  0.89422  0.18377  1.0000
  N   N3        1.0  0.66919  0.90698  0.89487  1.0000
  N   N4        1.0  0.33082  0.09302  0.10513  1.0000
  O   O1        1.0  0.16100  0.30253  0.45057  1.0000
  O   O2        1.0  0.83900  0.69747  0.54943  1.0000
  O   O3        1.0  0.82481  0.12378  0.40799  1.0000
  O   O4        1.0  0.17518  0.87622  0.59201  1.0000
  O   O5        1.0  0.96961  0.51668  0.32954  1.0000
  O   O6        1.0  0.03038  0.48331  0.67046  1.0000
  O   O7        1.0  0.28311  0.54855  0.27585  1.0000
  O   O8        1.0  0.71690  0.45145  0.72416  1.0000
  O   O9        1.0  0.39559  0.32028  0.89216  1.0000
  O   O10       1.0  0.60439  0.67972  0.10784  1.0000
  O   O11       1.0  0.51447  0.39447  0.11675  1.0000
  O   O12       1.0  0.48552  0.60553  0.88325  1.0000
  O   O13       1.0  0.02515  0.17954  0.66181  1.0000
  O   O14       1.0  0.97485  0.82046  0.33819  1.0000
  O   O15       1.0  0.42948  0.17026  0.62890  1.0000
  O   O16       1.0  0.57053  0.82974  0.37110  1.0000
  O   O17       1.0  0.43834  0.60797  0.60084  1.0000
  O   O18       1.0  0.56167  0.39203  0.39917  1.0000
