data_image0
_chemical_formula_structural       Yb2H16C20N4O16
_chemical_formula_sum              "Yb2 H16 C20 N4 O16"
_cell_length_a       6.69277
_cell_length_b       7.41866
_cell_length_c       11.8619
_cell_angle_alpha    87.0868
_cell_angle_beta     77.3091
_cell_angle_gamma    80.7674

_space_group_name_H-M_alt    "P 1"
_space_group_IT_number       1

loop_
  _space_group_symop_operation_xyz
  'x, y, z'

loop_
  _atom_site_type_symbol
  _atom_site_label
  _atom_site_symmetry_multiplicity
  _atom_site_fract_x
  _atom_site_fract_y
  _atom_site_fract_z
  _atom_site_occupancy
  Yb  Yb1       1.0  0.82360  0.16683  0.92234  1.0000
  Yb  Yb2       1.0  0.17640  0.83318  0.07766  1.0000
  H   H1        1.0  0.76182  0.80801  0.03663  1.0000
  H   H2        1.0  0.23817  0.19199  0.96337  1.0000
  H   H3        1.0  0.90480  0.77867  0.91237  1.0000
  H   H4        1.0  0.09520  0.22133  0.08763  1.0000
  H   H5        1.0  0.00901  0.35490  0.70732  1.0000
  H   H6        1.0  0.99099  0.64510  0.29268  1.0000
  H   H7        1.0  0.84252  0.49994  0.78065  1.0000
  H   H8        1.0  0.15748  0.50006  0.21935  1.0000
  H   H9        1.0  0.28876  0.71603  0.35356  1.0000
  H   H10       1.0  0.71123  0.28395  0.64644  1.0000
  H   H11       1.0  0.62676  0.58524  0.23326  1.0000
  H   H12       1.0  0.37324  0.41475  0.76675  1.0000
  H   H13       1.0  0.92199  0.68760  0.57177  1.0000
  H   H14       1.0  0.07801  0.31240  0.42823  1.0000
  H   H15       1.0  0.15611  0.87623  0.59593  1.0000
  H   H16       1.0  0.84389  0.12377  0.40407  1.0000
  C   C1        1.0  0.60905  0.63195  0.32045  1.0000
  C   C2        1.0  0.39095  0.36804  0.67955  1.0000
  C   C3        1.0  0.66964  0.70482  0.48185  1.0000
  C   C4        1.0  0.33036  0.29518  0.51815  1.0000
  C   C5        1.0  0.75720  0.73053  0.57511  1.0000
  C   C6        1.0  0.24281  0.26947  0.42489  1.0000
  C   C7        1.0  0.62725  0.80998  0.67406  1.0000
  C   C8        1.0  0.37276  0.19003  0.32594  1.0000
  C   C9        1.0  0.41103  0.86187  0.68113  1.0000
  C   C10       1.0  0.58898  0.13813  0.31887  1.0000
  C   C11       1.0  0.32240  0.83656  0.58793  1.0000
  C   C12       1.0  0.67760  0.16344  0.41207  1.0000
  C   C13       1.0  0.45297  0.75559  0.48925  1.0000
  C   C14       1.0  0.54703  0.24440  0.51075  1.0000
  C   C15       1.0  0.72727  0.84813  0.76947  1.0000
  C   C16       1.0  0.27274  0.15188  0.23053  1.0000
  C   C17       1.0  0.27102  0.92449  0.79374  1.0000
  C   C18       1.0  0.72899  0.07551  0.20627  1.0000
  C   C19       1.0  0.41469  0.45516  0.98318  1.0000
  C   C20       1.0  0.58531  0.54485  0.01683  1.0000
  N   N1        1.0  0.42158  0.70460  0.38457  1.0000
  N   N2        1.0  0.57842  0.29539  0.61543  1.0000
  N   N3        1.0  0.76229  0.62972  0.37514  1.0000
  N   N4        1.0  0.23771  0.37028  0.62486  1.0000
  O   O1        1.0  0.68909  0.00898  0.80896  1.0000
  O   O2        1.0  0.31091  0.99102  0.19104  1.0000
  O   O3        1.0  0.85392  0.71859  0.80187  1.0000
  O   O4        1.0  0.14609  0.28141  0.19813  1.0000
  O   O5        1.0  0.10820  0.03850  0.79108  1.0000
  O   O6        1.0  0.89180  0.96151  0.20892  1.0000
  O   O7        1.0  0.32156  0.85318  0.88540  1.0000
  O   O8        1.0  0.67845  0.14683  0.11460  1.0000
  O   O9        1.0  0.23348  0.54162  0.00231  1.0000
  O   O10       1.0  0.76652  0.45839  0.99769  1.0000
  O   O11       1.0  0.47202  0.29788  0.93738  1.0000
  O   O12       1.0  0.52798  0.70211  0.06263  1.0000
  O   O13       1.0  0.89198  0.84497  0.98918  1.0000
  O   O14       1.0  0.10801  0.15504  0.01082  1.0000
  O   O15       1.0  0.86808  0.36560  0.76408  1.0000
  O   O16       1.0  0.13191  0.63440  0.23592  1.0000
