data_image0
_chemical_formula_structural       Ho2H20C20N4O18
_chemical_formula_sum              "Ho2 H20 C20 N4 O18"
_cell_length_a       6.50403
_cell_length_b       9.80429
_cell_length_c       10.7819
_cell_angle_alpha    100.201
_cell_angle_beta     102.921
_cell_angle_gamma    107.456

_space_group_name_H-M_alt    "P 1"
_space_group_IT_number       1

loop_
  _space_group_symop_operation_xyz
  'x, y, z'

loop_
  _atom_site_type_symbol
  _atom_site_label
  _atom_site_symmetry_multiplicity
  _atom_site_fract_x
  _atom_site_fract_y
  _atom_site_fract_z
  _atom_site_occupancy
  Ho  Ho1       1.0  0.32811  0.40875  0.19986  1.0000
  Ho  Ho2       1.0  0.67188  0.59125  0.80013  1.0000
  H   H1        1.0  0.28926  0.60314  0.02560  1.0000
  H   H2        1.0  0.71074  0.39686  0.97439  1.0000
  H   H3        1.0  0.55502  0.64067  0.07852  1.0000
  H   H4        1.0  0.44499  0.35933  0.92148  1.0000
  H   H5        1.0  0.94708  0.16343  0.24911  1.0000
  H   H6        1.0  0.05292  0.83657  0.75089  1.0000
  H   H7        1.0  0.94844  0.15390  0.09484  1.0000
  H   H8        1.0  0.05156  0.84610  0.90516  1.0000
  H   H9        1.0  0.31820  0.06677  0.11034  1.0000
  H   H10       1.0  0.68181  0.93323  0.88965  1.0000
  H   H11       1.0  0.50593  0.17530  0.06549  1.0000
  H   H12       1.0  0.49407  0.82470  0.93451  1.0000
  H   H13       1.0  0.34699  0.83893  0.71045  1.0000
  H   H14       1.0  0.65302  0.16107  0.28955  1.0000
  H   H15       1.0  0.45845  0.11883  0.77985  1.0000
  H   H16       1.0  0.54156  0.88117  0.22014  1.0000
  H   H17       1.0  0.01549  0.60500  0.47258  1.0000
  H   H18       1.0  0.98451  0.39500  0.52743  1.0000
  H   H19       1.0  0.20382  0.05637  0.29940  1.0000
  H   H20       1.0  0.79617  0.94362  0.70060  1.0000
  C   C1        1.0  0.36433  0.04929  0.68074  1.0000
  C   C2        1.0  0.63568  0.95071  0.31926  1.0000
  C   C3        1.0  0.17243  0.84396  0.51889  1.0000
  C   C4        1.0  0.82757  0.15604  0.48111  1.0000
  C   C5        1.0  0.05370  0.70297  0.43517  1.0000
  C   C6        1.0  0.94630  0.29703  0.56483  1.0000
  C   C7        1.0  0.99732  0.68954  0.29970  1.0000
  C   C8        1.0  0.00268  0.31046  0.70030  1.0000
  C   C9        1.0  0.05531  0.81644  0.25031  1.0000
  C   C10       1.0  0.94469  0.18356  0.74969  1.0000
  C   C11       1.0  0.16190  0.95863  0.33648  1.0000
  C   C12       1.0  0.83808  0.04136  0.66352  1.0000
  C   C13       1.0  0.21685  0.97232  0.47137  1.0000
  C   C14       1.0  0.78314  0.02768  0.52863  1.0000
  C   C15       1.0  0.88984  0.53589  0.20854  1.0000
  C   C16       1.0  0.11017  0.46411  0.79147  1.0000
  C   C17       1.0  0.00099  0.80055  0.10598  1.0000
  C   C18       1.0  0.99900  0.19944  0.89401  1.0000
  C   C19       1.0  0.46713  0.56903  0.49897  1.0000
  C   C20       1.0  0.53287  0.43098  0.50104  1.0000
  N   N1        1.0  0.26813  0.89495  0.65522  1.0000
  N   N2        1.0  0.73188  0.10505  0.34478  1.0000
  N   N3        1.0  0.33118  0.09890  0.57600  1.0000
  N   N4        1.0  0.66882  0.90111  0.42400  1.0000
  O   O1        1.0  0.68424  0.46535  0.19713  1.0000
  O   O2        1.0  0.31577  0.53465  0.80287  1.0000
  O   O3        1.0  0.00211  0.47862  0.14741  1.0000
  O   O4        1.0  0.99790  0.52138  0.85259  1.0000
  O   O5        1.0  0.81770  0.69714  0.03033  1.0000
  O   O6        1.0  0.18229  0.30285  0.96966  1.0000
  O   O7        1.0  0.13594  0.88820  0.06064  1.0000
  O   O8        1.0  0.86404  0.11179  0.93934  1.0000
  O   O9        1.0  0.37214  0.57786  0.38614  1.0000
  O   O10       1.0  0.62786  0.42214  0.61388  1.0000
  O   O11       1.0  0.51100  0.65839  0.60962  1.0000
  O   O12       1.0  0.48899  0.34161  0.39039  1.0000
  O   O13       1.0  0.41313  0.61676  0.10349  1.0000
  O   O14       1.0  0.58687  0.38324  0.89650  1.0000
  O   O15       1.0  0.03661  0.20054  0.19184  1.0000
  O   O16       1.0  0.96338  0.79947  0.80816  1.0000
  O   O17       1.0  0.43562  0.16815  0.13598  1.0000
  O   O18       1.0  0.56438  0.83184  0.86402  1.0000
