data_image0
_chemical_formula_structural       CdH8C8S2N4O2
_chemical_formula_sum              "Cd1 H8 C8 S2 N4 O2"
_cell_length_a       5.77557
_cell_length_b       7.15173
_cell_length_c       7.48353
_cell_angle_alpha    72.5781
_cell_angle_beta     86.9072
_cell_angle_gamma    87.0749

_space_group_name_H-M_alt    "P 1"
_space_group_IT_number       1

loop_
  _space_group_symop_operation_xyz
  'x, y, z'

loop_
  _atom_site_type_symbol
  _atom_site_label
  _atom_site_symmetry_multiplicity
  _atom_site_fract_x
  _atom_site_fract_y
  _atom_site_fract_z
  _atom_site_occupancy
  Cd  Cd1       1.0  0.49999  0.50001  1.00000  1.0000
  H   H1        1.0  0.11514  0.80257  0.26613  1.0000
  H   H2        1.0  0.88487  0.19742  0.73387  1.0000
  H   H3        1.0  0.33116  0.12725  0.41775  1.0000
  H   H4        1.0  0.66886  0.87275  0.58225  1.0000
  H   H5        1.0  0.25736  0.04089  0.66472  1.0000
  H   H6        1.0  0.74264  0.95910  0.33528  1.0000
  H   H7        1.0  0.48590  0.20812  0.57683  1.0000
  H   H8        1.0  0.51411  0.79186  0.42319  1.0000
  C   C1        1.0  0.99290  0.74815  0.91177  1.0000
  C   C2        1.0  0.00709  0.25187  0.08823  1.0000
  C   C3        1.0  0.05850  0.66984  0.37146  1.0000
  C   C4        1.0  0.94151  0.33015  0.62855  1.0000
  C   C5        1.0  0.14905  0.33603  0.52726  1.0000
  C   C6        1.0  0.85096  0.66397  0.47275  1.0000
  C   C7        1.0  0.31422  0.16656  0.54933  1.0000
  C   C8        1.0  0.68579  0.83343  0.45068  1.0000
  S   S1        1.0  0.73552  0.84078  0.94362  1.0000
  S   S2        1.0  0.26445  0.15924  0.05637  1.0000
  N   N1        1.0  0.18021  0.68382  0.88529  1.0000
  N   N2        1.0  0.81976  0.31621  0.11472  1.0000
  N   N3        1.0  0.20619  0.51034  0.39694  1.0000
  N   N4        1.0  0.79383  0.48965  0.60307  1.0000
  O   O1        1.0  0.40554  0.52402  0.30387  1.0000
  O   O2        1.0  0.59447  0.47596  0.69614  1.0000
