data_image0
_chemical_formula_structural       Cd2H12C12S4N6O2
_chemical_formula_sum              "Cd2 H12 C12 S4 N6 O2"
_cell_length_a       8.22848
_cell_length_b       8.40866
_cell_length_c       8.40859
_cell_angle_alpha    105.569
_cell_angle_beta     108.531
_cell_angle_gamma    108.532

_space_group_name_H-M_alt    "P 1"
_space_group_IT_number       1

loop_
  _space_group_symop_operation_xyz
  'x, y, z'

loop_
  _atom_site_type_symbol
  _atom_site_label
  _atom_site_symmetry_multiplicity
  _atom_site_fract_x
  _atom_site_fract_y
  _atom_site_fract_z
  _atom_site_occupancy
  Cd  Cd1       1.0  0.00000  0.02184  0.97816  1.0000
  Cd  Cd2       1.0  0.99999  0.72163  0.27836  1.0000
  H   H1        1.0  0.02424  0.59962  0.85482  1.0000
  H   H2        1.0  0.97576  0.14518  0.40038  1.0000
  H   H3        1.0  0.13343  0.44687  0.83828  1.0000
  H   H4        1.0  0.86657  0.16172  0.55313  1.0000
  H   H5        1.0  0.13413  0.57781  0.70313  1.0000
  H   H6        1.0  0.86587  0.29687  0.42219  1.0000
  H   H7        1.0  0.39036  0.20012  0.33674  1.0000
  H   H8        1.0  0.60964  0.66327  0.79988  1.0000
  H   H9        1.0  0.62362  0.25820  0.50070  1.0000
  H   H10       1.0  0.37639  0.49930  0.74180  1.0000
  H   H11       1.0  0.41762  0.08063  0.47827  1.0000
  H   H12       1.0  0.58238  0.52173  0.91937  1.0000
  C   C1        1.0  0.14311  0.58004  0.83711  1.0000
  C   C2        1.0  0.85689  0.16290  0.41996  1.0000
  C   C3        1.0  0.32873  0.73046  0.98654  1.0000
  C   C4        1.0  0.67128  0.01347  0.26954  1.0000
  C   C5        1.0  0.49788  0.00685  0.26289  1.0000
  C   C6        1.0  0.50212  0.73710  0.99316  1.0000
  C   C7        1.0  0.48348  0.14515  0.40291  1.0000
  C   C8        1.0  0.51652  0.59709  0.85485  1.0000
  C   C9        1.0  0.21038  0.06276  0.70167  1.0000
  C   C10       1.0  0.78962  0.29833  0.93725  1.0000
  C   C11       1.0  0.21067  0.44505  0.31962  1.0000
  C   C12       1.0  0.78932  0.68039  0.55496  1.0000
  S   S1        1.0  0.29848  0.66438  0.44481  1.0000
  S   S2        1.0  0.70151  0.55519  0.33560  1.0000
  S   S3        1.0  0.29851  0.18733  0.92131  1.0000
  S   S4        1.0  0.70149  0.07869  0.81267  1.0000
  N   N1        1.0  0.14896  0.28485  0.23568  1.0000
  N   N2        1.0  0.85104  0.76431  0.71513  1.0000
  N   N3        1.0  0.14861  0.97900  0.54146  1.0000
  N   N4        1.0  0.85138  0.45852  0.02099  1.0000
  N   N5        1.0  0.33018  0.86591  0.12216  1.0000
  N   N6        1.0  0.66982  0.87784  0.13409  1.0000
  O   O1        1.0  0.16767  0.86280  0.11974  1.0000
  O   O2        1.0  0.83233  0.88027  0.13720  1.0000
