data_image0
_chemical_formula_structural       Cu2H8C12N2O8
_chemical_formula_sum              "Cu2 H8 C12 N2 O8"
_cell_length_a       7.23608
_cell_length_b       7.67981
_cell_length_c       7.67972
_cell_angle_alpha    100.637
_cell_angle_beta     107.223
_cell_angle_gamma    107.223

_space_group_name_H-M_alt    "P 1"
_space_group_IT_number       1

loop_
  _space_group_symop_operation_xyz
  'x, y, z'

loop_
  _atom_site_type_symbol
  _atom_site_label
  _atom_site_symmetry_multiplicity
  _atom_site_fract_x
  _atom_site_fract_y
  _atom_site_fract_z
  _atom_site_occupancy
  Cu  Cu1       1.0  0.51791  0.60019  0.14462  1.0000
  Cu  Cu2       1.0  0.48209  0.85537  0.39981  1.0000
  H   H1        1.0  0.06206  0.08497  0.15540  1.0000
  H   H2        1.0  0.93793  0.84460  0.91504  1.0000
  H   H3        1.0  0.93774  0.37108  0.38950  1.0000
  H   H4        1.0  0.06227  0.61053  0.62892  1.0000
  H   H5        1.0  0.51368  0.53737  0.72995  1.0000
  H   H6        1.0  0.48632  0.27004  0.46261  1.0000
  H   H7        1.0  0.51368  0.18574  0.08156  1.0000
  H   H8        1.0  0.48630  0.91843  0.81425  1.0000
  C   C1        1.0  0.79013  0.98698  0.23699  1.0000
  C   C2        1.0  0.20987  0.76301  0.01302  1.0000
  C   C3        1.0  0.97246  0.13494  0.23015  1.0000
  C   C4        1.0  0.02754  0.76987  0.86507  1.0000
  C   C5        1.0  0.02742  0.32120  0.31483  1.0000
  C   C6        1.0  0.97259  0.68521  0.67882  1.0000
  C   C7        1.0  0.20975  0.46904  0.30794  1.0000
  C   C8        1.0  0.79027  0.69208  0.53096  1.0000
  C   C9        1.0  0.50801  0.39868  0.74873  1.0000
  C   C10       1.0  0.49199  0.25126  0.60131  1.0000
  C   C11       1.0  0.50800  0.20447  0.94286  1.0000
  C   C12       1.0  0.49199  0.05712  0.79552  1.0000
  N   N1        1.0  0.51623  0.37523  0.91942  1.0000
  N   N2        1.0  0.48376  0.08057  0.62476  1.0000
  O   O1        1.0  0.73882  0.81859  0.12964  1.0000
  O   O2        1.0  0.26119  0.87035  0.18142  1.0000
  O   O3        1.0  0.29691  0.65249  0.95988  1.0000
  O   O4        1.0  0.70307  0.04011  0.34750  1.0000
  O   O5        1.0  0.26201  0.63726  0.41612  1.0000
  O   O6        1.0  0.73801  0.58389  0.36274  1.0000
  O   O7        1.0  0.29594  0.41605  0.19653  1.0000
  O   O8        1.0  0.70407  0.80348  0.58394  1.0000
