data_image0
_chemical_formula_structural       Cu4H28C40N4O16
_chemical_formula_sum              "Cu4 H28 C40 N4 O16"
_cell_length_a       9.75767
_cell_length_b       9.75764
_cell_length_c       13.8388
_cell_angle_alpha    77.1732
_cell_angle_beta     77.1734
_cell_angle_gamma    65.8992

_space_group_name_H-M_alt    "P 1"
_space_group_IT_number       1

loop_
  _space_group_symop_operation_xyz
  'x, y, z'

loop_
  _atom_site_type_symbol
  _atom_site_label
  _atom_site_symmetry_multiplicity
  _atom_site_fract_x
  _atom_site_fract_y
  _atom_site_fract_z
  _atom_site_occupancy
  Cu  Cu1       1.0  0.08297  0.58267  0.48773  1.0000
  Cu  Cu2       1.0  0.41733  0.91703  0.01227  1.0000
  Cu  Cu3       1.0  0.91704  0.41733  0.51227  1.0000
  Cu  Cu4       1.0  0.58267  0.08296  0.98773  1.0000
  H   H1        1.0  0.59120  0.73547  0.72762  1.0000
  H   H2        1.0  0.26453  0.40880  0.77238  1.0000
  H   H3        1.0  0.40879  0.26452  0.27238  1.0000
  H   H4        1.0  0.73547  0.59121  0.22763  1.0000
  H   H5        1.0  0.84270  0.85819  0.71304  1.0000
  H   H6        1.0  0.14181  0.15730  0.78696  1.0000
  H   H7        1.0  0.15730  0.14181  0.28696  1.0000
  H   H8        1.0  0.85819  0.84270  0.21304  1.0000
  H   H9        1.0  0.05702  0.86345  0.56712  1.0000
  H   H10       1.0  0.13655  0.94298  0.93287  1.0000
  H   H11       1.0  0.94298  0.13655  0.43287  1.0000
  H   H12       1.0  0.86345  0.05702  0.06713  1.0000
  H   H13       1.0  0.21249  0.00933  0.56989  1.0000
  H   H14       1.0  0.99067  0.78751  0.93011  1.0000
  H   H15       1.0  0.78751  0.99067  0.43011  1.0000
  H   H16       1.0  0.00933  0.21250  0.06989  1.0000
  H   H17       1.0  0.57989  0.69450  0.39183  1.0000
  H   H18       1.0  0.30550  0.42011  0.10817  1.0000
  H   H19       1.0  0.42011  0.30550  0.60817  1.0000
  H   H20       1.0  0.69450  0.57990  0.89183  1.0000
  H   H21       1.0  0.40314  0.56714  0.39323  1.0000
  H   H22       1.0  0.43286  0.59685  0.10677  1.0000
  H   H23       1.0  0.59686  0.43286  0.60676  1.0000
  H   H24       1.0  0.56714  0.40314  0.89323  1.0000
  H   H25       1.0  0.62872  0.88885  0.43542  1.0000
  H   H26       1.0  0.11115  0.37128  0.06458  1.0000
  H   H27       1.0  0.37128  0.11115  0.56458  1.0000
  H   H28       1.0  0.88885  0.62873  0.93542  1.0000
  C   C1        1.0  0.79445  0.67857  0.61278  1.0000
  C   C2        1.0  0.32143  0.20555  0.88722  1.0000
  C   C3        1.0  0.20555  0.32143  0.38722  1.0000
  C   C4        1.0  0.67857  0.79445  0.11278  1.0000
  C   C5        1.0  0.69504  0.75683  0.69796  1.0000
  C   C6        1.0  0.24317  0.30495  0.80204  1.0000
  C   C7        1.0  0.30495  0.24317  0.30204  1.0000
  C   C8        1.0  0.75683  0.69505  0.19796  1.0000
  C   C9        1.0  0.73876  0.83722  0.74322  1.0000
  C   C10       1.0  0.16278  0.26124  0.75678  1.0000
  C   C11       1.0  0.26123  0.16278  0.25678  1.0000
  C   C12       1.0  0.83722  0.73877  0.24322  1.0000
  C   C13       1.0  0.65226  0.89856  0.83712  1.0000
  C   C14       1.0  0.10145  0.34774  0.66288  1.0000
  C   C15       1.0  0.34774  0.10144  0.16288  1.0000
  C   C16       1.0  0.89855  0.65227  0.33712  1.0000
  C   C17       1.0  0.17364  0.83099  0.52870  1.0000
  C   C18       1.0  0.16901  0.82636  0.97130  1.0000
  C   C19       1.0  0.82636  0.16901  0.47129  1.0000
  C   C20       1.0  0.83099  0.17364  0.02870  1.0000
  C   C21       1.0  0.26211  0.91106  0.53046  1.0000
  C   C22       1.0  0.08894  0.73789  0.96954  1.0000
  C   C23       1.0  0.73789  0.08894  0.46954  1.0000
  C   C24       1.0  0.91106  0.26211  0.03046  1.0000
  C   C25       1.0  0.41264  0.86435  0.48044  1.0000
  C   C26       1.0  0.13565  0.58736  0.01956  1.0000
  C   C27       1.0  0.58736  0.13565  0.51955  1.0000
  C   C28       1.0  0.86435  0.41264  0.98044  1.0000
  C   C29       1.0  0.46372  0.73770  0.43039  1.0000
  C   C30       1.0  0.26230  0.53628  0.06961  1.0000
  C   C31       1.0  0.53628  0.26230  0.56961  1.0000
  C   C32       1.0  0.73770  0.46373  0.93039  1.0000
  C   C33       1.0  0.36659  0.66533  0.43166  1.0000
  C   C34       1.0  0.33467  0.63341  0.06834  1.0000
  C   C35       1.0  0.63341  0.33467  0.56833  1.0000
  C   C36       1.0  0.66533  0.36659  0.93166  1.0000
  C   C37       1.0  0.51600  0.93900  0.47780  1.0000
  C   C38       1.0  0.06100  0.48400  0.02220  1.0000
  C   C39       1.0  0.48400  0.06100  0.52220  1.0000
  C   C40       1.0  0.93900  0.51600  0.97780  1.0000
  N   N1        1.0  0.22354  0.71002  0.48020  1.0000
  N   N2        1.0  0.28998  0.77646  0.01980  1.0000
  N   N3        1.0  0.77646  0.28998  0.51980  1.0000
  N   N4        1.0  0.71002  0.22354  0.98020  1.0000
  O   O1        1.0  0.90466  0.71842  0.56875  1.0000
  O   O2        1.0  0.28158  0.09533  0.93125  1.0000
  O   O3        1.0  0.09534  0.28158  0.43125  1.0000
  O   O4        1.0  0.71842  0.90466  0.06875  1.0000
  O   O5        1.0  0.23609  0.42819  0.40475  1.0000
  O   O6        1.0  0.57181  0.76390  0.09525  1.0000
  O   O7        1.0  0.76390  0.57181  0.59524  1.0000
  O   O8        1.0  0.42819  0.23610  0.90476  1.0000
  O   O9        1.0  0.69474  0.99033  0.86376  1.0000
  O   O10       1.0  0.00968  0.30526  0.63623  1.0000
  O   O11       1.0  0.30526  0.00967  0.13623  1.0000
  O   O12       1.0  0.99032  0.69474  0.36377  1.0000
  O   O13       1.0  0.54710  0.85200  0.88332  1.0000
  O   O14       1.0  0.14801  0.45290  0.61668  1.0000
  O   O15       1.0  0.45290  0.14800  0.11668  1.0000
  O   O16       1.0  0.85200  0.54710  0.38332  1.0000
