data_image0
_chemical_formula_structural       Ag2P2H38C38Br2N2
_chemical_formula_sum              "Ag2 P2 H38 C38 Br2 N2"
_cell_length_a       9.17984
_cell_length_b       9.79502
_cell_length_c       11.3645
_cell_angle_alpha    76.7034
_cell_angle_beta     67.5524
_cell_angle_gamma    72.8716

_space_group_name_H-M_alt    "P 1"
_space_group_IT_number       1

loop_
  _space_group_symop_operation_xyz
  'x, y, z'

loop_
  _atom_site_type_symbol
  _atom_site_label
  _atom_site_symmetry_multiplicity
  _atom_site_fract_x
  _atom_site_fract_y
  _atom_site_fract_z
  _atom_site_occupancy
  Ag  Ag1       1.0  0.66510  0.84624  0.50214  1.0000
  Ag  Ag2       1.0  0.33492  0.15375  0.49785  1.0000
  P   P1        1.0  0.75979  0.65860  0.37319  1.0000
  P   P2        1.0  0.24021  0.34140  0.62680  1.0000
  H   H1        1.0  0.95517  0.87374  0.58160  1.0000
  H   H2        1.0  0.04484  0.12626  0.41840  1.0000
  H   H3        1.0  0.02960  0.84842  0.77497  1.0000
  H   H4        1.0  0.97040  0.15158  0.22503  1.0000
  H   H5        1.0  0.81855  0.81147  0.99484  1.0000
  H   H6        1.0  0.18145  0.18853  0.00516  1.0000
  H   H7        1.0  0.53995  0.80965  0.00617  1.0000
  H   H8        1.0  0.46005  0.19036  0.99383  1.0000
  H   H9        1.0  0.48546  0.84094  0.79962  1.0000
  H   H10       1.0  0.51454  0.15906  0.20038  1.0000
  H   H11       1.0  0.71473  0.43906  0.50970  1.0000
  H   H12       1.0  0.28527  0.56093  0.49030  1.0000
  H   H13       1.0  0.89713  0.40220  0.37911  1.0000
  H   H14       1.0  0.10287  0.59780  0.62089  1.0000
  H   H15       1.0  0.84404  0.54297  0.61245  1.0000
  H   H16       1.0  0.15596  0.45703  0.38756  1.0000
  H   H17       1.0  0.94757  0.36440  0.58552  1.0000
  H   H18       1.0  0.05243  0.63560  0.41448  1.0000
  H   H19       1.0  0.90722  0.90116  0.23749  1.0000
  H   H20       1.0  0.09278  0.09884  0.76250  1.0000
  H   H21       1.0  0.12572  0.93846  0.02755  1.0000
  H   H22       1.0  0.87428  0.06154  0.97244  1.0000
  H   H23       1.0  0.26495  0.74093  0.89153  1.0000
  H   H24       1.0  0.73504  0.25907  0.10847  1.0000
  H   H25       1.0  0.19539  0.50113  0.97030  1.0000
  H   H26       1.0  0.80461  0.49886  0.02970  1.0000
  H   H27       1.0  0.97881  0.46306  0.17740  1.0000
  H   H28       1.0  0.02119  0.53694  0.82260  1.0000
  H   H29       1.0  0.68333  0.40892  0.31221  1.0000
  H   H30       1.0  0.31667  0.59108  0.68779  1.0000
  H   H31       1.0  0.47967  0.40030  0.22557  1.0000
  H   H32       1.0  0.52033  0.59970  0.77444  1.0000
  H   H33       1.0  0.28510  0.62441  0.17730  1.0000
  H   H34       1.0  0.71489  0.37559  0.82270  1.0000
  H   H35       1.0  0.29067  0.85864  0.22396  1.0000
  H   H36       1.0  0.70933  0.14136  0.77605  1.0000
  H   H37       1.0  0.49509  0.86880  0.31409  1.0000
  H   H38       1.0  0.50491  0.13120  0.68591  1.0000
  C   C1        1.0  0.86618  0.85910  0.67751  1.0000
  C   C2        1.0  0.13381  0.14090  0.32249  1.0000
  C   C3        1.0  0.90701  0.84474  0.78675  1.0000
  C   C4        1.0  0.09298  0.15526  0.21325  1.0000
  C   C5        1.0  0.78987  0.82535  0.90748  1.0000
  C   C6        1.0  0.21013  0.17465  0.09252  1.0000
  C   C7        1.0  0.63540  0.82387  0.91409  1.0000
  C   C8        1.0  0.36460  0.17614  0.08591  1.0000
  C   C9        1.0  0.60470  0.83963  0.80014  1.0000
  C   C10       1.0  0.39530  0.16037  0.19986  1.0000
  C   C11       1.0  0.82607  0.47627  0.45117  1.0000
  C   C12       1.0  0.17394  0.52373  0.54883  1.0000
  C   C13       1.0  0.92140  0.47497  0.53632  1.0000
  C   C14       1.0  0.07860  0.52503  0.46369  1.0000
  C   C15       1.0  0.92750  0.68016  0.22149  1.0000
  C   C16       1.0  0.07250  0.31984  0.77850  1.0000
  C   C17       1.0  0.97075  0.81364  0.17843  1.0000
  C   C18       1.0  0.02924  0.18637  0.82156  1.0000
  C   C19       1.0  0.09279  0.83453  0.06047  1.0000
  C   C20       1.0  0.90721  0.16547  0.93952  1.0000
  C   C21       1.0  0.17254  0.72306  0.98474  1.0000
  C   C22       1.0  0.82746  0.27694  0.01526  1.0000
  C   C23       1.0  0.13189  0.58913  0.02823  1.0000
  C   C24       1.0  0.86812  0.41087  0.97177  1.0000
  C   C25       1.0  0.00987  0.56790  0.14565  1.0000
  C   C26       1.0  0.99013  0.43210  0.85435  1.0000
  C   C27       1.0  0.60718  0.64130  0.31475  1.0000
  C   C28       1.0  0.39283  0.35870  0.68525  1.0000
  C   C29       1.0  0.60089  0.50924  0.29084  1.0000
  C   C30       1.0  0.39911  0.49076  0.70916  1.0000
  C   C31       1.0  0.48502  0.50392  0.24165  1.0000
  C   C32       1.0  0.51498  0.49608  0.75835  1.0000
  C   C33       1.0  0.37505  0.62938  0.21569  1.0000
  C   C34       1.0  0.62495  0.37061  0.78431  1.0000
  C   C35       1.0  0.37863  0.76082  0.24169  1.0000
  C   C36       1.0  0.62137  0.23917  0.75832  1.0000
  C   C37       1.0  0.49391  0.76687  0.29132  1.0000
  C   C38       1.0  0.50609  0.23313  0.70869  1.0000
  Br  Br1       1.0  0.67333  0.11977  0.37819  1.0000
  Br  Br2       1.0  0.32668  0.88023  0.62182  1.0000
  N   N1        1.0  0.71802  0.85540  0.68333  1.0000
  N   N2        1.0  0.28198  0.14460  0.31667  1.0000
