data_image0
_chemical_formula_structural       Fe2H28C40N4O10
_chemical_formula_sum              "Fe2 H28 C40 N4 O10"
_cell_length_a       9.14557
_cell_length_b       10.1102
_cell_length_c       11.291
_cell_angle_alpha    112.22
_cell_angle_beta     93.9697
_cell_angle_gamma    114.412

_space_group_name_H-M_alt    "P 1"
_space_group_IT_number       1

loop_
  _space_group_symop_operation_xyz
  'x, y, z'

loop_
  _atom_site_type_symbol
  _atom_site_label
  _atom_site_symmetry_multiplicity
  _atom_site_fract_x
  _atom_site_fract_y
  _atom_site_fract_z
  _atom_site_occupancy
  Fe  Fe1       1.0  0.47158  0.85729  0.19962  1.0000
  Fe  Fe2       1.0  0.52617  0.12312  0.78965  1.0000
  H   H1        1.0  0.63258  0.88858  0.46462  1.0000
  H   H2        1.0  0.35991  0.12313  0.52667  1.0000
  H   H3        1.0  0.83596  0.80929  0.52543  1.0000
  H   H4        1.0  0.15539  0.20762  0.47392  1.0000
  H   H5        1.0  0.94424  0.66260  0.34952  1.0000
  H   H6        1.0  0.05000  0.34653  0.65693  1.0000
  H   H7        1.0  0.83200  0.50379  0.87378  1.0000
  H   H8        1.0  0.16605  0.49150  0.12604  1.0000
  H   H9        1.0  0.93650  0.54498  0.09983  1.0000
  H   H10       1.0  0.05867  0.45336  0.90113  1.0000
  H   H11       1.0  0.65696  0.55616  0.72168  1.0000
  H   H12       1.0  0.34112  0.44332  0.27425  1.0000
  H   H13       1.0  0.46501  0.67078  0.70531  1.0000
  H   H14       1.0  0.53710  0.33326  0.29407  1.0000
  H   H15       1.0  0.38110  0.79888  0.90590  1.0000
  H   H16       1.0  0.61995  0.20329  0.09296  1.0000
  H   H17       1.0  0.95350  0.29450  0.27262  1.0000
  H   H18       1.0  0.03894  0.70602  0.72475  1.0000
  H   H19       1.0  0.78065  0.43828  0.61967  1.0000
  H   H20       1.0  0.21047  0.56357  0.37631  1.0000
  H   H21       1.0  0.20922  0.90959  0.91765  1.0000
  H   H22       1.0  0.79911  0.08136  0.08723  1.0000
  H   H23       1.0  0.97830  0.03969  0.23060  1.0000
  H   H24       1.0  0.03182  0.95391  0.77563  1.0000
  H   H25       1.0  0.26214  0.86237  0.31042  1.0000
  H   H26       1.0  0.75720  0.14137  0.69355  1.0000
  H   H27       1.0  0.36071  0.81730  0.40214  1.0000
  H   H28       1.0  0.66264  0.19298  0.60390  1.0000
  C   C1        1.0  0.67936  0.82593  0.38856  1.0000
  C   C2        1.0  0.31214  0.18166  0.60457  1.0000
  C   C3        1.0  0.79449  0.77901  0.42148  1.0000
  C   C4        1.0  0.19757  0.23161  0.57601  1.0000
  C   C5        1.0  0.85451  0.69919  0.32456  1.0000
  C   C6        1.0  0.13951  0.30722  0.67666  1.0000
  C   C7        1.0  0.79865  0.66774  0.19244  1.0000
  C   C8        1.0  0.19671  0.33233  0.80660  1.0000
  C   C9        1.0  0.68327  0.71966  0.16738  1.0000
  C   C10       1.0  0.31124  0.27688  0.82668  1.0000
  C   C11       1.0  0.62563  0.69830  0.03900  1.0000
  C   C12       1.0  0.37147  0.29699  0.95594  1.0000
  C   C13       1.0  0.68045  0.62354  0.93151  1.0000
  C   C14       1.0  0.31740  0.37276  0.06420  1.0000
  C   C15       1.0  0.79376  0.56694  0.95699  1.0000
  C   C16       1.0  0.20363  0.42988  0.04156  1.0000
  C   C17       1.0  0.85039  0.58865  0.08197  1.0000
  C   C18       1.0  0.14547  0.40989  0.91779  1.0000
  C   C19       1.0  0.61934  0.61257  0.80824  1.0000
  C   C20       1.0  0.37960  0.38633  0.18842  1.0000
  C   C21       1.0  0.51215  0.67544  0.79879  1.0000
  C   C22       1.0  0.48857  0.32626  0.19989  1.0000
  C   C23       1.0  0.46376  0.74746  0.91041  1.0000
  C   C24       1.0  0.53608  0.25349  0.08802  1.0000
  C   C25       1.0  0.97223  0.38517  0.37143  1.0000
  C   C26       1.0  0.01951  0.61588  0.62560  1.0000
  C   C27       1.0  0.85004  0.34928  0.43970  1.0000
  C   C28       1.0  0.14212  0.65180  0.55763  1.0000
  C   C29       1.0  0.87528  0.46703  0.56687  1.0000
  C   C30       1.0  0.11650  0.53491  0.42980  1.0000
  C   C31       1.0  0.69622  0.18685  0.38224  1.0000
  C   C32       1.0  0.29486  0.81377  0.62199  1.0000
  C   C33       1.0  0.20916  0.94245  0.16756  1.0000
  C   C34       1.0  0.80213  0.05022  0.83725  1.0000
  C   C35       1.0  0.10521  0.97187  0.08310  1.0000
  C   C36       1.0  0.90547  0.02133  0.92282  1.0000
  C   C37       1.0  0.11897  0.94653  0.95461  1.0000
  C   C38       1.0  0.89102  0.04619  0.05122  1.0000
  C   C39       1.0  0.99038  0.02213  0.13114  1.0000
  C   C40       1.0  0.02024  0.97134  0.87510  1.0000
  N   N1        1.0  0.62212  0.79658  0.26305  1.0000
  N   N2        1.0  0.36807  0.20287  0.72668  1.0000
  N   N3        1.0  0.51779  0.75766  0.02858  1.0000
  N   N4        1.0  0.47993  0.23983  0.96915  1.0000
  O   O1        1.0  0.66778  0.08935  0.26065  1.0000
  O   O2        1.0  0.31990  0.90265  0.74540  1.0000
  O   O3        1.0  0.60179  0.15151  0.45477  1.0000
  O   O4        1.0  0.39620  0.86388  0.55784  1.0000
  O   O5        1.0  0.31374  0.89846  0.11601  1.0000
  O   O6        1.0  0.69654  0.09320  0.88602  1.0000
  O   O7        1.0  0.18808  0.95812  0.28066  1.0000
  O   O8        1.0  0.82485  0.03450  0.72437  1.0000
  O   O9        1.0  0.32098  0.79339  0.30711  1.0000
  O   O10       1.0  0.70279  0.21307  0.69817  1.0000
