data_image0
_chemical_formula_structural       Tb2Cu2H20C32N10O18
_chemical_formula_sum              "Tb2 Cu2 H20 C32 N10 O18"
_cell_length_a       10.4909
_cell_length_b       10.8789
_cell_length_c       11.6221
_cell_angle_alpha    72.9975
_cell_angle_beta     81.7051
_cell_angle_gamma    59.0738

_space_group_name_H-M_alt    "P 1"
_space_group_IT_number       1

loop_
  _space_group_symop_operation_xyz
  'x, y, z'

loop_
  _atom_site_type_symbol
  _atom_site_label
  _atom_site_symmetry_multiplicity
  _atom_site_fract_x
  _atom_site_fract_y
  _atom_site_fract_z
  _atom_site_occupancy
  Tb  Tb1       1.0  0.43535  0.00773  0.82473  1.0000
  Tb  Tb2       1.0  0.56465  0.99227  0.17526  1.0000
  Cu  Cu1       1.0  0.99999  0.00001  1.00000  1.0000
  Cu  Cu2       1.0  0.00001  0.99999  0.50000  1.0000
  H   H1        1.0  0.92660  0.76945  0.48986  1.0000
  H   H2        1.0  0.07342  0.23054  0.51013  1.0000
  H   H3        1.0  0.02606  0.49627  0.58546  1.0000
  H   H4        1.0  0.97395  0.50372  0.41451  1.0000
  H   H5        1.0  0.35981  0.49392  0.76197  1.0000
  H   H6        1.0  0.64018  0.50606  0.23805  1.0000
  H   H7        1.0  0.25121  0.76690  0.65875  1.0000
  H   H8        1.0  0.74878  0.23308  0.34127  1.0000
  H   H9        1.0  0.01782  0.25342  0.82030  1.0000
  H   H10       1.0  0.98217  0.74658  0.17969  1.0000
  H   H11       1.0  0.86978  0.53284  0.76828  1.0000
  H   H12       1.0  0.13022  0.46717  0.23173  1.0000
  H   H13       1.0  0.58206  0.49974  0.06360  1.0000
  H   H14       1.0  0.41795  0.50028  0.93641  1.0000
  H   H15       1.0  0.73672  0.22224  0.10443  1.0000
  H   H16       1.0  0.26328  0.77777  0.89557  1.0000
  H   H17       1.0  0.21284  0.98064  0.71944  1.0000
  H   H18       1.0  0.78716  0.01936  0.28056  1.0000
  H   H19       1.0  0.33247  0.94556  0.61901  1.0000
  H   H20       1.0  0.66752  0.05443  0.38099  1.0000
  C   C1        1.0  0.80455  0.02788  0.70863  1.0000
  C   C2        1.0  0.19545  0.97211  0.29137  1.0000
  C   C3        1.0  0.81461  0.01487  0.83118  1.0000
  C   C4        1.0  0.18538  0.98513  0.16881  1.0000
  C   C5        1.0  0.69419  0.04449  0.62707  1.0000
  C   C6        1.0  0.30581  0.95551  0.37293  1.0000
  C   C7        1.0  0.73131  0.99236  0.94182  1.0000
  C   C8        1.0  0.26867  0.00766  0.05818  1.0000
  C   C9        1.0  0.02279  0.70431  0.55011  1.0000
  C   C10       1.0  0.97722  0.29568  0.44988  1.0000
  C   C11       1.0  0.07770  0.55377  0.60325  1.0000
  C   C12       1.0  0.92231  0.44621  0.39674  1.0000
  C   C13       1.0  0.19966  0.47627  0.68134  1.0000
  C   C14       1.0  0.80033  0.52372  0.31866  1.0000
  C   C15       1.0  0.26417  0.55271  0.70202  1.0000
  C   C16       1.0  0.73582  0.44727  0.29799  1.0000
  C   C17       1.0  0.20438  0.70277  0.64557  1.0000
  C   C18       1.0  0.79562  0.29721  0.35443  1.0000
  C   C19       1.0  0.26243  0.31406  0.74285  1.0000
  C   C20       1.0  0.73757  0.68593  0.25715  1.0000
  C   C21       1.0  0.92023  0.31214  0.87180  1.0000
  C   C22       1.0  0.07976  0.68787  0.12820  1.0000
  C   C23       1.0  0.83884  0.46619  0.84350  1.0000
  C   C24       1.0  0.16117  0.53382  0.15651  1.0000
  C   C25       1.0  0.71450  0.53595  0.91234  1.0000
  C   C26       1.0  0.28552  0.46407  0.08767  1.0000
  C   C27       1.0  0.67843  0.44776  0.00902  1.0000
  C   C28       1.0  0.32158  0.55225  0.99099  1.0000
  C   C29       1.0  0.76433  0.29436  0.03213  1.0000
  C   C30       1.0  0.23567  0.70566  0.96788  1.0000
  C   C31       1.0  0.61851  0.70196  0.88076  1.0000
  C   C32       1.0  0.38151  0.29806  0.11926  1.0000
  N   N1        1.0  0.92901  0.02998  0.65856  1.0000
  N   N2        1.0  0.07099  0.97001  0.34144  1.0000
  N   N3        1.0  0.01141  0.02134  0.74060  1.0000
  N   N4        1.0  0.98858  0.97866  0.25939  1.0000
  N   N5        1.0  0.94243  0.01237  0.84456  1.0000
  N   N6        1.0  0.05756  0.98763  0.15544  1.0000
  N   N7        1.0  0.08538  0.77678  0.57187  1.0000
  N   N8        1.0  0.91463  0.22321  0.42813  1.0000
  N   N9        1.0  0.88235  0.22842  0.96421  1.0000
  N   N10       1.0  0.11765  0.77158  0.03579  1.0000
  O   O1        1.0  0.73961  0.03335  0.52146  1.0000
  O   O2        1.0  0.26040  0.96664  0.47854  1.0000
  O   O3        1.0  0.56538  0.07331  0.66666  1.0000
  O   O4        1.0  0.43462  0.92669  0.33333  1.0000
  O   O5        1.0  0.61959  0.97859  0.93846  1.0000
  O   O6        1.0  0.38038  0.02145  0.06154  1.0000
  O   O7        1.0  0.77789  0.98344  0.04145  1.0000
  O   O8        1.0  0.22211  0.01656  0.95855  1.0000
  O   O9        1.0  0.22375  0.23769  0.70675  1.0000
  O   O10       1.0  0.77626  0.76229  0.29326  1.0000
  O   O11       1.0  0.35523  0.25785  0.82817  1.0000
  O   O12       1.0  0.64477  0.74215  0.17183  1.0000
  O   O13       1.0  0.50243  0.75996  0.94302  1.0000
  O   O14       1.0  0.49758  0.24005  0.05698  1.0000
  O   O15       1.0  0.65373  0.77957  0.79172  1.0000
  O   O16       1.0  0.34631  0.22044  0.20830  1.0000
  O   O17       1.0  0.32172  0.93707  0.70711  1.0000
  O   O18       1.0  0.67828  0.06293  0.29288  1.0000
