data_image0
_chemical_formula_structural       Dy2Cu2H20C32N10O18
_chemical_formula_sum              "Dy2 Cu2 H20 C32 N10 O18"
_cell_length_a       10.4532
_cell_length_b       10.8729
_cell_length_c       11.6297
_cell_angle_alpha    72.8533
_cell_angle_beta     81.7365
_cell_angle_gamma    59.0805

_space_group_name_H-M_alt    "P 1"
_space_group_IT_number       1

loop_
  _space_group_symop_operation_xyz
  'x, y, z'

loop_
  _atom_site_type_symbol
  _atom_site_label
  _atom_site_symmetry_multiplicity
  _atom_site_fract_x
  _atom_site_fract_y
  _atom_site_fract_z
  _atom_site_occupancy
  Dy  Dy1       1.0  0.43540  0.00750  0.82326  1.0000
  Dy  Dy2       1.0  0.56460  0.99250  0.17673  1.0000
  Cu  Cu1       1.0  1.00000  1.00000  0.00000  1.0000
  Cu  Cu2       1.0  0.00000  0.00000  0.50000  1.0000
  H   H1        1.0  0.92737  0.76975  0.48824  1.0000
  H   H2        1.0  0.07263  0.23027  0.51176  1.0000
  H   H3        1.0  0.02661  0.49612  0.58389  1.0000
  H   H4        1.0  0.97338  0.50389  0.41610  1.0000
  H   H5        1.0  0.35853  0.49284  0.76507  1.0000
  H   H6        1.0  0.64148  0.50715  0.23494  1.0000
  H   H7        1.0  0.25007  0.76645  0.66219  1.0000
  H   H8        1.0  0.74994  0.23353  0.33782  1.0000
  H   H9        1.0  0.01859  0.25301  0.82008  1.0000
  H   H10       1.0  0.98140  0.74699  0.17991  1.0000
  H   H11       1.0  0.87063  0.53287  0.76740  1.0000
  H   H12       1.0  0.12936  0.46714  0.23259  1.0000
  H   H13       1.0  0.58190  0.50034  0.06267  1.0000
  H   H14       1.0  0.41810  0.49967  0.93733  1.0000
  H   H15       1.0  0.73621  0.22234  0.10394  1.0000
  H   H16       1.0  0.26379  0.77766  0.89607  1.0000
  H   H17       1.0  0.21233  0.98107  0.71952  1.0000
  H   H18       1.0  0.78767  0.01892  0.28048  1.0000
  H   H19       1.0  0.33304  0.94461  0.61965  1.0000
  H   H20       1.0  0.66695  0.05539  0.38036  1.0000
  C   C1        1.0  0.80379  0.02873  0.70820  1.0000
  C   C2        1.0  0.19622  0.97128  0.29180  1.0000
  C   C3        1.0  0.81395  0.01525  0.83078  1.0000
  C   C4        1.0  0.18605  0.98475  0.16922  1.0000
  C   C5        1.0  0.69310  0.04557  0.62634  1.0000
  C   C6        1.0  0.30689  0.95443  0.37366  1.0000
  C   C7        1.0  0.73017  0.99162  0.94097  1.0000
  C   C8        1.0  0.26983  0.00838  0.05903  1.0000
  C   C9        1.0  0.02305  0.70438  0.54962  1.0000
  C   C10       1.0  0.97695  0.29563  0.45038  1.0000
  C   C11       1.0  0.07786  0.55359  0.60266  1.0000
  C   C12       1.0  0.92214  0.44642  0.39733  1.0000
  C   C13       1.0  0.19927  0.47574  0.68198  1.0000
  C   C14       1.0  0.80073  0.52427  0.31801  1.0000
  C   C15       1.0  0.26330  0.55206  0.70412  1.0000
  C   C16       1.0  0.73671  0.44793  0.29588  1.0000
  C   C17       1.0  0.20354  0.70242  0.64787  1.0000
  C   C18       1.0  0.79646  0.29758  0.35214  1.0000
  C   C19       1.0  0.26246  0.31307  0.74295  1.0000
  C   C20       1.0  0.73754  0.68694  0.25705  1.0000
  C   C21       1.0  0.92082  0.31201  0.87144  1.0000
  C   C22       1.0  0.07917  0.68800  0.12857  1.0000
  C   C23       1.0  0.83947  0.46628  0.84278  1.0000
  C   C24       1.0  0.16053  0.53372  0.15722  1.0000
  C   C25       1.0  0.71483  0.53631  0.91143  1.0000
  C   C26       1.0  0.28517  0.46369  0.08857  1.0000
  C   C27       1.0  0.67846  0.44811  0.00823  1.0000
  C   C28       1.0  0.32153  0.55189  0.99176  1.0000
  C   C29       1.0  0.76422  0.29447  0.03163  1.0000
  C   C30       1.0  0.23578  0.70554  0.96837  1.0000
  C   C31       1.0  0.61862  0.70256  0.87948  1.0000
  C   C32       1.0  0.38138  0.29744  0.12051  1.0000
  N   N1        1.0  0.92870  0.03094  0.65832  1.0000
  N   N2        1.0  0.07131  0.96906  0.34167  1.0000
  N   N3        1.0  0.01146  0.02192  0.74050  1.0000
  N   N4        1.0  0.98855  0.97808  0.25950  1.0000
  N   N5        1.0  0.94223  0.01262  0.84438  1.0000
  N   N6        1.0  0.05777  0.98738  0.15562  1.0000
  N   N7        1.0  0.08517  0.77672  0.57283  1.0000
  N   N8        1.0  0.91484  0.22328  0.42718  1.0000
  N   N9        1.0  0.88246  0.22836  0.96384  1.0000
  N   N10       1.0  0.11754  0.77164  0.03617  1.0000
  O   O1        1.0  0.73861  0.03510  0.52075  1.0000
  O   O2        1.0  0.26139  0.96489  0.47925  1.0000
  O   O3        1.0  0.56387  0.07415  0.66567  1.0000
  O   O4        1.0  0.43612  0.92585  0.33433  1.0000
  O   O5        1.0  0.61956  0.97625  0.93609  1.0000
  O   O6        1.0  0.38044  0.02375  0.06391  1.0000
  O   O7        1.0  0.77543  0.98331  0.04104  1.0000
  O   O8        1.0  0.22458  0.01667  0.95896  1.0000
  O   O9        1.0  0.22341  0.23707  0.70655  1.0000
  O   O10       1.0  0.77659  0.76293  0.29344  1.0000
  O   O11       1.0  0.35624  0.25569  0.82804  1.0000
  O   O12       1.0  0.64376  0.74430  0.17196  1.0000
  O   O13       1.0  0.50320  0.76091  0.94247  1.0000
  O   O14       1.0  0.49680  0.23909  0.05753  1.0000
  O   O15       1.0  0.65270  0.78027  0.78938  1.0000
  O   O16       1.0  0.34730  0.21973  0.21061  1.0000
  O   O17       1.0  0.32172  0.93700  0.70758  1.0000
  O   O18       1.0  0.67828  0.06299  0.29242  1.0000
