data_image0
_chemical_formula_structural       Gd2Cu2H20C32N10O18
_chemical_formula_sum              "Gd2 Cu2 H20 C32 N10 O18"
_cell_length_a       10.7501
_cell_length_b       10.5999
_cell_length_c       11.4736
_cell_angle_alpha    73.8761
_cell_angle_beta     81.0623
_cell_angle_gamma    60.7926

_space_group_name_H-M_alt    "P 1"
_space_group_IT_number       1

loop_
  _space_group_symop_operation_xyz
  'x, y, z'

loop_
  _atom_site_type_symbol
  _atom_site_label
  _atom_site_symmetry_multiplicity
  _atom_site_fract_x
  _atom_site_fract_y
  _atom_site_fract_z
  _atom_site_occupancy
  Gd  Gd1       1.0  0.44114  0.00657  0.82378  1.0000
  Gd  Gd2       1.0  0.55886  0.99343  0.17622  1.0000
  Cu  Cu1       1.0  1.00000  0.00000  0.00000  1.0000
  Cu  Cu2       1.0  0.00000  0.00000  0.50000  1.0000
  H   H1        1.0  0.95691  0.74884  0.47601  1.0000
  H   H2        1.0  0.04309  0.25117  0.52399  1.0000
  H   H3        1.0  0.06135  0.47124  0.56968  1.0000
  H   H4        1.0  0.93865  0.52876  0.43032  1.0000
  H   H5        1.0  0.33714  0.50982  0.77387  1.0000
  H   H6        1.0  0.66287  0.49017  0.22613  1.0000
  H   H7        1.0  0.22587  0.78473  0.67322  1.0000
  H   H8        1.0  0.77414  0.21527  0.32677  1.0000
  H   H9        1.0  0.02510  0.25567  0.82597  1.0000
  H   H10       1.0  0.97490  0.74433  0.17403  1.0000
  H   H11       1.0  0.87487  0.53617  0.77152  1.0000
  H   H12       1.0  0.12512  0.46384  0.22848  1.0000
  H   H13       1.0  0.58326  0.48968  0.06086  1.0000
  H   H14       1.0  0.41674  0.51032  0.93914  1.0000
  H   H15       1.0  0.74454  0.21251  0.10687  1.0000
  H   H16       1.0  0.25545  0.78749  0.89313  1.0000
  H   H17       1.0  0.49627  0.84027  0.65042  1.0000
  H   H18       1.0  0.50373  0.15973  0.34958  1.0000
  H   H19       1.0  0.34227  0.94848  0.59844  1.0000
  H   H20       1.0  0.65773  0.05152  0.40156  1.0000
  C   C1        1.0  0.80579  0.02669  0.70952  1.0000
  C   C2        1.0  0.19421  0.97331  0.29048  1.0000
  C   C3        1.0  0.81358  0.01358  0.83345  1.0000
  C   C4        1.0  0.18642  0.98642  0.16655  1.0000
  C   C5        1.0  0.70212  0.03958  0.62737  1.0000
  C   C6        1.0  0.29788  0.96042  0.37263  1.0000
  C   C7        1.0  0.72840  0.99452  0.94421  1.0000
  C   C8        1.0  0.27160  0.00548  0.05579  1.0000
  C   C9        1.0  0.04172  0.69107  0.54201  1.0000
  C   C10       1.0  0.95829  0.30893  0.45800  1.0000
  C   C11       1.0  0.09851  0.53926  0.59380  1.0000
  C   C12       1.0  0.90149  0.46074  0.40620  1.0000
  C   C13       1.0  0.20515  0.47264  0.67925  1.0000
  C   C14       1.0  0.79486  0.52736  0.32075  1.0000
  C   C15       1.0  0.25332  0.56068  0.70823  1.0000
  C   C16       1.0  0.74668  0.43932  0.29177  1.0000
  C   C17       1.0  0.19244  0.71135  0.65292  1.0000
  C   C18       1.0  0.80757  0.28865  0.34708  1.0000
  C   C19       1.0  0.26918  0.30971  0.73997  1.0000
  C   C20       1.0  0.73082  0.69029  0.26003  1.0000
  C   C21       1.0  0.92719  0.31289  0.87614  1.0000
  C   C22       1.0  0.07281  0.68711  0.12386  1.0000
  C   C23       1.0  0.84417  0.46654  0.84620  1.0000
  C   C24       1.0  0.15582  0.53346  0.15380  1.0000
  C   C25       1.0  0.71800  0.53199  0.91269  1.0000
  C   C26       1.0  0.28199  0.46801  0.08731  1.0000
  C   C27       1.0  0.68136  0.44088  0.00861  1.0000
  C   C28       1.0  0.31863  0.55912  0.99140  1.0000
  C   C29       1.0  0.76999  0.28823  0.03431  1.0000
  C   C30       1.0  0.23000  0.71177  0.96569  1.0000
  C   C31       1.0  0.62139  0.69670  0.87883  1.0000
  C   C32       1.0  0.37861  0.30330  0.12117  1.0000
  N   N1        1.0  0.92703  0.03090  0.65890  1.0000
  N   N2        1.0  0.07297  0.96910  0.34111  1.0000
  N   N3        1.0  0.00641  0.02290  0.74134  1.0000
  N   N4        1.0  0.99359  0.97710  0.25866  1.0000
  N   N5        1.0  0.93792  0.01215  0.84652  1.0000
  N   N6        1.0  0.06208  0.98785  0.15348  1.0000
  N   N7        1.0  0.08812  0.77484  0.57209  1.0000
  N   N8        1.0  0.91188  0.22517  0.42791  1.0000
  N   N9        1.0  0.88955  0.22632  0.96843  1.0000
  N   N10       1.0  0.11045  0.77368  0.03157  1.0000
  O   O1        1.0  0.65802  0.77594  0.78963  1.0000
  O   O2        1.0  0.34197  0.22406  0.21037  1.0000
  O   O3        1.0  0.50444  0.75211  0.93805  1.0000
  O   O4        1.0  0.49555  0.24789  0.06195  1.0000
  O   O5        1.0  0.34994  0.26267  0.82928  1.0000
  O   O6        1.0  0.65006  0.73733  0.17072  1.0000
  O   O7        1.0  0.24357  0.22387  0.69997  1.0000
  O   O8        1.0  0.75643  0.77613  0.30003  1.0000
  O   O9        1.0  0.57441  0.07585  0.66477  1.0000
  O   O10       1.0  0.42559  0.92414  0.33523  1.0000
  O   O11       1.0  0.75153  0.01791  0.52266  1.0000
  O   O12       1.0  0.24847  0.98209  0.47734  1.0000
  O   O13       1.0  0.61495  0.98723  0.93960  1.0000
  O   O14       1.0  0.38505  0.01277  0.06039  1.0000
  O   O15       1.0  0.77250  0.98401  0.04550  1.0000
  O   O16       1.0  0.22750  0.01599  0.95449  1.0000
  O   O17       1.0  0.39926  0.90497  0.67444  1.0000
  O   O18       1.0  0.60074  0.09503  0.32556  1.0000
