data_image0
_chemical_formula_structural       Sr2H32C22N4O16
_chemical_formula_sum              "Sr2 H32 C22 N4 O16"
_cell_length_a       8.20686
_cell_length_b       9.5336
_cell_length_c       9.53358
_cell_angle_alpha    76.8375
_cell_angle_beta     74.8204
_cell_angle_gamma    74.8201

_space_group_name_H-M_alt    "P 1"
_space_group_IT_number       1

loop_
  _space_group_symop_operation_xyz
  'x, y, z'

loop_
  _atom_site_type_symbol
  _atom_site_label
  _atom_site_symmetry_multiplicity
  _atom_site_fract_x
  _atom_site_fract_y
  _atom_site_fract_z
  _atom_site_occupancy
  Sr  Sr1       1.0  0.25000  0.00528  0.99472  1.0000
  Sr  Sr2       1.0  0.75000  0.99473  0.00528  1.0000
  H   H1        1.0  0.23216  0.78741  0.75100  1.0000
  H   H2        1.0  0.26784  0.24900  0.21260  1.0000
  H   H3        1.0  0.76783  0.21260  0.24900  1.0000
  H   H4        1.0  0.73217  0.75100  0.78740  1.0000
  H   H5        1.0  0.02453  0.80609  0.71638  1.0000
  H   H6        1.0  0.47548  0.28362  0.19391  1.0000
  H   H7        1.0  0.97547  0.19391  0.28362  1.0000
  H   H8        1.0  0.52453  0.71638  0.80609  1.0000
  H   H9        1.0  0.49639  0.75755  0.45569  1.0000
  H   H10       1.0  0.00361  0.54430  0.24245  1.0000
  H   H11       1.0  0.50361  0.24244  0.54430  1.0000
  H   H12       1.0  0.99639  0.45570  0.75756  1.0000
  H   H13       1.0  0.41895  0.91245  0.54873  1.0000
  H   H14       1.0  0.08105  0.45127  0.08755  1.0000
  H   H15       1.0  0.58106  0.08754  0.45126  1.0000
  H   H16       1.0  0.91894  0.54873  0.91246  1.0000
  H   H17       1.0  0.09525  0.64557  0.57059  1.0000
  H   H18       1.0  0.40476  0.42941  0.35443  1.0000
  H   H19       1.0  0.90474  0.35443  0.42941  1.0000
  H   H20       1.0  0.59525  0.57059  0.64557  1.0000
  H   H21       1.0  0.32065  0.59008  0.56598  1.0000
  H   H22       1.0  0.17936  0.43403  0.40992  1.0000
  H   H23       1.0  0.67934  0.40992  0.43403  1.0000
  H   H24       1.0  0.82065  0.56597  0.59008  1.0000
  H   H25       1.0  0.36354  0.69288  0.28020  1.0000
  H   H26       1.0  0.13646  0.71979  0.30712  1.0000
  H   H27       1.0  0.63645  0.30712  0.71980  1.0000
  H   H28       1.0  0.86354  0.28020  0.69288  1.0000
  H   H29       1.0  0.14298  0.89199  0.45663  1.0000
  H   H30       1.0  0.35702  0.54337  0.10801  1.0000
  H   H31       1.0  0.85702  0.10801  0.54336  1.0000
  H   H32       1.0  0.64298  0.45664  0.89199  1.0000
  C   C1        1.0  0.14383  0.84780  0.67826  1.0000
  C   C2        1.0  0.35617  0.32174  0.15221  1.0000
  C   C3        1.0  0.85617  0.15221  0.32174  1.0000
  C   C4        1.0  0.64383  0.67826  0.84779  1.0000
  C   C5        1.0  0.09435  0.01346  0.68531  1.0000
  C   C6        1.0  0.40565  0.31469  0.98655  1.0000
  C   C7        1.0  0.90565  0.98655  0.31469  1.0000
  C   C8        1.0  0.59436  0.68531  0.01346  1.0000
  C   C9        1.0  0.39614  0.85860  0.46747  1.0000
  C   C10       1.0  0.10387  0.53253  0.14140  1.0000
  C   C11       1.0  0.60386  0.14139  0.53253  1.0000
  C   C12       1.0  0.89613  0.46747  0.85861  1.0000
  C   C13       1.0  0.40716  0.96090  0.31740  1.0000
  C   C14       1.0  0.09284  0.68260  0.03911  1.0000
  C   C15       1.0  0.59284  0.03910  0.68260  1.0000
  C   C16       1.0  0.90716  0.31740  0.96090  1.0000
  C   C17       1.0  0.22233  0.66613  0.50933  1.0000
  C   C18       1.0  0.27767  0.49068  0.33387  1.0000
  C   C19       1.0  0.77766  0.33387  0.49068  1.0000
  C   C20       1.0  0.72233  0.50932  0.66613  1.0000
  C   C21       1.0  0.25000  0.65135  0.34864  1.0000
  C   C22       1.0  0.75000  0.34864  0.65136  1.0000
  N   N1        1.0  0.22230  0.81948  0.52434  1.0000
  N   N2        1.0  0.27771  0.47566  0.18052  1.0000
  N   N3        1.0  0.77770  0.18052  0.47566  1.0000
  N   N4        1.0  0.72229  0.52434  0.81948  1.0000
  O   O1        1.0  0.04794  0.04436  0.81514  1.0000
  O   O2        1.0  0.45206  0.18485  0.95564  1.0000
  O   O3        1.0  0.95206  0.95564  0.18485  1.0000
  O   O4        1.0  0.54794  0.81515  0.04436  1.0000
  O   O5        1.0  0.09599  0.10298  0.56587  1.0000
  O   O6        1.0  0.40401  0.43413  0.89702  1.0000
  O   O7        1.0  0.90401  0.89702  0.43412  1.0000
  O   O8        1.0  0.59600  0.56588  0.10298  1.0000
  O   O9        1.0  0.54804  0.00328  0.26625  1.0000
  O   O10       1.0  0.95197  0.73375  0.99672  1.0000
  O   O11       1.0  0.45197  0.99671  0.73374  1.0000
  O   O12       1.0  0.04803  0.26625  0.00328  1.0000
  O   O13       1.0  0.27646  0.99265  0.26012  1.0000
  O   O14       1.0  0.22354  0.73988  0.00735  1.0000
  O   O15       1.0  0.72354  0.00735  0.73988  1.0000
  O   O16       1.0  0.77646  0.26012  0.99266  1.0000
