data_image0
_chemical_formula_structural       Ag2P2H38C38N2Cl2
_chemical_formula_sum              "Ag2 P2 H38 C38 N2 Cl2"
_cell_length_a       9.1983
_cell_length_b       9.72334
_cell_length_c       11.3884
_cell_angle_alpha    75.2083
_cell_angle_beta     66.5762
_cell_angle_gamma    72.7129

_space_group_name_H-M_alt    "P 1"
_space_group_IT_number       1

loop_
  _space_group_symop_operation_xyz
  'x, y, z'

loop_
  _atom_site_type_symbol
  _atom_site_label
  _atom_site_symmetry_multiplicity
  _atom_site_fract_x
  _atom_site_fract_y
  _atom_site_fract_z
  _atom_site_occupancy
  Ag  Ag1       1.0  0.66321  0.84669  0.99821  1.0000
  Ag  Ag2       1.0  0.33679  0.15331  0.00179  1.0000
  P   P1        1.0  0.75880  0.65655  0.87429  1.0000
  P   P2        1.0  0.24120  0.34345  0.12571  1.0000
  H   H1        1.0  0.96176  0.88119  0.05986  1.0000
  H   H2        1.0  0.03825  0.11882  0.94014  1.0000
  H   H3        1.0  0.04972  0.85283  0.24620  1.0000
  H   H4        1.0  0.95028  0.14717  0.75381  1.0000
  H   H5        1.0  0.84679  0.81073  0.47379  1.0000
  H   H6        1.0  0.15320  0.18927  0.52621  1.0000
  H   H7        1.0  0.56263  0.80863  0.49943  1.0000
  H   H8        1.0  0.43737  0.19136  0.50056  1.0000
  H   H9        1.0  0.49515  0.84376  0.29852  1.0000
  H   H10       1.0  0.50486  0.15623  0.70148  1.0000
  H   H11       1.0  0.71652  0.43173  0.01470  1.0000
  H   H12       1.0  0.28348  0.56827  0.98530  1.0000
  H   H13       1.0  0.89986  0.39931  0.88207  1.0000
  H   H14       1.0  0.10014  0.60069  0.11793  1.0000
  H   H15       1.0  0.84303  0.54160  0.11323  1.0000
  H   H16       1.0  0.15697  0.45840  0.88676  1.0000
  H   H17       1.0  0.94859  0.36173  0.08944  1.0000
  H   H18       1.0  0.05142  0.63827  0.91056  1.0000
  H   H19       1.0  0.91030  0.90234  0.73723  1.0000
  H   H20       1.0  0.08970  0.09766  0.26277  1.0000
  H   H21       1.0  0.13314  0.94344  0.52580  1.0000
  H   H22       1.0  0.86685  0.05657  0.47420  1.0000
  H   H23       1.0  0.27083  0.74845  0.38803  1.0000
  H   H24       1.0  0.72917  0.25155  0.61197  1.0000
  H   H25       1.0  0.19667  0.50617  0.46734  1.0000
  H   H26       1.0  0.80333  0.49383  0.53266  1.0000
  H   H27       1.0  0.97622  0.46428  0.67613  1.0000
  H   H28       1.0  0.02378  0.53572  0.32387  1.0000
  H   H29       1.0  0.68261  0.40106  0.82120  1.0000
  H   H30       1.0  0.31740  0.59895  0.17879  1.0000
  H   H31       1.0  0.48527  0.39157  0.73078  1.0000
  H   H32       1.0  0.51474  0.60843  0.26922  1.0000
  H   H33       1.0  0.29736  0.61845  0.67158  1.0000
  H   H34       1.0  0.70265  0.38155  0.32842  1.0000
  H   H35       1.0  0.29983  0.85570  0.71516  1.0000
  H   H36       1.0  0.70018  0.14430  0.28484  1.0000
  H   H37       1.0  0.49736  0.86667  0.81007  1.0000
  H   H38       1.0  0.50264  0.13333  0.18993  1.0000
  C   C1        1.0  0.87665  0.86496  0.15900  1.0000
  C   C2        1.0  0.12335  0.13504  0.84100  1.0000
  C   C3        1.0  0.92507  0.84882  0.26418  1.0000
  C   C4        1.0  0.07493  0.15118  0.73581  1.0000
  C   C5        1.0  0.81226  0.82674  0.38917  1.0000
  C   C6        1.0  0.18774  0.17326  0.61084  1.0000
  C   C7        1.0  0.65478  0.82484  0.40376  1.0000
  C   C8        1.0  0.34522  0.17515  0.59624  1.0000
  C   C9        1.0  0.61676  0.84270  0.29314  1.0000
  C   C10       1.0  0.38325  0.15730  0.70686  1.0000
  C   C11       1.0  0.82703  0.47248  0.95421  1.0000
  C   C12       1.0  0.17297  0.52752  0.04578  1.0000
  C   C13       1.0  0.92163  0.47328  0.03794  1.0000
  C   C14       1.0  0.07837  0.52672  0.96206  1.0000
  C   C15       1.0  0.92802  0.68113  0.72073  1.0000
  C   C16       1.0  0.07198  0.31887  0.27927  1.0000
  C   C17       1.0  0.97402  0.81568  0.67763  1.0000
  C   C18       1.0  0.02598  0.18433  0.32237  1.0000
  C   C19       1.0  0.09830  0.83861  0.55887  1.0000
  C   C20       1.0  0.90170  0.16139  0.44113  1.0000
  C   C21       1.0  0.17731  0.72836  0.48228  1.0000
  C   C22       1.0  0.82269  0.27164  0.51772  1.0000
  C   C23       1.0  0.13385  0.59318  0.52601  1.0000
  C   C24       1.0  0.86615  0.40682  0.47399  1.0000
  C   C25       1.0  0.00969  0.56984  0.64428  1.0000
  C   C26       1.0  0.99031  0.43016  0.35572  1.0000
  C   C27       1.0  0.60828  0.63676  0.81655  1.0000
  C   C28       1.0  0.39171  0.36324  0.18346  1.0000
  C   C29       1.0  0.60242  0.50250  0.79610  1.0000
  C   C30       1.0  0.39758  0.49750  0.20390  1.0000
  C   C31       1.0  0.49034  0.49680  0.74427  1.0000
  C   C32       1.0  0.50966  0.50320  0.25573  1.0000
  C   C33       1.0  0.38392  0.62373  0.71250  1.0000
  C   C34       1.0  0.61608  0.37627  0.28751  1.0000
  C   C35       1.0  0.38602  0.75702  0.73646  1.0000
  C   C36       1.0  0.61398  0.24298  0.26354  1.0000
  C   C37       1.0  0.49723  0.76353  0.78876  1.0000
  C   C38       1.0  0.50277  0.23647  0.21124  1.0000
  N   N1        1.0  0.72577  0.86080  0.17239  1.0000
  N   N2        1.0  0.27423  0.13920  0.82761  1.0000
  Cl  Cl1       1.0  0.66049  0.11384  0.87135  1.0000
  Cl  Cl2       1.0  0.33951  0.88616  0.12865  1.0000
