data_image0
_chemical_formula_structural       Na4H60C32S8N8O8
_chemical_formula_sum              "Na4 H60 C32 S8 N8 O8"
_cell_length_a       10.1661
_cell_length_b       10.1239
_cell_length_c       13.6535
_cell_angle_alpha    103.303
_cell_angle_beta     102.339
_cell_angle_gamma    114.236

_space_group_name_H-M_alt    "P 1"
_space_group_IT_number       1

loop_
  _space_group_symop_operation_xyz
  'x, y, z'

loop_
  _atom_site_type_symbol
  _atom_site_label
  _atom_site_symmetry_multiplicity
  _atom_site_fract_x
  _atom_site_fract_y
  _atom_site_fract_z
  _atom_site_occupancy
  Na  Na1       1.0  0.03498  0.46218  0.79733  1.0000
  Na  Na2       1.0  0.16666  0.23817  0.70230  1.0000
  Na  Na3       1.0  0.96502  0.53782  0.20267  1.0000
  Na  Na4       1.0  0.83334  0.76183  0.29770  1.0000
  H   H1        1.0  0.42858  0.14399  0.12143  1.0000
  H   H2        1.0  0.52100  0.30639  0.37893  1.0000
  H   H3        1.0  0.57142  0.85601  0.87857  1.0000
  H   H4        1.0  0.47900  0.69361  0.62107  1.0000
  H   H5        1.0  0.23795  0.99114  0.09066  1.0000
  H   H6        1.0  0.39976  0.14554  0.40904  1.0000
  H   H7        1.0  0.76205  0.00886  0.90934  1.0000
  H   H8        1.0  0.60024  0.85446  0.59096  1.0000
  H   H9        1.0  0.24915  0.25126  0.12081  1.0000
  H   H10       1.0  0.62863  0.12683  0.37855  1.0000
  H   H11       1.0  0.75085  0.74874  0.87920  1.0000
  H   H12       1.0  0.37137  0.87317  0.62145  1.0000
  H   H13       1.0  0.12360  0.11410  0.99131  1.0000
  H   H14       1.0  0.62243  0.13072  0.50774  1.0000
  H   H15       1.0  0.87640  0.88590  0.00869  1.0000
  H   H16       1.0  0.37757  0.86928  0.49226  1.0000
  H   H17       1.0  0.45447  0.37067  0.05166  1.0000
  H   H18       1.0  0.81802  0.40303  0.44903  1.0000
  H   H19       1.0  0.54553  0.62933  0.94834  1.0000
  H   H20       1.0  0.18198  0.59697  0.55097  1.0000
  H   H21       1.0  0.23267  0.12153  0.83151  1.0000
  H   H22       1.0  0.79073  0.40132  0.66843  1.0000
  H   H23       1.0  0.76733  0.87848  0.16850  1.0000
  H   H24       1.0  0.20927  0.59867  0.33157  1.0000
  H   H25       1.0  0.41840  0.27567  0.85671  1.0000
  H   H26       1.0  0.91946  0.56294  0.64426  1.0000
  H   H27       1.0  0.58160  0.72433  0.14329  1.0000
  H   H28       1.0  0.08054  0.43705  0.35574  1.0000
  H   H29       1.0  0.42349  0.02806  0.84883  1.0000
  H   H30       1.0  0.68089  0.57616  0.65200  1.0000
  H   H31       1.0  0.57651  0.97194  0.15117  1.0000
  H   H32       1.0  0.31910  0.42384  0.34800  1.0000
  H   H33       1.0  0.53246  0.16989  0.98145  1.0000
  H   H34       1.0  0.68845  0.55192  0.51955  1.0000
  H   H35       1.0  0.46754  0.83011  0.01855  1.0000
  H   H36       1.0  0.31155  0.44808  0.48045  1.0000
  H   H37       1.0  0.59477  0.20097  0.71959  1.0000
  H   H38       1.0  0.98112  0.87494  0.78081  1.0000
  H   H39       1.0  0.40523  0.79903  0.28041  1.0000
  H   H40       1.0  0.01888  0.12505  0.21919  1.0000
  H   H41       1.0  0.62258  0.07040  0.77868  1.0000
  H   H42       1.0  0.79192  0.84357  0.72084  1.0000
  H   H43       1.0  0.37742  0.92960  0.22132  1.0000
  H   H44       1.0  0.20807  0.15643  0.27916  1.0000
  H   H45       1.0  0.69839  0.10722  0.67531  1.0000
  H   H46       1.0  0.93271  0.02422  0.82485  1.0000
  H   H47       1.0  0.30161  0.89278  0.32469  1.0000
  H   H48       1.0  0.06729  0.97578  0.17515  1.0000
  H   H49       1.0  0.23064  0.56811  0.04986  1.0000
  H   H50       1.0  0.01748  0.18133  0.45017  1.0000
  H   H51       1.0  0.76936  0.43189  0.95015  1.0000
  H   H52       1.0  0.98252  0.81867  0.54983  1.0000
  H   H53       1.0  0.34380  0.51659  0.13167  1.0000
  H   H54       1.0  0.88457  0.21312  0.36837  1.0000
  H   H55       1.0  0.65620  0.48340  0.86833  1.0000
  H   H56       1.0  0.11543  0.78688  0.63163  1.0000
  H   H57       1.0  0.84339  0.25955  0.88862  1.0000
  H   H58       1.0  0.87133  0.95494  0.61197  1.0000
  H   H59       1.0  0.15662  0.74046  0.11138  1.0000
  H   H60       1.0  0.12867  0.04506  0.38803  1.0000
  C   C1        1.0  0.31057  0.07642  0.06215  1.0000
  C   C2        1.0  0.51352  0.24743  0.43786  1.0000
  C   C3        1.0  0.68943  0.92358  0.93785  1.0000
  C   C4        1.0  0.48648  0.75257  0.56214  1.0000
  C   C5        1.0  0.24517  0.18360  0.04372  1.0000
  C   C6        1.0  0.63894  0.20036  0.45584  1.0000
  C   C7        1.0  0.75483  0.81640  0.95628  1.0000
  C   C8        1.0  0.36106  0.79964  0.54416  1.0000
  C   C9        1.0  0.33710  0.29298  0.99226  1.0000
  C   C10       1.0  0.80005  0.34465  0.50793  1.0000
  C   C11       1.0  0.66289  0.70702  0.00775  1.0000
  C   C12       1.0  0.19995  0.65535  0.49207  1.0000
  C   C13       1.0  0.34826  0.19924  0.89217  1.0000
  C   C14       1.0  0.80738  0.45663  0.60824  1.0000
  C   C15       1.0  0.65174  0.80076  0.10783  1.0000
  C   C16       1.0  0.19262  0.54337  0.39176  1.0000
  C   C17       1.0  0.41688  0.09808  0.91983  1.0000
  C   C18       1.0  0.67888  0.49780  0.58085  1.0000
  C   C19       1.0  0.58312  0.90192  0.08018  1.0000
  C   C20       1.0  0.32112  0.50220  0.41916  1.0000
  C   C21       1.0  0.22464  0.83939  0.90626  1.0000
  C   C22       1.0  0.43411  0.31869  0.59354  1.0000
  C   C23       1.0  0.77536  0.16061  0.09374  1.0000
  C   C24       1.0  0.56589  0.68131  0.40646  1.0000
  C   C25       1.0  0.26521  0.39314  0.96955  1.0000
  C   C26       1.0  0.92262  0.29517  0.53042  1.0000
  C   C27       1.0  0.73479  0.60686  0.03045  1.0000
  C   C28       1.0  0.07738  0.70483  0.46959  1.0000
  C   C29       1.0  0.67617  0.15974  0.74561  1.0000
  C   C30       1.0  0.91444  0.93077  0.75458  1.0000
  C   C31       1.0  0.32383  0.84026  0.25439  1.0000
  C   C32       1.0  0.08556  0.06923  0.24542  1.0000
  S   S1        1.0  0.24121  0.75210  0.78890  1.0000
  S   S2        1.0  0.46531  0.45415  0.71085  1.0000
  S   S3        1.0  0.75879  0.24790  0.21110  1.0000
  S   S4        1.0  0.53469  0.54586  0.28915  1.0000
  S   S5        1.0  0.08632  0.72964  0.95117  1.0000
  S   S6        1.0  0.27898  0.13440  0.54813  1.0000
  S   S7        1.0  0.91368  0.27036  0.04882  1.0000
  S   S8        1.0  0.72102  0.86560  0.45187  1.0000
  N   N1        1.0  0.31837  0.99268  0.96267  1.0000
  N   N2        1.0  0.53044  0.35558  0.53759  1.0000
  N   N3        1.0  0.68163  0.00732  0.03733  1.0000
  N   N4        1.0  0.46957  0.64442  0.46241  1.0000
  N   N5        1.0  0.28541  0.50400  0.05592  1.0000
  N   N6        1.0  0.94735  0.23001  0.44413  1.0000
  N   N7        1.0  0.71459  0.49600  0.94408  1.0000
  N   N8        1.0  0.05265  0.76999  0.55587  1.0000
  O   O1        1.0  0.18978  0.37086  0.87592  1.0000
  O   O2        1.0  0.99383  0.31235  0.62379  1.0000
  O   O3        1.0  0.81022  0.62914  0.12408  1.0000
  O   O4        1.0  0.00617  0.68765  0.37621  1.0000
  O   O5        1.0  0.81719  0.28696  0.82401  1.0000
  O   O6        1.0  0.96343  0.99315  0.67671  1.0000
  O   O7        1.0  0.18281  0.71304  0.17599  1.0000
  O   O8        1.0  0.03657  0.00685  0.32329  1.0000
