data_image0
_chemical_formula_structural       La4H32C36N4O28
_chemical_formula_sum              "La4 H32 C36 N4 O28"
_cell_length_a       8.3669
_cell_length_b       9.56953
_cell_length_c       17.0601
_cell_angle_alpha    105.104
_cell_angle_beta     90
_cell_angle_gamma    90

_space_group_name_H-M_alt    "P 1"
_space_group_IT_number       1

loop_
  _space_group_symop_operation_xyz
  'x, y, z'

loop_
  _atom_site_type_symbol
  _atom_site_label
  _atom_site_symmetry_multiplicity
  _atom_site_fract_x
  _atom_site_fract_y
  _atom_site_fract_z
  _atom_site_occupancy
  La  La1       1.0  0.42598  0.33713  0.90273  1.0000
  La  La2       1.0  0.92598  0.16287  0.59726  1.0000
  La  La3       1.0  0.57402  0.66287  0.09727  1.0000
  La  La4       1.0  0.07402  0.83713  0.40274  1.0000
  H   H1        1.0  0.68610  0.16602  0.78342  1.0000
  H   H2        1.0  0.18610  0.33398  0.71658  1.0000
  H   H3        1.0  0.31389  0.83399  0.21658  1.0000
  H   H4        1.0  0.81389  0.66602  0.28342  1.0000
  H   H5        1.0  0.74169  0.13441  0.86645  1.0000
  H   H6        1.0  0.24168  0.36559  0.63355  1.0000
  H   H7        1.0  0.25832  0.86559  0.13355  1.0000
  H   H8        1.0  0.75831  0.63441  0.36646  1.0000
  H   H9        1.0  0.45244  0.99259  0.94856  1.0000
  H   H10       1.0  0.95243  0.50743  0.55144  1.0000
  H   H11       1.0  0.54757  0.00742  0.05144  1.0000
  H   H12       1.0  0.04756  0.49258  0.44856  1.0000
  H   H13       1.0  0.03128  0.86343  0.74183  1.0000
  H   H14       1.0  0.53128  0.63656  0.75817  1.0000
  H   H15       1.0  0.96872  0.13656  0.25817  1.0000
  H   H16       1.0  0.46872  0.36344  0.24183  1.0000
  H   H17       1.0  0.14032  0.66793  0.80440  1.0000
  H   H18       1.0  0.64032  0.83208  0.69561  1.0000
  H   H19       1.0  0.85968  0.33208  0.19560  1.0000
  H   H20       1.0  0.35968  0.16792  0.30440  1.0000
  H   H21       1.0  0.02750  0.56027  0.89986  1.0000
  H   H22       1.0  0.52750  0.93972  0.60013  1.0000
  H   H23       1.0  0.97251  0.43973  0.10013  1.0000
  H   H24       1.0  0.47251  0.06027  0.39986  1.0000
  H   H25       1.0  0.86310  0.53009  0.82988  1.0000
  H   H26       1.0  0.36310  0.96990  0.67012  1.0000
  H   H27       1.0  0.13690  0.46991  0.17012  1.0000
  H   H28       1.0  0.63691  0.03008  0.32988  1.0000
  H   H29       1.0  0.92640  0.39069  0.87341  1.0000
  H   H30       1.0  0.42640  0.10930  0.62658  1.0000
  H   H31       1.0  0.07360  0.60931  0.12658  1.0000
  H   H32       1.0  0.57362  0.89069  0.37341  1.0000
  C   C1        1.0  0.36038  0.71017  0.92717  1.0000
  C   C2        1.0  0.86038  0.78983  0.57284  1.0000
  C   C3        1.0  0.63962  0.28983  0.07284  1.0000
  C   C4        1.0  0.13962  0.21017  0.42716  1.0000
  C   C5        1.0  0.29920  0.81757  0.88370  1.0000
  C   C6        1.0  0.79920  0.68244  0.61631  1.0000
  C   C7        1.0  0.70079  0.18243  0.11630  1.0000
  C   C8        1.0  0.20079  0.31756  0.38370  1.0000
  C   C9        1.0  0.35782  0.95951  0.90380  1.0000
  C   C10       1.0  0.85782  0.54050  0.59620  1.0000
  C   C11       1.0  0.64219  0.04049  0.09620  1.0000
  C   C12       1.0  0.14218  0.45950  0.40379  1.0000
  C   C13       1.0  0.18720  0.02515  0.81378  1.0000
  C   C14       1.0  0.68721  0.47485  0.68622  1.0000
  C   C15       1.0  0.81280  0.97485  0.18622  1.0000
  C   C16       1.0  0.31279  0.52515  0.31378  1.0000
  C   C17       1.0  0.12376  0.88554  0.78836  1.0000
  C   C18       1.0  0.62377  0.61446  0.71165  1.0000
  C   C19       1.0  0.87624  0.11446  0.21165  1.0000
  C   C20       1.0  0.37624  0.38554  0.28835  1.0000
  C   C21       1.0  0.18266  0.77941  0.82304  1.0000
  C   C22       1.0  0.68266  0.72059  0.67697  1.0000
  C   C23       1.0  0.81734  0.22059  0.17696  1.0000
  C   C24       1.0  0.31734  0.27941  0.32303  1.0000
  C   C25       1.0  0.13268  0.14328  0.77672  1.0000
  C   C26       1.0  0.63269  0.35671  0.72328  1.0000
  C   C27       1.0  0.86730  0.85671  0.22329  1.0000
  C   C28       1.0  0.36730  0.64329  0.27672  1.0000
  C   C29       1.0  0.91103  0.50816  0.88545  1.0000
  C   C30       1.0  0.41103  0.99183  0.61454  1.0000
  C   C31       1.0  0.08898  0.49184  0.11454  1.0000
  C   C32       1.0  0.58898  0.00815  0.38545  1.0000
  C   C33       1.0  0.79415  0.56068  0.95364  1.0000
  C   C34       1.0  0.29414  0.93930  0.54635  1.0000
  C   C35       1.0  0.20586  0.43932  0.04635  1.0000
  C   C36       1.0  0.70586  0.06069  0.45364  1.0000
  N   N1        1.0  0.30472  0.06091  0.86928  1.0000
  N   N2        1.0  0.80473  0.43909  0.63072  1.0000
  N   N3        1.0  0.69528  0.93909  0.13072  1.0000
  N   N4        1.0  0.19527  0.56091  0.36927  1.0000
  O   O1        1.0  0.32053  0.57915  0.89809  1.0000
  O   O2        1.0  0.82053  0.92085  0.60191  1.0000
  O   O3        1.0  0.67946  0.42085  0.10191  1.0000
  O   O4        1.0  0.17947  0.07915  0.39809  1.0000
  O   O5        1.0  0.44564  0.76062  0.99008  1.0000
  O   O6        1.0  0.94564  0.73938  0.50993  1.0000
  O   O7        1.0  0.55435  0.23938  0.00993  1.0000
  O   O8        1.0  0.05436  0.26062  0.49007  1.0000
  O   O9        1.0  0.01494  0.11779  0.72914  1.0000
  O   O10       1.0  0.51494  0.38221  0.77086  1.0000
  O   O11       1.0  0.98506  0.88220  0.27086  1.0000
  O   O12       1.0  0.48506  0.61780  0.22914  1.0000
  O   O13       1.0  0.21268  0.26133  0.79470  1.0000
  O   O14       1.0  0.71268  0.23866  0.70530  1.0000
  O   O15       1.0  0.78730  0.73867  0.20531  1.0000
  O   O16       1.0  0.28731  0.76134  0.29470  1.0000
  O   O17       1.0  0.64786  0.14718  0.83554  1.0000
  O   O18       1.0  0.14786  0.35282  0.66446  1.0000
  O   O19       1.0  0.35214  0.85283  0.16446  1.0000
  O   O20       1.0  0.85213  0.64717  0.33555  1.0000
  O   O21       1.0  0.83075  0.66158  0.01531  1.0000
  O   O22       1.0  0.33074  0.83840  0.48469  1.0000
  O   O23       1.0  0.16925  0.33843  0.98468  1.0000
  O   O24       1.0  0.66926  0.16158  0.51531  1.0000
  O   O25       1.0  0.65473  0.50035  0.94802  1.0000
  O   O26       1.0  0.15473  0.99965  0.55198  1.0000
  O   O27       1.0  0.34527  0.49965  0.05198  1.0000
  O   O28       1.0  0.84528  0.00035  0.44802  1.0000
