data_image0
_chemical_formula_structural       Zn2H42C44N4O14
_chemical_formula_sum              "Zn2 H42 C44 N4 O14"
_cell_length_a       8.07402
_cell_length_b       12.1063
_cell_length_c       14.0365
_cell_angle_alpha    108.838
_cell_angle_beta     104.389
_cell_angle_gamma    96.199

_space_group_name_H-M_alt    "P 1"
_space_group_IT_number       1

loop_
  _space_group_symop_operation_xyz
  'x, y, z'

loop_
  _atom_site_type_symbol
  _atom_site_label
  _atom_site_symmetry_multiplicity
  _atom_site_fract_x
  _atom_site_fract_y
  _atom_site_fract_z
  _atom_site_occupancy
  Zn  Zn1       1.0  0.95549  0.25377  0.43340  1.0000
  Zn  Zn2       1.0  0.04450  0.74624  0.56660  1.0000
  H   H1        1.0  0.77907  0.42588  0.40816  1.0000
  H   H2        1.0  0.22092  0.57413  0.59184  1.0000
  H   H3        1.0  0.65999  0.28936  0.36415  1.0000
  H   H4        1.0  0.34000  0.71064  0.63585  1.0000
  H   H5        1.0  0.28045  0.99498  0.18179  1.0000
  H   H6        1.0  0.71954  0.00500  0.81819  1.0000
  H   H7        1.0  0.12808  0.77971  0.08662  1.0000
  H   H8        1.0  0.87193  0.22027  0.91337  1.0000
  H   H9        1.0  0.60950  0.67188  0.19235  1.0000
  H   H10       1.0  0.39051  0.32812  0.80766  1.0000
  H   H11       1.0  0.75970  0.88654  0.28755  1.0000
  H   H12       1.0  0.24031  0.11347  0.71246  1.0000
  H   H13       1.0  0.08140  0.39252  0.97171  1.0000
  H   H14       1.0  0.91862  0.60748  0.02829  1.0000
  H   H15       1.0  0.99071  0.29722  0.77399  1.0000
  H   H16       1.0  0.00929  0.70278  0.22601  1.0000
  H   H17       1.0  0.30288  0.60061  0.76175  1.0000
  H   H18       1.0  0.69711  0.39939  0.23825  1.0000
  H   H19       1.0  0.39010  0.69565  0.95626  1.0000
  H   H20       1.0  0.60991  0.30434  0.04374  1.0000
  H   H21       1.0  0.98859  0.00126  0.39961  1.0000
  H   H22       1.0  0.01140  0.99874  0.60039  1.0000
  H   H23       1.0  0.21034  0.88203  0.43133  1.0000
  H   H24       1.0  0.78966  0.11798  0.56868  1.0000
  H   H25       1.0  0.60331  0.20495  0.53354  1.0000
  H   H26       1.0  0.39668  0.79506  0.46647  1.0000
  H   H27       1.0  0.36093  0.30895  0.49746  1.0000
  H   H28       1.0  0.63906  0.69107  0.50255  1.0000
  H   H29       1.0  0.15422  0.47599  0.41544  1.0000
  H   H30       1.0  0.84580  0.52401  0.58456  1.0000
  H   H31       1.0  0.34967  0.27538  0.21008  1.0000
  H   H32       1.0  0.65030  0.72461  0.78990  1.0000
  H   H33       1.0  0.27145  0.36545  0.13593  1.0000
  H   H34       1.0  0.72852  0.63454  0.86406  1.0000
  H   H35       1.0  0.12030  0.26163  0.15680  1.0000
  H   H36       1.0  0.87968  0.73837  0.84320  1.0000
  H   H37       1.0  0.33891  0.59279  0.39351  1.0000
  H   H38       1.0  0.66110  0.40721  0.60648  1.0000
  H   H39       1.0  0.32060  0.57366  0.25917  1.0000
  H   H40       1.0  0.67941  0.42633  0.74082  1.0000
  H   H41       1.0  0.49345  0.52639  0.33348  1.0000
  H   H42       1.0  0.50654  0.47360  0.66651  1.0000
  C   C1        1.0  0.62120  0.08225  0.29369  1.0000
  C   C2        1.0  0.37878  0.91775  0.70631  1.0000
  C   C3        1.0  0.52936  0.95363  0.23895  1.0000
  C   C4        1.0  0.47063  0.04636  0.76104  1.0000
  C   C5        1.0  0.35089  0.92336  0.18319  1.0000
  C   C6        1.0  0.64910  0.07663  0.81680  1.0000
  C   C7        1.0  0.26643  0.80419  0.13098  1.0000
  C   C8        1.0  0.73358  0.19581  0.86901  1.0000
  C   C9        1.0  0.36247  0.71550  0.13455  1.0000
  C   C10       1.0  0.63754  0.28450  0.86545  1.0000
  C   C11       1.0  0.53885  0.74339  0.19125  1.0000
  C   C12       1.0  0.46116  0.25661  0.80876  1.0000
  C   C13       1.0  0.62151  0.86283  0.24351  1.0000
  C   C14       1.0  0.37850  0.13717  0.75649  1.0000
  C   C15       1.0  0.23965  0.54877  0.97478  1.0000
  C   C16       1.0  0.76037  0.45122  0.02522  1.0000
  C   C17       1.0  0.12886  0.43607  0.92402  1.0000
  C   C18       1.0  0.87116  0.56393  0.07599  1.0000
  C   C19       1.0  0.07888  0.38411  0.81479  1.0000
  C   C20       1.0  0.92113  0.61589  0.18522  1.0000
  C   C21       1.0  0.14087  0.44238  0.75475  1.0000
  C   C22       1.0  0.85914  0.55762  0.24526  1.0000
  C   C23       1.0  0.25407  0.55427  0.80717  1.0000
  C   C24       1.0  0.74594  0.44573  0.19283  1.0000
  C   C25       1.0  0.30352  0.60825  0.91657  1.0000
  C   C26       1.0  0.69649  0.39175  0.08343  1.0000
  C   C27       1.0  0.08725  0.38485  0.63760  1.0000
  C   C28       1.0  0.91274  0.61516  0.36241  1.0000
  C   C29       1.0  0.12706  0.04209  0.42963  1.0000
  C   C30       1.0  0.87294  0.95792  0.57037  1.0000
  C   C31       1.0  0.25368  0.97636  0.44792  1.0000
  C   C32       1.0  0.74632  0.02365  0.55209  1.0000
  C   C33       1.0  0.43061  0.03305  0.48836  1.0000
  C   C34       1.0  0.56940  0.96695  0.51164  1.0000
  C   C35       1.0  0.46924  0.15503  0.50516  1.0000
  C   C36       1.0  0.53075  0.84498  0.49485  1.0000
  C   C37       1.0  0.33438  0.21412  0.48428  1.0000
  C   C38       1.0  0.66562  0.78589  0.51572  1.0000
  C   C39       1.0  0.14273  0.39863  0.34450  1.0000
  C   C40       1.0  0.85727  0.60138  0.65550  1.0000
  C   C41       1.0  0.24656  0.32443  0.19158  1.0000
  C   C42       1.0  0.75342  0.67556  0.80841  1.0000
  C   C43       1.0  0.35596  0.53457  0.32006  1.0000
  C   C44       1.0  0.64404  0.46542  0.67994  1.0000
  N   N1        1.0  0.16507  0.15959  0.44845  1.0000
  N   N2        1.0  0.83493  0.84042  0.55155  1.0000
  N   N3        1.0  0.24297  0.41839  0.28682  1.0000
  N   N4        1.0  0.75703  0.58160  0.71317  1.0000
  O   O1        1.0  0.77892  0.09976  0.35229  1.0000
  O   O2        1.0  0.22106  0.90025  0.64771  1.0000
  O   O3        1.0  0.54074  0.16263  0.28009  1.0000
  O   O4        1.0  0.45926  0.83737  0.71990  1.0000
  O   O5        1.0  0.28112  0.59526  0.08306  1.0000
  O   O6        1.0  0.71890  0.40474  0.91695  1.0000
  O   O7        1.0  0.15415  0.43261  0.58314  1.0000
  O   O8        1.0  0.84584  0.56739  0.41686  1.0000
  O   O9        1.0  0.97392  0.28670  0.59353  1.0000
  O   O10       1.0  0.02607  0.71330  0.40647  1.0000
  O   O11       1.0  0.04299  0.30010  0.32106  1.0000
  O   O12       1.0  0.95701  0.69991  0.67895  1.0000
  O   O13       1.0  0.75326  0.35350  0.42555  1.0000
  O   O14       1.0  0.24673  0.64651  0.57445  1.0000
