data_image0
_chemical_formula_structural       Zn2H36C48N4O12
_chemical_formula_sum              "Zn2 H36 C48 N4 O12"
_cell_length_a       9.6961
_cell_length_b       10.9588
_cell_length_c       14.6325
_cell_angle_alpha    104.361
_cell_angle_beta     95.677
_cell_angle_gamma    112.879

_space_group_name_H-M_alt    "P 1"
_space_group_IT_number       1

loop_
  _space_group_symop_operation_xyz
  'x, y, z'

loop_
  _atom_site_type_symbol
  _atom_site_label
  _atom_site_symmetry_multiplicity
  _atom_site_fract_x
  _atom_site_fract_y
  _atom_site_fract_z
  _atom_site_occupancy
  Zn  Zn1       1.0  0.25526  0.68181  0.94497  1.0000
  Zn  Zn2       1.0  0.74474  0.31819  0.05503  1.0000
  H   H1        1.0  0.99086  0.64604  0.87963  1.0000
  H   H2        1.0  0.00914  0.35396  0.12038  1.0000
  H   H3        1.0  0.92862  0.50944  0.91645  1.0000
  H   H4        1.0  0.07139  0.49057  0.08356  1.0000
  H   H5        1.0  0.03375  0.37454  0.84430  1.0000
  H   H6        1.0  0.96625  0.62546  0.15570  1.0000
  H   H7        1.0  0.05290  0.15183  0.76734  1.0000
  H   H8        1.0  0.94710  0.84817  0.23266  1.0000
  H   H9        1.0  0.31631  0.15914  0.77035  1.0000
  H   H10       1.0  0.68368  0.84085  0.22965  1.0000
  H   H11       1.0  0.54550  0.38457  0.84753  1.0000
  H   H12       1.0  0.45450  0.61543  0.15246  1.0000
  H   H13       1.0  0.72463  0.58014  0.90481  1.0000
  H   H14       1.0  0.27536  0.41986  0.09519  1.0000
  H   H15       1.0  0.92642  0.82054  0.97864  1.0000
  H   H16       1.0  0.07358  0.17945  0.02136  1.0000
  H   H17       1.0  0.84856  0.01608  0.04334  1.0000
  H   H18       1.0  0.15144  0.98391  0.95666  1.0000
  H   H19       1.0  0.57002  0.95488  0.03385  1.0000
  H   H20       1.0  0.42998  0.04512  0.96616  1.0000
  H   H21       1.0  0.28928  0.02868  0.20024  1.0000
  H   H22       1.0  0.71072  0.97132  0.79976  1.0000
  H   H23       1.0  0.28814  0.15302  0.36941  1.0000
  H   H24       1.0  0.71186  0.84698  0.63059  1.0000
  H   H25       1.0  0.22086  0.78375  0.44885  1.0000
  H   H26       1.0  0.77914  0.21625  0.55115  1.0000
  H   H27       1.0  0.22767  0.66370  0.28178  1.0000
  H   H28       1.0  0.77233  0.33629  0.71822  1.0000
  H   H29       1.0  0.98276  0.92831  0.54717  1.0000
  H   H30       1.0  0.01724  0.07169  0.45283  1.0000
  H   H31       1.0  0.93548  0.81468  0.67827  1.0000
  H   H32       1.0  0.06452  0.18532  0.32173  1.0000
  H   H33       1.0  0.41185  0.90621  0.74897  1.0000
  H   H34       1.0  0.58815  0.09379  0.25103  1.0000
  H   H35       1.0  0.46220  0.02329  0.62003  1.0000
  H   H36       1.0  0.53780  0.97671  0.37998  1.0000
  C   C1        1.0  0.14439  0.37197  0.84190  1.0000
  C   C2        1.0  0.85561  0.62803  0.15810  1.0000
  C   C3        1.0  0.15610  0.24883  0.79968  1.0000
  C   C4        1.0  0.84390  0.75117  0.20032  1.0000
  C   C5        1.0  0.30217  0.25355  0.80134  1.0000
  C   C6        1.0  0.69782  0.74645  0.19865  1.0000
  C   C7        1.0  0.43071  0.38025  0.84374  1.0000
  C   C8        1.0  0.56929  0.61974  0.15626  1.0000
  C   C9        1.0  0.40996  0.50043  0.88316  1.0000
  C   C10       1.0  0.59003  0.49957  0.11684  1.0000
  C   C11       1.0  0.53940  0.64038  0.92786  1.0000
  C   C12       1.0  0.46060  0.35962  0.07214  1.0000
  C   C13       1.0  0.69308  0.66507  0.93252  1.0000
  C   C14       1.0  0.30692  0.33492  0.06747  1.0000
  C   C15       1.0  0.80654  0.80092  0.97445  1.0000
  C   C16       1.0  0.19346  0.19908  0.02555  1.0000
  C   C17       1.0  0.76418  0.90834  0.01051  1.0000
  C   C18       1.0  0.23582  0.09166  0.98950  1.0000
  C   C19       1.0  0.60871  0.87519  0.00462  1.0000
  C   C20       1.0  0.39129  0.12481  0.99538  1.0000
  C   C21       1.0  0.26224  0.76578  0.13137  1.0000
  C   C22       1.0  0.73776  0.23422  0.86863  1.0000
  C   C23       1.0  0.25985  0.83905  0.23110  1.0000
  C   C24       1.0  0.74014  0.16095  0.76891  1.0000
  C   C25       1.0  0.27579  0.97691  0.25568  1.0000
  C   C26       1.0  0.72421  0.02309  0.74432  1.0000
  C   C27       1.0  0.27428  0.04561  0.34877  1.0000
  C   C28       1.0  0.72572  0.95439  0.65123  1.0000
  C   C29       1.0  0.25424  0.97559  0.41813  1.0000
  C   C30       1.0  0.74576  0.02441  0.58187  1.0000
  C   C31       1.0  0.23657  0.83759  0.39473  1.0000
  C   C32       1.0  0.76342  0.16241  0.60527  1.0000
  C   C33       1.0  0.24033  0.77079  0.30137  1.0000
  C   C34       1.0  0.75967  0.22921  0.69863  1.0000
  C   C35       1.0  0.22493  0.98157  0.57787  1.0000
  C   C36       1.0  0.77508  0.01843  0.42213  1.0000
  C   C37       1.0  0.07606  0.92400  0.59220  1.0000
  C   C38       1.0  0.92394  0.07600  0.40780  1.0000
  C   C39       1.0  0.04972  0.86059  0.66421  1.0000
  C   C40       1.0  0.95028  0.13942  0.33579  1.0000
  C   C41       1.0  0.17039  0.85359  0.72026  1.0000
  C   C42       1.0  0.82961  0.14641  0.27974  1.0000
  C   C43       1.0  0.31909  0.91184  0.70441  1.0000
  C   C44       1.0  0.68091  0.08816  0.29559  1.0000
  C   C45       1.0  0.34729  0.97654  0.63301  1.0000
  C   C46       1.0  0.65271  0.02346  0.36699  1.0000
  C   C47       1.0  0.13806  0.78212  0.79602  1.0000
  C   C48       1.0  0.86194  0.21788  0.20398  1.0000
  N   N1        1.0  0.26766  0.49423  0.88219  1.0000
  N   N2        1.0  0.73234  0.50577  0.11780  1.0000
  N   N3        1.0  0.49975  0.74486  0.96423  1.0000
  N   N4        1.0  0.50024  0.25514  0.03577  1.0000
  O   O1        1.0  0.24243  0.63898  0.10934  1.0000
  O   O2        1.0  0.75757  0.36103  0.89066  1.0000
  O   O3        1.0  0.28411  0.83382  0.07049  1.0000
  O   O4        1.0  0.71590  0.16618  0.92951  1.0000
  O   O5        1.0  0.25172  0.05014  0.50815  1.0000
  O   O6        1.0  0.74828  0.94986  0.49186  1.0000
  O   O7        1.0  0.25376  0.77771  0.84349  1.0000
  O   O8        1.0  0.74624  0.22229  0.15651  1.0000
  O   O9        1.0  0.00169  0.73264  0.80768  1.0000
  O   O10       1.0  0.99830  0.26736  0.19232  1.0000
  O   O11       1.0  0.01274  0.60395  0.93091  1.0000
  O   O12       1.0  0.98727  0.39606  0.06910  1.0000
