data_image0
_chemical_formula_structural       Cu2H32C28I8O16
_chemical_formula_sum              "Cu2 H32 C28 I8 O16"
_cell_length_a       9.47862
_cell_length_b       9.59439
_cell_length_c       13.4486
_cell_angle_alpha    94.0393
_cell_angle_beta     89.8644
_cell_angle_gamma    114.016

_space_group_name_H-M_alt    "P 1"
_space_group_IT_number       1

loop_
  _space_group_symop_operation_xyz
  'x, y, z'

loop_
  _atom_site_type_symbol
  _atom_site_label
  _atom_site_symmetry_multiplicity
  _atom_site_fract_x
  _atom_site_fract_y
  _atom_site_fract_z
  _atom_site_occupancy
  Cu  Cu1       1.0  0.60382  0.09958  0.23867  1.0000
  Cu  Cu2       1.0  0.39618  0.90043  0.76133  1.0000
  H   H1        1.0  0.49305  0.75443  0.15966  1.0000
  H   H2        1.0  0.50695  0.24557  0.84034  1.0000
  H   H3        1.0  0.29546  0.67624  0.11528  1.0000
  H   H4        1.0  0.70454  0.32376  0.88472  1.0000
  H   H5        1.0  0.31801  0.53357  0.25881  1.0000
  H   H6        1.0  0.68200  0.46644  0.74119  1.0000
  H   H7        1.0  0.40601  0.70997  0.33391  1.0000
  H   H8        1.0  0.59399  0.29003  0.66609  1.0000
  H   H9        1.0  0.24761  0.84592  0.38204  1.0000
  H   H10       1.0  0.75240  0.15408  0.61795  1.0000
  H   H11       1.0  0.05316  0.76876  0.33210  1.0000
  H   H12       1.0  0.94684  0.23125  0.66790  1.0000
  H   H13       1.0  0.14391  0.82666  0.16298  1.0000
  H   H14       1.0  0.85609  0.17334  0.83702  1.0000
  H   H15       1.0  0.23911  0.99701  0.24298  1.0000
  H   H16       1.0  0.76089  0.00299  0.75701  1.0000
  H   H17       1.0  0.62462  0.10719  0.00793  1.0000
  H   H18       1.0  0.37539  0.89282  0.99207  1.0000
  H   H19       1.0  0.72281  0.98748  0.97372  1.0000
  H   H20       1.0  0.27719  0.01253  0.02628  1.0000
  H   H21       1.0  0.82953  0.17954  0.02776  1.0000
  H   H22       1.0  0.17047  0.82047  0.97224  1.0000
  H   H23       1.0  0.61973  0.12594  0.47037  1.0000
  H   H24       1.0  0.38026  0.87405  0.52963  1.0000
  H   H25       1.0  0.48129  0.20276  0.50584  1.0000
  H   H26       1.0  0.51869  0.79722  0.49416  1.0000
  H   H27       1.0  0.66680  0.32534  0.46159  1.0000
  H   H28       1.0  0.33319  0.67466  0.53841  1.0000
  H   H29       1.0  0.78789  0.01481  0.15685  1.0000
  H   H30       1.0  0.21210  0.98518  0.84315  1.0000
  H   H31       1.0  0.50077  0.26539  0.32679  1.0000
  H   H32       1.0  0.49923  0.73461  0.67322  1.0000
  C   C1        1.0  0.51810  0.33770  0.17119  1.0000
  C   C2        1.0  0.48191  0.66230  0.82881  1.0000
  C   C3        1.0  0.50836  0.42243  0.08258  1.0000
  C   C4        1.0  0.49164  0.57757  0.91742  1.0000
  C   C5        1.0  0.64494  0.52198  0.04036  1.0000
  C   C6        1.0  0.35507  0.47803  0.95964  1.0000
  C   C7        1.0  0.63680  0.60029  0.95764  1.0000
  C   C8        1.0  0.36320  0.39971  0.04235  1.0000
  C   C9        1.0  0.84172  0.01709  0.31898  1.0000
  C   C10       1.0  0.15827  0.98290  0.68102  1.0000
  C   C11       1.0  0.92213  0.00759  0.41362  1.0000
  C   C12       1.0  0.07786  0.99241  0.58638  1.0000
  C   C13       1.0  0.88871  0.86530  0.45181  1.0000
  C   C14       1.0  0.11129  0.13469  0.54820  1.0000
  C   C15       1.0  0.03197  0.14283  0.46221  1.0000
  C   C16       1.0  0.96803  0.85717  0.53779  1.0000
  C   C17       1.0  0.37498  0.73749  0.17914  1.0000
  C   C18       1.0  0.62502  0.26251  0.82086  1.0000
  C   C19       1.0  0.32384  0.65002  0.27115  1.0000
  C   C20       1.0  0.67616  0.34998  0.72885  1.0000
  C   C21       1.0  0.17238  0.78622  0.31617  1.0000
  C   C22       1.0  0.82762  0.21378  0.68383  1.0000
  C   C23       1.0  0.22711  0.87911  0.22625  1.0000
  C   C24       1.0  0.77289  0.12089  0.77375  1.0000
  C   C25       1.0  0.71995  0.07748  0.02781  1.0000
  C   C26       1.0  0.28005  0.92253  0.97219  1.0000
  C   C27       1.0  0.57353  0.20958  0.45409  1.0000
  C   C28       1.0  0.42646  0.79042  0.54591  1.0000
  I   I1        1.0  0.85820  0.54678  0.10277  1.0000
  I   I2        1.0  0.14181  0.45322  0.89722  1.0000
  I   I3        1.0  0.83539  0.75152  0.88953  1.0000
  I   I4        1.0  0.16461  0.24848  0.11047  1.0000
  I   I5        1.0  0.72160  0.66778  0.37510  1.0000
  I   I6        1.0  0.27840  0.33221  0.62491  1.0000
  I   I7        1.0  0.06854  0.35374  0.40534  1.0000
  I   I8        1.0  0.93146  0.64626  0.59466  1.0000
  O   O1        1.0  0.53992  0.21650  0.14811  1.0000
  O   O2        1.0  0.46009  0.78352  0.85190  1.0000
  O   O3        1.0  0.50415  0.38989  0.25767  1.0000
  O   O4        1.0  0.49585  0.61012  0.74233  1.0000
  O   O5        1.0  0.71366  0.03069  0.33305  1.0000
  O   O6        1.0  0.28633  0.96931  0.66696  1.0000
  O   O7        1.0  0.90430  0.01229  0.23678  1.0000
  O   O8        1.0  0.09568  0.98770  0.76324  1.0000
  O   O9        1.0  0.37642  0.88792  0.19671  1.0000
  O   O10       1.0  0.62358  0.11208  0.80329  1.0000
  O   O11       1.0  0.17146  0.63644  0.29692  1.0000
  O   O12       1.0  0.82854  0.36356  0.70308  1.0000
  O   O13       1.0  0.69178  0.01860  0.12480  1.0000
  O   O14       1.0  0.30822  0.98140  0.87520  1.0000
  O   O15       1.0  0.50819  0.17156  0.35395  1.0000
  O   O16       1.0  0.49180  0.82844  0.64604  1.0000
