data_image0
_chemical_formula_structural       CuH18C20I8O12
_chemical_formula_sum              "Cu1 H18 C20 I8 O12"
_cell_length_a       9.58888
_cell_length_b       10.4928
_cell_length_c       10.4964
_cell_angle_alpha    103.855
_cell_angle_beta     96.8782
_cell_angle_gamma    113.439

_space_group_name_H-M_alt    "P 1"
_space_group_IT_number       1

loop_
  _space_group_symop_operation_xyz
  'x, y, z'

loop_
  _atom_site_type_symbol
  _atom_site_label
  _atom_site_symmetry_multiplicity
  _atom_site_fract_x
  _atom_site_fract_y
  _atom_site_fract_z
  _atom_site_occupancy
  Cu  Cu1       1.0  0.50000  0.99999  1.00000  1.0000
  H   H1        1.0  0.48675  0.98446  0.34320  1.0000
  H   H2        1.0  0.51325  0.01552  0.65680  1.0000
  H   H3        1.0  0.68905  0.07313  0.43407  1.0000
  H   H4        1.0  0.31096  0.92687  0.56594  1.0000
  H   H5        1.0  0.61268  0.90077  0.30365  1.0000
  H   H6        1.0  0.38734  0.09924  0.69635  1.0000
  H   H7        1.0  0.17543  0.00145  0.94082  1.0000
  H   H8        1.0  0.82456  0.99854  0.05919  1.0000
  H   H9        1.0  0.28824  0.17573  0.92104  1.0000
  H   H10       1.0  0.71173  0.82426  0.07896  1.0000
  H   H11       1.0  0.19739  0.16581  0.06109  1.0000
  H   H12       1.0  0.80260  0.83417  0.93892  1.0000
  H   H13       1.0  0.66277  0.17413  0.26335  1.0000
  H   H14       1.0  0.33720  0.82586  0.73665  1.0000
  H   H15       1.0  0.47444  0.22127  0.11651  1.0000
  H   H16       1.0  0.52555  0.77873  0.88348  1.0000
  H   H17       1.0  0.21548  0.49812  0.72183  1.0000
  H   H18       1.0  0.78452  0.50188  0.27816  1.0000
  C   C1        1.0  0.73477  0.30397  0.07476  1.0000
  C   C2        1.0  0.26523  0.69605  0.92524  1.0000
  C   C3        1.0  0.87320  0.41206  0.04161  1.0000
  C   C4        1.0  0.12678  0.58794  0.95838  1.0000
  C   C5        1.0  0.02554  0.43744  0.09955  1.0000
  C   C6        1.0  0.97443  0.56257  0.90045  1.0000
  C   C7        1.0  0.15330  0.52480  0.05752  1.0000
  C   C8        1.0  0.84670  0.47521  0.94246  1.0000
  C   C9        1.0  0.60678  0.00554  0.33492  1.0000
  C   C10       1.0  0.39323  0.99446  0.66508  1.0000
  C   C11       1.0  0.25489  0.11675  0.99413  1.0000
  C   C12       1.0  0.74510  0.88324  0.00589  1.0000
  C   C13       1.0  0.17886  0.29691  0.68472  1.0000
  C   C14       1.0  0.82117  0.70311  0.31529  1.0000
  C   C15       1.0  0.08320  0.14429  0.58684  1.0000
  C   C16       1.0  0.91683  0.85571  0.41318  1.0000
  C   C17       1.0  0.13839  0.09529  0.47632  1.0000
  C   C18       1.0  0.86163  0.90472  0.52368  1.0000
  C   C19       1.0  0.05523  0.95084  0.38870  1.0000
  C   C20       1.0  0.94480  0.04916  0.61133  1.0000
  I   I1        1.0  0.05833  0.34509  0.25098  1.0000
  I   I2        1.0  0.94165  0.65490  0.74900  1.0000
  I   I3        1.0  0.38430  0.56585  0.13546  1.0000
  I   I4        1.0  0.61568  0.43413  0.86452  1.0000
  I   I5        1.0  0.35122  0.24209  0.44942  1.0000
  I   I6        1.0  0.64880  0.75791  0.55059  1.0000
  I   I7        1.0  0.13463  0.87405  0.22260  1.0000
  I   I8        1.0  0.86540  0.12595  0.77741  1.0000
  O   O1        1.0  0.67976  0.17473  0.99225  1.0000
  O   O2        1.0  0.32024  0.82528  0.00775  1.0000
  O   O3        1.0  0.68222  0.34235  0.17539  1.0000
  O   O4        1.0  0.31776  0.65765  0.82461  1.0000
  O   O5        1.0  0.64958  0.07365  0.23302  1.0000
  O   O6        1.0  0.35041  0.92635  0.76699  1.0000
  O   O7        1.0  0.38962  0.12023  0.07656  1.0000
  O   O8        1.0  0.61038  0.87977  0.92344  1.0000
  O   O9        1.0  0.14588  0.39740  0.65099  1.0000
  O   O10       1.0  0.85413  0.60260  0.34900  1.0000
  O   O11       1.0  0.27779  0.32028  0.78456  1.0000
  O   O12       1.0  0.72220  0.67974  0.21545  1.0000
