data_image0
_chemical_formula_structural       Cu2H16C22N4Cl4O2
_chemical_formula_sum              "Cu2 H16 C22 N4 Cl4 O2"
_cell_length_a       7.35861
_cell_length_b       8.54668
_cell_length_c       9.83308
_cell_angle_alpha    84.767
_cell_angle_beta     70.5815
_cell_angle_gamma    73.3916

_space_group_name_H-M_alt    "P 1"
_space_group_IT_number       1

loop_
  _space_group_symop_operation_xyz
  'x, y, z'

loop_
  _atom_site_type_symbol
  _atom_site_label
  _atom_site_symmetry_multiplicity
  _atom_site_fract_x
  _atom_site_fract_y
  _atom_site_fract_z
  _atom_site_occupancy
  Cu  Cu1       1.0  0.22737  0.53495  0.05594  1.0000
  Cu  Cu2       1.0  0.77263  0.46506  0.94406  1.0000
  H   H1        1.0  0.22842  0.23186  0.21680  1.0000
  H   H2        1.0  0.77158  0.76814  0.78319  1.0000
  H   H3        1.0  0.29017  0.11303  0.44296  1.0000
  H   H4        1.0  0.70983  0.88697  0.55703  1.0000
  H   H5        1.0  0.33355  0.29791  0.61272  1.0000
  H   H6        1.0  0.66644  0.70209  0.38728  1.0000
  H   H7        1.0  0.29524  0.59172  0.54751  1.0000
  H   H8        1.0  0.70474  0.40827  0.45249  1.0000
  H   H9        1.0  0.97196  0.04211  0.37503  1.0000
  H   H10       1.0  0.02805  0.95789  0.62498  1.0000
  H   H11       1.0  0.69084  0.18075  0.27784  1.0000
  H   H12       1.0  0.30917  0.81925  0.72217  1.0000
  H   H13       1.0  0.63176  0.03017  0.09506  1.0000
  H   H14       1.0  0.36824  0.96984  0.90494  1.0000
  H   H15       1.0  0.86887  0.75714  0.00819  1.0000
  H   H16       1.0  0.13113  0.24287  0.99181  1.0000
  C   C1        1.0  0.24380  0.30721  0.29351  1.0000
  C   C2        1.0  0.75621  0.69279  0.70648  1.0000
  C   C3        1.0  0.27942  0.24189  0.42031  1.0000
  C   C4        1.0  0.72058  0.75811  0.57968  1.0000
  C   C5        1.0  0.30213  0.34332  0.51332  1.0000
  C   C6        1.0  0.69786  0.65667  0.48669  1.0000
  C   C7        1.0  0.28380  0.50702  0.47673  1.0000
  C   C8        1.0  0.71619  0.49297  0.52328  1.0000
  C   C9        1.0  0.24717  0.56454  0.34796  1.0000
  C   C10       1.0  0.75283  0.43545  0.65204  1.0000
  C   C11       1.0  0.21154  0.74500  0.32011  1.0000
  C   C12       1.0  0.78845  0.25500  0.67989  1.0000
  C   C13       1.0  0.06440  0.82859  0.24326  1.0000
  C   C14       1.0  0.93561  0.17141  0.75675  1.0000
  C   C15       1.0  0.94407  0.98447  0.29258  1.0000
  C   C16       1.0  0.05594  0.01553  0.70742  1.0000
  C   C17       1.0  0.78578  0.05949  0.24054  1.0000
  C   C18       1.0  0.21423  0.94052  0.75947  1.0000
  C   C19       1.0  0.75369  0.97684  0.13894  1.0000
  C   C20       1.0  0.24631  0.02316  0.86106  1.0000
  C   C21       1.0  0.88414  0.82444  0.09032  1.0000
  C   C22       1.0  0.11587  0.17556  0.90969  1.0000
  N   N1        1.0  0.22981  0.46463  0.25732  1.0000
  N   N2        1.0  0.77019  0.53537  0.74267  1.0000
  N   N3        1.0  0.03560  0.75147  0.14117  1.0000
  N   N4        1.0  0.96440  0.24853  0.85883  1.0000
  Cl  Cl1       1.0  0.48275  0.30322  0.96822  1.0000
  Cl  Cl2       1.0  0.51725  0.69678  0.03177  1.0000
  Cl  Cl3       1.0  0.17281  0.56946  0.84039  1.0000
  Cl  Cl4       1.0  0.82720  0.43055  0.15961  1.0000
  O   O1        1.0  0.27079  0.82739  0.38428  1.0000
  O   O2        1.0  0.72921  0.17261  0.61573  1.0000
