data_image0
_chemical_formula_structural       Zn2H38C44N6O12
_chemical_formula_sum              "Zn2 H38 C44 N6 O12"
_cell_length_a       9.60507
_cell_length_b       14.1251
_cell_length_c       14.475
_cell_angle_alpha    99.6689
_cell_angle_beta     103.355
_cell_angle_gamma    107.154

_space_group_name_H-M_alt    "P 1"
_space_group_IT_number       1

loop_
  _space_group_symop_operation_xyz
  'x, y, z'

loop_
  _atom_site_type_symbol
  _atom_site_label
  _atom_site_symmetry_multiplicity
  _atom_site_fract_x
  _atom_site_fract_y
  _atom_site_fract_z
  _atom_site_occupancy
  Zn  Zn1       1.0  0.37348  0.54078  0.67400  1.0000
  Zn  Zn2       1.0  0.62652  0.45921  0.32601  1.0000
  H   H1        1.0  0.41943  0.84607  0.59299  1.0000
  H   H2        1.0  0.58056  0.15393  0.40701  1.0000
  H   H3        1.0  0.54990  0.02978  0.59934  1.0000
  H   H4        1.0  0.45009  0.97021  0.40066  1.0000
  H   H5        1.0  0.94877  0.03498  0.81296  1.0000
  H   H6        1.0  0.05122  0.96502  0.18704  1.0000
  H   H7        1.0  0.81183  0.85211  0.81104  1.0000
  H   H8        1.0  0.18815  0.14789  0.18896  1.0000
  H   H9        1.0  0.54776  0.31617  0.81100  1.0000
  H   H10       1.0  0.45224  0.68382  0.18900  1.0000
  H   H11       1.0  0.68327  0.18848  0.82563  1.0000
  H   H12       1.0  0.31673  0.81151  0.17436  1.0000
  H   H13       1.0  0.81776  0.23766  0.56936  1.0000
  H   H14       1.0  0.18225  0.76235  0.43064  1.0000
  H   H15       1.0  0.67642  0.36084  0.55206  1.0000
  H   H16       1.0  0.32360  0.63917  0.44794  1.0000
  H   H17       1.0  0.41217  0.68575  0.86366  1.0000
  H   H18       1.0  0.58783  0.31425  0.13634  1.0000
  H   H19       1.0  0.28659  0.68559  0.00028  1.0000
  H   H20       1.0  0.71341  0.31441  0.99972  1.0000
  H   H21       1.0  0.93825  0.40127  0.82082  1.0000
  H   H22       1.0  0.06175  0.59873  0.17919  1.0000
  H   H23       1.0  0.07301  0.41604  0.69054  1.0000
  H   H24       1.0  0.92699  0.58396  0.30946  1.0000
  H   H25       1.0  0.31403  0.45625  0.45920  1.0000
  H   H26       1.0  0.68598  0.54375  0.54080  1.0000
  H   H27       1.0  0.89710  0.39321  0.43395  1.0000
  H   H28       1.0  0.10290  0.60680  0.56605  1.0000
  H   H29       1.0  0.85135  0.28800  0.33191  1.0000
  H   H30       1.0  0.14866  0.71201  0.66809  1.0000
  H   H31       1.0  0.93250  0.28016  0.45337  1.0000
  H   H32       1.0  0.06751  0.71985  0.54663  1.0000
  H   H33       1.0  0.00264  0.30447  0.24174  1.0000
  H   H34       1.0  0.99736  0.69554  0.75826  1.0000
  H   H35       1.0  0.14904  0.42702  0.27574  1.0000
  H   H36       1.0  0.85097  0.57299  0.72426  1.0000
  H   H37       1.0  0.19684  0.31820  0.29492  1.0000
  H   H38       1.0  0.80316  0.68181  0.70508  1.0000
  C   C1        1.0  0.53004  0.72910  0.70003  1.0000
  C   C2        1.0  0.46994  0.27090  0.29997  1.0000
  C   C3        1.0  0.60787  0.83788  0.70161  1.0000
  C   C4        1.0  0.39212  0.16211  0.29838  1.0000
  C   C5        1.0  0.53453  0.88818  0.64195  1.0000
  C   C6        1.0  0.46546  0.11182  0.35805  1.0000
  C   C7        1.0  0.60736  0.99009  0.64468  1.0000
  C   C8        1.0  0.39263  0.00991  0.35531  1.0000
  C   C9        1.0  0.75704  0.04152  0.70613  1.0000
  C   C10       1.0  0.24295  0.95847  0.29386  1.0000
  C   C11       1.0  0.83257  0.99256  0.76561  1.0000
  C   C12       1.0  0.16742  0.00744  0.23439  1.0000
  C   C13       1.0  0.75689  0.89141  0.76380  1.0000
  C   C14       1.0  0.24309  0.10858  0.23619  1.0000
  C   C15       1.0  0.52328  0.42095  0.67350  1.0000
  C   C16       1.0  0.47672  0.57904  0.32650  1.0000
  C   C17       1.0  0.60628  0.34709  0.68198  1.0000
  C   C18       1.0  0.39373  0.65291  0.31802  1.0000
  C   C19       1.0  0.60709  0.29785  0.75857  1.0000
  C   C20       1.0  0.39291  0.70215  0.24143  1.0000
  C   C21       1.0  0.68189  0.22768  0.76682  1.0000
  C   C22       1.0  0.31812  0.77231  0.23317  1.0000
  C   C23       1.0  0.75747  0.20731  0.69815  1.0000
  C   C24       1.0  0.24253  0.79269  0.30184  1.0000
  C   C25       1.0  0.75870  0.25599  0.62195  1.0000
  C   C26       1.0  0.24131  0.74402  0.37805  1.0000
  C   C27       1.0  0.68212  0.32554  0.61362  1.0000
  C   C28       1.0  0.31789  0.67446  0.38638  1.0000
  C   C29       1.0  0.30605  0.62562  0.85757  1.0000
  C   C30       1.0  0.69395  0.37438  0.14243  1.0000
  C   C31       1.0  0.23799  0.62476  0.93256  1.0000
  C   C32       1.0  0.76201  0.37524  0.06744  1.0000
  C   C33       1.0  0.10626  0.54193  0.92076  1.0000
  C   C34       1.0  0.89374  0.45807  0.07925  1.0000
  C   C35       1.0  0.04283  0.46502  0.83251  1.0000
  C   C36       1.0  0.95717  0.53498  0.16750  1.0000
  C   C37       1.0  0.11668  0.47315  0.76081  1.0000
  C   C38       1.0  0.88332  0.52685  0.23920  1.0000
  C   C39       1.0  0.20214  0.42741  0.47203  1.0000
  C   C40       1.0  0.79787  0.57260  0.52798  1.0000
  C   C41       1.0  0.93309  0.33107  0.40363  1.0000
  C   C42       1.0  0.06692  0.66894  0.59637  1.0000
  C   C43       1.0  0.11058  0.35441  0.29622  1.0000
  C   C44       1.0  0.88942  0.64559  0.70378  1.0000
  N   N1        1.0  0.24631  0.55129  0.77332  1.0000
  N   N2        1.0  0.75369  0.44871  0.22668  1.0000
  N   N3        1.0  0.04298  0.54346  0.99993  1.0000
  N   N4        1.0  0.95703  0.45654  0.00008  1.0000
  N   N5        1.0  0.08539  0.37156  0.39290  1.0000
  N   N6        1.0  0.91461  0.62844  0.60711  1.0000
  O   O1        1.0  0.40570  0.67589  0.63035  1.0000
  O   O2        1.0  0.59430  0.32410  0.36965  1.0000
  O   O3        1.0  0.58584  0.69053  0.76615  1.0000
  O   O4        1.0  0.41414  0.30947  0.23386  1.0000
  O   O5        1.0  0.52648  0.46881  0.60660  1.0000
  O   O6        1.0  0.47353  0.53119  0.39340  1.0000
  O   O7        1.0  0.44951  0.43455  0.73511  1.0000
  O   O8        1.0  0.55049  0.56545  0.26489  1.0000
  O   O9        1.0  0.83841  0.14083  0.70741  1.0000
  O   O10       1.0  0.16158  0.85916  0.29258  1.0000
  O   O11       1.0  0.18462  0.44713  0.55643  1.0000
  O   O12       1.0  0.81538  0.55287  0.44357  1.0000
