data_image0
_chemical_formula_structural       Cd2H20C36S2N4O8
_chemical_formula_sum              "Cd2 H20 C36 S2 N4 O8"
_cell_length_a       7.38297
_cell_length_b       10.203
_cell_length_c       10.8501
_cell_angle_alpha    80.6191
_cell_angle_beta     72.7269
_cell_angle_gamma    79.1725

_space_group_name_H-M_alt    "P 1"
_space_group_IT_number       1

loop_
  _space_group_symop_operation_xyz
  'x, y, z'

loop_
  _atom_site_type_symbol
  _atom_site_label
  _atom_site_symmetry_multiplicity
  _atom_site_fract_x
  _atom_site_fract_y
  _atom_site_fract_z
  _atom_site_occupancy
  Cd  Cd1       1.0  0.20911  0.39990  0.88152  1.0000
  Cd  Cd2       1.0  0.79089  0.60010  0.11848  1.0000
  H   H1        1.0  0.36873  0.39703  0.53578  1.0000
  H   H2        1.0  0.63126  0.60297  0.46422  1.0000
  H   H3        1.0  0.88980  0.31381  0.38724  1.0000
  H   H4        1.0  0.11020  0.68619  0.61275  1.0000
  H   H5        1.0  0.75983  0.34681  0.98673  1.0000
  H   H6        1.0  0.24017  0.65319  0.01327  1.0000
  H   H7        1.0  0.56755  0.16571  0.01201  1.0000
  H   H8        1.0  0.43245  0.83429  0.98799  1.0000
  H   H9        1.0  0.72855  0.95055  0.90899  1.0000
  H   H10       1.0  0.27145  0.04945  0.09101  1.0000
  H   H11       1.0  0.02203  0.82289  0.78020  1.0000
  H   H12       1.0  0.97797  0.17711  0.21980  1.0000
  H   H13       1.0  0.36745  0.80476  0.66115  1.0000
  H   H14       1.0  0.63255  0.19525  0.33885  1.0000
  H   H15       1.0  0.65390  0.29919  0.69233  1.0000
  H   H16       1.0  0.34610  0.70082  0.30768  1.0000
  H   H17       1.0  0.83805  0.10262  0.57416  1.0000
  H   H18       1.0  0.16195  0.89738  0.42584  1.0000
  H   H19       1.0  0.67042  0.90668  0.58458  1.0000
  H   H20       1.0  0.32958  0.09333  0.41542  1.0000
  C   C1        1.0  0.50579  0.45169  0.26001  1.0000
  C   C2        1.0  0.49421  0.54831  0.73999  1.0000
  C   C3        1.0  0.19477  0.36157  0.15412  1.0000
  C   C4        1.0  0.80523  0.63842  0.84588  1.0000
  C   C5        1.0  0.18135  0.36648  0.29403  1.0000
  C   C6        1.0  0.81866  0.63352  0.70597  1.0000
  C   C7        1.0  0.33202  0.39331  0.34104  1.0000
  C   C8        1.0  0.66798  0.60669  0.65896  1.0000
  C   C9        1.0  0.28697  0.37524  0.47520  1.0000
  C   C10       1.0  0.71303  0.62477  0.52480  1.0000
  C   C11       1.0  0.02688  0.33171  0.39398  1.0000
  C   C12       1.0  0.97312  0.66829  0.60602  1.0000
  C   C13       1.0  0.82752  0.25244  0.94708  1.0000
  C   C14       1.0  0.17248  0.74756  0.05292  1.0000
  C   C15       1.0  0.71869  0.14943  0.95911  1.0000
  C   C16       1.0  0.28131  0.85057  0.04090  1.0000
  C   C17       1.0  0.80660  0.03328  0.90319  1.0000
  C   C18       1.0  0.19340  0.96672  0.09682  1.0000
  C   C19       1.0  0.10364  0.12792  0.83043  1.0000
  C   C20       1.0  0.89636  0.87208  0.16957  1.0000
  C   C21       1.0  0.00350  0.02044  0.83517  1.0000
  C   C22       1.0  0.99650  0.97956  0.16483  1.0000
  C   C23       1.0  0.10272  0.90401  0.77311  1.0000
  C   C24       1.0  0.89729  0.09599  0.22689  1.0000
  C   C25       1.0  0.29298  0.89413  0.70778  1.0000
  C   C26       1.0  0.70702  0.10587  0.29222  1.0000
  C   C27       1.0  0.39872  0.00036  0.70049  1.0000
  C   C28       1.0  0.60129  0.99964  0.29950  1.0000
  C   C29       1.0  0.30574  0.11736  0.76244  1.0000
  C   C30       1.0  0.69426  0.88264  0.23756  1.0000
  C   C31       1.0  0.58452  0.21376  0.69207  1.0000
  C   C32       1.0  0.41548  0.78624  0.30794  1.0000
  C   C33       1.0  0.68730  0.10293  0.62662  1.0000
  C   C34       1.0  0.31270  0.89707  0.37338  1.0000
  C   C35       1.0  0.59488  0.99542  0.63221  1.0000
  C   C36       1.0  0.40512  0.00459  0.36779  1.0000
  S   S1        1.0  0.06543  0.32830  0.54300  1.0000
  S   S2        1.0  0.93457  0.67171  0.45700  1.0000
  N   N1        1.0  0.01426  0.24131  0.88607  1.0000
  N   N2        1.0  0.98574  0.75869  0.11393  1.0000
  N   N3        1.0  0.40052  0.22035  0.75823  1.0000
  N   N4        1.0  0.59948  0.77965  0.24177  1.0000
  O   O1        1.0  0.64421  0.44916  0.30924  1.0000
  O   O2        1.0  0.35580  0.55084  0.69076  1.0000
  O   O3        1.0  0.50567  0.50853  0.14623  1.0000
  O   O4        1.0  0.49432  0.49147  0.85377  1.0000
  O   O5        1.0  0.30698  0.26792  0.09673  1.0000
  O   O6        1.0  0.69303  0.73207  0.90327  1.0000
  O   O7        1.0  0.08607  0.44970  0.09820  1.0000
  O   O8        1.0  0.91393  0.55029  0.90180  1.0000
