data_image0
_chemical_formula_structural       Cd2H16C16S4N12
_chemical_formula_sum              "Cd2 H16 C16 S4 N12"
_cell_length_a       5.60494
_cell_length_b       7.76546
_cell_length_c       14.1738
_cell_angle_alpha    103.456
_cell_angle_beta     90.0004
_cell_angle_gamma    90

_space_group_name_H-M_alt    "P 1"
_space_group_IT_number       1

loop_
  _space_group_symop_operation_xyz
  'x, y, z'

loop_
  _atom_site_type_symbol
  _atom_site_label
  _atom_site_symmetry_multiplicity
  _atom_site_fract_x
  _atom_site_fract_y
  _atom_site_fract_z
  _atom_site_occupancy
  Cd  Cd1       1.0  1.00000  1.00000  1.00000  1.0000
  Cd  Cd2       1.0  0.50000  0.50000  0.50000  1.0000
  H   H1        1.0  0.20857  0.36966  0.93995  1.0000
  H   H2        1.0  0.29143  0.86965  0.43995  1.0000
  H   H3        1.0  0.79143  0.63035  0.06006  1.0000
  H   H4        1.0  0.70858  0.13034  0.56006  1.0000
  H   H5        1.0  0.58054  0.42547  0.78301  1.0000
  H   H6        1.0  0.91945  0.92546  0.28302  1.0000
  H   H7        1.0  0.41947  0.57453  0.21698  1.0000
  H   H8        1.0  0.08055  0.07453  0.71699  1.0000
  H   H9        1.0  0.54617  0.12268  0.85603  1.0000
  H   H10       1.0  0.95383  0.62267  0.35604  1.0000
  H   H11       1.0  0.45384  0.87733  0.14396  1.0000
  H   H12       1.0  0.04618  0.37733  0.64396  1.0000
  H   H13       1.0  0.98905  0.55750  0.84241  1.0000
  H   H14       1.0  0.51095  0.05748  0.34241  1.0000
  H   H15       1.0  0.01095  0.44251  0.15759  1.0000
  H   H16       1.0  0.48906  0.94251  0.65759  1.0000
  C   C1        1.0  0.03352  0.34159  0.90751  1.0000
  C   C2        1.0  0.46648  0.84158  0.40751  1.0000
  C   C3        1.0  0.96648  0.65841  0.09249  1.0000
  C   C4        1.0  0.53353  0.15841  0.59249  1.0000
  C   C5        1.0  0.70297  0.36775  0.82618  1.0000
  C   C6        1.0  0.79702  0.86774  0.32618  1.0000
  C   C7        1.0  0.29702  0.63227  0.17382  1.0000
  C   C8        1.0  0.20299  0.13226  0.67382  1.0000
  C   C9        1.0  0.68901  0.21871  0.86272  1.0000
  C   C10       1.0  0.81099  0.71870  0.36272  1.0000
  C   C11       1.0  0.31099  0.78129  0.13728  1.0000
  C   C12       1.0  0.18902  0.28129  0.63728  1.0000
  C   C13       1.0  0.49313  0.81179  0.89751  1.0000
  C   C14       1.0  0.00686  0.31178  0.39752  1.0000
  C   C15       1.0  0.50687  0.18821  0.10249  1.0000
  C   C16       1.0  0.99313  0.68822  0.60249  1.0000
  S   S1        1.0  0.24810  0.80237  0.83405  1.0000
  S   S2        1.0  0.25188  0.30236  0.33406  1.0000
  S   S3        1.0  0.75190  0.19764  0.16595  1.0000
  S   S4        1.0  0.74810  0.69763  0.66594  1.0000
  N   N1        1.0  0.89602  0.20425  0.91350  1.0000
  N   N2        1.0  0.60399  0.70423  0.41350  1.0000
  N   N3        1.0  0.10399  0.79576  0.08650  1.0000
  N   N4        1.0  0.39602  0.29576  0.58650  1.0000
  N   N5        1.0  0.92159  0.44246  0.85530  1.0000
  N   N6        1.0  0.57841  0.94245  0.35531  1.0000
  N   N7        1.0  0.07842  0.55755  0.14469  1.0000
  N   N8        1.0  0.42160  0.05754  0.64469  1.0000
  N   N9        1.0  0.67154  0.82044  0.94306  1.0000
  N   N10       1.0  0.82843  0.32043  0.44306  1.0000
  N   N11       1.0  0.32845  0.17957  0.05694  1.0000
  N   N12       1.0  0.17155  0.67956  0.55694  1.0000
