data_image0
_chemical_formula_structural       Ag4H24C40N8
_chemical_formula_sum              "Ag4 H24 C40 N8"
_cell_length_a       5.42712
_cell_length_b       7.62471
_cell_length_c       19.2578
_cell_angle_alpha    98.0751
_cell_angle_beta     89.9995
_cell_angle_gamma    90.0013

_space_group_name_H-M_alt    "P 1"
_space_group_IT_number       1

loop_
  _space_group_symop_operation_xyz
  'x, y, z'

loop_
  _atom_site_type_symbol
  _atom_site_label
  _atom_site_symmetry_multiplicity
  _atom_site_fract_x
  _atom_site_fract_y
  _atom_site_fract_z
  _atom_site_occupancy
  Ag  Ag1       1.0  0.81815  0.80797  0.72189  1.0000
  Ag  Ag2       1.0  0.31814  0.69202  0.77812  1.0000
  Ag  Ag3       1.0  0.18185  0.19202  0.27812  1.0000
  Ag  Ag4       1.0  0.68186  0.30796  0.22189  1.0000
  H   H1        1.0  0.84382  0.24344  0.81398  1.0000
  H   H2        1.0  0.34382  0.25656  0.68601  1.0000
  H   H3        1.0  0.15615  0.75656  0.18602  1.0000
  H   H4        1.0  0.65619  0.74343  0.31398  1.0000
  H   H5        1.0  0.24625  0.01268  0.91976  1.0000
  H   H6        1.0  0.74627  0.48735  0.58023  1.0000
  H   H7        1.0  0.75374  0.98732  0.08024  1.0000
  H   H8        1.0  0.25373  0.51268  0.41977  1.0000
  H   H9        1.0  0.19797  0.16976  0.06119  1.0000
  H   H10       1.0  0.69801  0.33024  0.43882  1.0000
  H   H11       1.0  0.80202  0.83024  0.93881  1.0000
  H   H12       1.0  0.30203  0.66975  0.56118  1.0000
  H   H13       1.0  0.89736  0.13672  0.96271  1.0000
  H   H14       1.0  0.39738  0.36329  0.53730  1.0000
  H   H15       1.0  0.10263  0.86329  0.03730  1.0000
  H   H16       1.0  0.60265  0.63670  0.46270  1.0000
  H   H17       1.0  0.18345  0.36150  0.84345  1.0000
  H   H18       1.0  0.68345  0.13850  0.65655  1.0000
  H   H19       1.0  0.81653  0.63850  0.15655  1.0000
  H   H20       1.0  0.31658  0.86151  0.34345  1.0000
  H   H21       1.0  0.84425  0.58067  0.84152  1.0000
  H   H22       1.0  0.34427  0.91931  0.65847  1.0000
  H   H23       1.0  0.15573  0.41933  0.15848  1.0000
  H   H24       1.0  0.65578  0.08068  0.34152  1.0000
  C   C1        1.0  0.69999  0.16206  0.83195  1.0000
  C   C2        1.0  0.19999  0.33794  0.66804  1.0000
  C   C3        1.0  0.29998  0.83793  0.16805  1.0000
  C   C4        1.0  0.80001  0.66206  0.33195  1.0000
  C   C5        1.0  0.53755  0.19852  0.88918  1.0000
  C   C6        1.0  0.03756  0.30149  0.61082  1.0000
  C   C7        1.0  0.46242  0.80148  0.11082  1.0000
  C   C8        1.0  0.96245  0.69851  0.38918  1.0000
  C   C9        1.0  0.39346  0.04453  0.88566  1.0000
  C   C10       1.0  0.89348  0.45547  0.61433  1.0000
  C   C11       1.0  0.60652  0.95546  0.11434  1.0000
  C   C12       1.0  0.10653  0.54453  0.38567  1.0000
  C   C13       1.0  0.04555  0.26274  0.06031  1.0000
  C   C14       1.0  0.54561  0.23727  0.43970  1.0000
  C   C15       1.0  0.95442  0.73726  0.93970  1.0000
  C   C16       1.0  0.45443  0.76273  0.56030  1.0000
  C   C17       1.0  0.88034  0.24520  0.00571  1.0000
  C   C18       1.0  0.38038  0.25480  0.49429  1.0000
  C   C19       1.0  0.11961  0.75480  0.99429  1.0000
  C   C20       1.0  0.61965  0.74519  0.50571  1.0000
  C   C21       1.0  0.68578  0.36964  0.00194  1.0000
  C   C22       1.0  0.18581  0.13036  0.49806  1.0000
  C   C23       1.0  0.31419  0.63036  0.99806  1.0000
  C   C24       1.0  0.81423  0.86964  0.50194  1.0000
  C   C25       1.0  0.52211  0.35428  0.94432  1.0000
  C   C26       1.0  0.02214  0.14572  0.55569  1.0000
  C   C27       1.0  0.47786  0.64572  0.05569  1.0000
  C   C28       1.0  0.97789  0.85429  0.44431  1.0000
  C   C29       1.0  0.33702  0.48380  0.94192  1.0000
  C   C30       1.0  0.83706  0.01619  0.55808  1.0000
  C   C31       1.0  0.66297  0.51621  0.05808  1.0000
  C   C32       1.0  0.16298  0.98380  0.44193  1.0000
  C   C33       1.0  0.16575  0.47289  0.88525  1.0000
  C   C34       1.0  0.66576  0.02711  0.61474  1.0000
  C   C35       1.0  0.83424  0.52713  0.11474  1.0000
  C   C36       1.0  0.33428  0.97288  0.38526  1.0000
  C   C37       1.0  0.97831  0.59463  0.88421  1.0000
  C   C38       1.0  0.47832  0.90536  0.61578  1.0000
  C   C39       1.0  0.02166  0.40537  0.11578  1.0000
  C   C40       1.0  0.52171  0.09463  0.38422  1.0000
  N   N1        1.0  0.65499  0.99861  0.79751  1.0000
  N   N2        1.0  0.15499  0.50140  0.70249  1.0000
  N   N3        1.0  0.34499  0.00139  0.20250  1.0000
  N   N4        1.0  0.84501  0.49860  0.29751  1.0000
  N   N5        1.0  0.46616  0.92587  0.83092  1.0000
  N   N6        1.0  0.96617  0.57414  0.66908  1.0000
  N   N7        1.0  0.53382  0.07413  0.16908  1.0000
  N   N8        1.0  0.03382  0.42587  0.33093  1.0000
