data_image0
_chemical_formula_structural       Cu2H18C22N4
_chemical_formula_sum              "Cu2 H18 C22 N4"
_cell_length_a       7.84532
_cell_length_b       8.07136
_cell_length_c       8.27451
_cell_angle_alpha    71.7119
_cell_angle_beta     67.243
_cell_angle_gamma    90.4743

_space_group_name_H-M_alt    "P 1"
_space_group_IT_number       1

loop_
  _space_group_symop_operation_xyz
  'x, y, z'

loop_
  _atom_site_type_symbol
  _atom_site_label
  _atom_site_symmetry_multiplicity
  _atom_site_fract_x
  _atom_site_fract_y
  _atom_site_fract_z
  _atom_site_occupancy
  Cu  Cu1       1.0  0.95994  0.19540  0.71267  1.0000
  Cu  Cu2       1.0  0.36062  0.37818  0.04210  1.0000
  H   H1        1.0  0.19732  0.70833  0.26872  1.0000
  H   H2        1.0  0.49238  0.65032  0.17040  1.0000
  H   H3        1.0  0.88413  0.52294  0.42171  1.0000
  H   H4        1.0  0.44677  0.04353  0.32997  1.0000
  H   H5        1.0  0.61002  0.65561  0.83436  1.0000
  H   H6        1.0  0.91676  0.58829  0.73448  1.0000
  H   H7        1.0  0.13184  0.86183  0.48340  1.0000
  H   H8        1.0  0.83572  0.91423  0.58451  1.0000
  H   H9        1.0  0.94101  0.10045  0.23749  1.0000
  H   H10       1.0  0.81761  0.25278  0.32997  1.0000
  H   H11       1.0  0.76604  0.19156  0.16277  1.0000
  H   H12       1.0  0.57532  0.35943  0.58058  1.0000
  H   H13       1.0  0.50022  0.32038  0.41577  1.0000
  H   H14       1.0  0.39475  0.46644  0.52957  1.0000
  H   H15       1.0  0.40888  0.98494  0.01953  1.0000
  H   H16       1.0  0.71551  0.91120  0.92155  1.0000
  H   H17       1.0  0.02024  0.40214  0.97067  1.0000
  H   H18       1.0  0.30246  0.17034  0.78542  1.0000
  C   C1        1.0  0.97658  0.75427  0.17154  1.0000
  C   C2        1.0  0.65829  0.99426  0.43674  1.0000
  C   C3        1.0  0.67159  0.57125  0.31640  1.0000
  C   C4        1.0  0.15524  0.79594  0.16492  1.0000
  C   C5        1.0  0.92707  0.86809  0.03005  1.0000
  C   C6        1.0  0.62802  0.68154  0.17028  1.0000
  C   C7        1.0  0.84566  0.60753  0.31312  1.0000
  C   C8        1.0  0.11753  0.26120  0.45886  1.0000
  C   C9        1.0  0.48404  0.95939  0.43967  1.0000
  C   C10       1.0  0.39916  0.70061  0.72504  1.0000
  C   C11       1.0  0.75125  0.82580  0.03140  1.0000
  C   C12       1.0  0.57511  0.74136  0.72401  1.0000
  C   C13       1.0  0.05432  0.62591  0.72600  1.0000
  C   C14       1.0  0.35139  0.81434  0.58219  1.0000
  C   C15       1.0  0.11292  0.51899  0.85991  1.0000
  C   C16       1.0  0.17266  0.77418  0.58823  1.0000
  C   C17       1.0  0.73162  0.26311  0.84049  1.0000
  C   C18       1.0  0.21128  0.05231  0.89552  1.0000
  C   C19       1.0  0.69994  0.88433  0.58434  1.0000
  C   C20       1.0  0.27168  0.94579  0.02823  1.0000
  C   C21       1.0  0.80266  0.14269  0.28284  1.0000
  C   C22       1.0  0.52901  0.42090  0.46928  1.0000
  N   N1        1.0  0.27864  0.55342  0.86193  1.0000
  N   N2        1.0  0.21155  0.30672  0.29745  1.0000
  N   N3        1.0  0.58786  0.30446  0.92086  1.0000
  N   N4        1.0  0.04580  0.01635  0.89412  1.0000
