data_image0
_chemical_formula_structural       Cd4H24C24N16
_chemical_formula_sum              "Cd4 H24 C24 N16"
_cell_length_a       8.27151
_cell_length_b       8.61907
_cell_length_c       13.8248
_cell_angle_alpha    88.9527
_cell_angle_beta     77.814
_cell_angle_gamma    63.5629

_space_group_name_H-M_alt    "P 1"
_space_group_IT_number       1

loop_
  _space_group_symop_operation_xyz
  'x, y, z'

loop_
  _atom_site_type_symbol
  _atom_site_label
  _atom_site_symmetry_multiplicity
  _atom_site_fract_x
  _atom_site_fract_y
  _atom_site_fract_z
  _atom_site_occupancy
  Cd  Cd1       1.0  0.25652  0.11942  0.30063  1.0000
  Cd  Cd2       1.0  0.74348  0.88057  0.69936  1.0000
  Cd  Cd3       1.0  0.50000  0.50000  0.50000  1.0000
  Cd  Cd4       1.0  1.00000  0.00000  1.00000  1.0000
  H   H1        1.0  0.91757  0.05217  0.26559  1.0000
  H   H2        1.0  0.08243  0.94782  0.73440  1.0000
  H   H3        1.0  0.81590  0.72829  0.08797  1.0000
  H   H4        1.0  0.18410  0.27171  0.91203  1.0000
  H   H5        1.0  0.75803  0.64791  0.28616  1.0000
  H   H6        1.0  0.24197  0.35208  0.71384  1.0000
  H   H7        1.0  0.84859  0.96194  0.43454  1.0000
  H   H8        1.0  0.15141  0.03807  0.56546  1.0000
  H   H9        1.0  0.91743  0.73325  0.43316  1.0000
  H   H10       1.0  0.08257  0.26675  0.56684  1.0000
  H   H11       1.0  0.67782  0.88466  0.45089  1.0000
  H   H12       1.0  0.32218  0.11534  0.54911  1.0000
  H   H13       1.0  0.53172  0.21774  0.05922  1.0000
  H   H14       1.0  0.46828  0.78227  0.94079  1.0000
  H   H15       1.0  0.89530  0.42329  0.09269  1.0000
  H   H16       1.0  0.10469  0.57672  0.90732  1.0000
  H   H17       1.0  0.53249  0.66035  0.18553  1.0000
  H   H18       1.0  0.46751  0.33966  0.81448  1.0000
  H   H19       1.0  0.22728  0.44595  0.14983  1.0000
  H   H20       1.0  0.77272  0.55405  0.85017  1.0000
  H   H21       1.0  0.20749  0.65951  0.13747  1.0000
  H   H22       1.0  0.79250  0.34050  0.86253  1.0000
  H   H23       1.0  0.24374  0.55955  0.25129  1.0000
  H   H24       1.0  0.75625  0.44046  0.74871  1.0000
  C   C1        1.0  0.41288  0.24282  0.34787  1.0000
  C   C2        1.0  0.58712  0.75717  0.65213  1.0000
  C   C3        1.0  0.33740  0.86473  0.36454  1.0000
  C   C4        1.0  0.66259  0.13527  0.63546  1.0000
  C   C5        1.0  0.96161  0.30167  0.37188  1.0000
  C   C6        1.0  0.03839  0.69833  0.62811  1.0000
  C   C7        1.0  0.25075  0.08632  0.14349  1.0000
  C   C8        1.0  0.74927  0.91366  0.85651  1.0000
  C   C9        1.0  0.88595  0.95157  0.24185  1.0000
  C   C10       1.0  0.11405  0.04844  0.75815  1.0000
  C   C11       1.0  0.83076  0.78159  0.15409  1.0000
  C   C12       1.0  0.16924  0.21841  0.84591  1.0000
  C   C13       1.0  0.79989  0.74173  0.25100  1.0000
  C   C14       1.0  0.20011  0.25827  0.74900  1.0000
  C   C15       1.0  0.81908  0.85767  0.41247  1.0000
  C   C16       1.0  0.18092  0.14233  0.58753  1.0000
  C   C17       1.0  0.58406  0.30499  0.07920  1.0000
  C   C18       1.0  0.41594  0.69501  0.92080  1.0000
  C   C19       1.0  0.76560  0.41737  0.09781  1.0000
  C   C20       1.0  0.23440  0.58264  0.90220  1.0000
  C   C21       1.0  0.58832  0.53507  0.14430  1.0000
  C   C22       1.0  0.41168  0.46494  0.85571  1.0000
  C   C23       1.0  0.27606  0.53708  0.17019  1.0000
  C   C24       1.0  0.72394  0.46292  0.82981  1.0000
  N   N1        1.0  0.46634  0.32122  0.38917  1.0000
  N   N2        1.0  0.53366  0.67878  0.61083  1.0000
  N   N3        1.0  0.39006  0.73354  0.40164  1.0000
  N   N4        1.0  0.60994  0.26646  0.59836  1.0000
  N   N5        1.0  0.80871  0.39823  0.41007  1.0000
  N   N6        1.0  0.19129  0.60177  0.58992  1.0000
  N   N7        1.0  0.21148  0.06688  0.06960  1.0000
  N   N8        1.0  0.78853  0.93311  0.93039  1.0000
  N   N9        1.0  0.83546  0.85093  0.30556  1.0000
  N   N10       1.0  0.16454  0.14908  0.69444  1.0000
  N   N11       1.0  0.88558  0.91161  0.14936  1.0000
  N   N12       1.0  0.11442  0.08839  0.85064  1.0000
  N   N13       1.0  0.47548  0.46144  0.13183  1.0000
  N   N14       1.0  0.52452  0.53856  0.86817  1.0000
  N   N15       1.0  0.76080  0.27487  0.05722  1.0000
  N   N16       1.0  0.23919  0.72514  0.94278  1.0000
