data_image0
_chemical_formula_structural       K4H24C16N28O20
_chemical_formula_sum              "K4 H24 C16 N28 O20"
_cell_length_a       7.64453
_cell_length_b       11.1795
_cell_length_c       11.3441
_cell_angle_alpha    89.9999
_cell_angle_beta     98.4837
_cell_angle_gamma    90

_space_group_name_H-M_alt    "P 1"
_space_group_IT_number       1

loop_
  _space_group_symop_operation_xyz
  'x, y, z'

loop_
  _atom_site_type_symbol
  _atom_site_label
  _atom_site_symmetry_multiplicity
  _atom_site_fract_x
  _atom_site_fract_y
  _atom_site_fract_z
  _atom_site_occupancy
  K   K1        1.0  0.96583  0.69175  0.22067  1.0000
  K   K2        1.0  0.53417  0.19175  0.27933  1.0000
  K   K3        1.0  0.03417  0.30825  0.77933  1.0000
  K   K4        1.0  0.46583  0.80825  0.72067  1.0000
  H   H1        1.0  0.17211  0.93994  0.21636  1.0000
  H   H2        1.0  0.32789  0.43994  0.28364  1.0000
  H   H3        1.0  0.82789  0.06006  0.78364  1.0000
  H   H4        1.0  0.67211  0.56006  0.71636  1.0000
  H   H5        1.0  0.04106  0.02876  0.26463  1.0000
  H   H6        1.0  0.45894  0.52876  0.23537  1.0000
  H   H7        1.0  0.95894  0.97124  0.73537  1.0000
  H   H8        1.0  0.54106  0.47124  0.76463  1.0000
  H   H9        1.0  0.70910  0.45635  0.50930  1.0000
  H   H10       1.0  0.79090  0.95635  0.99070  1.0000
  H   H11       1.0  0.29090  0.54365  0.49071  1.0000
  H   H12       1.0  0.20910  0.04365  0.00929  1.0000
  H   H13       1.0  0.74370  0.52699  0.37799  1.0000
  H   H14       1.0  0.75631  0.02699  0.12201  1.0000
  H   H15       1.0  0.25630  0.47301  0.62201  1.0000
  H   H16       1.0  0.24370  0.97301  0.87799  1.0000
  H   H17       1.0  0.16467  0.93503  0.54618  1.0000
  H   H18       1.0  0.33533  0.43503  0.95382  1.0000
  H   H19       1.0  0.83533  0.06497  0.45382  1.0000
  H   H20       1.0  0.66467  0.56497  0.04618  1.0000
  H   H21       1.0  0.07423  0.88883  0.40166  1.0000
  H   H22       1.0  0.42577  0.38883  0.09834  1.0000
  H   H23       1.0  0.92577  0.11117  0.59834  1.0000
  H   H24       1.0  0.57423  0.61117  0.90166  1.0000
  C   C1        1.0  0.02281  0.78110  0.54239  1.0000
  C   C2        1.0  0.47719  0.28110  0.95761  1.0000
  C   C3        1.0  0.97719  0.21890  0.45760  1.0000
  C   C4        1.0  0.52281  0.71890  0.04240  1.0000
  C   C5        1.0  0.85337  0.61236  0.53147  1.0000
  C   C6        1.0  0.64663  0.11236  0.96853  1.0000
  C   C7        1.0  0.14663  0.38764  0.46853  1.0000
  C   C8        1.0  0.35337  0.88764  0.03147  1.0000
  C   C9        1.0  0.97144  0.68788  0.71207  1.0000
  C   C10       1.0  0.52856  0.18788  0.78793  1.0000
  C   C11       1.0  0.02857  0.31212  0.28793  1.0000
  C   C12       1.0  0.47143  0.81212  0.21207  1.0000
  C   C13       1.0  0.99537  0.68577  0.84498  1.0000
  C   C14       1.0  0.50463  0.18577  0.65502  1.0000
  C   C15       1.0  0.00463  0.31423  0.15502  1.0000
  C   C16       1.0  0.49537  0.81423  0.34498  1.0000
  N   N1        1.0  0.92596  0.69970  0.47285  1.0000
  N   N2        1.0  0.57404  0.19970  0.02715  1.0000
  N   N3        1.0  0.07404  0.30030  0.52715  1.0000
  N   N4        1.0  0.42596  0.80030  0.97285  1.0000
  N   N5        1.0  0.05630  0.77569  0.66479  1.0000
  N   N6        1.0  0.44370  0.27569  0.83521  1.0000
  N   N7        1.0  0.94370  0.22430  0.33521  1.0000
  N   N8        1.0  0.55630  0.72431  0.16479  1.0000
  N   N9        1.0  0.86648  0.60512  0.65325  1.0000
  N   N10       1.0  0.63352  0.10512  0.84675  1.0000
  N   N11       1.0  0.13352  0.39488  0.34675  1.0000
  N   N12       1.0  0.36648  0.89488  0.15325  1.0000
  N   N13       1.0  0.09500  0.87274  0.49215  1.0000
  N   N14       1.0  0.40501  0.37274  0.00785  1.0000
  N   N15       1.0  0.90500  0.12726  0.50785  1.0000
  N   N16       1.0  0.59500  0.62726  0.99215  1.0000
  N   N17       1.0  0.76061  0.52636  0.46824  1.0000
  N   N18       1.0  0.73939  0.02636  0.03176  1.0000
  N   N19       1.0  0.23939  0.47364  0.53176  1.0000
  N   N20       1.0  0.26061  0.97364  0.96824  1.0000
  N   N21       1.0  0.10865  0.60403  0.90717  1.0000
  N   N22       1.0  0.39135  0.10403  0.59283  1.0000
  N   N23       1.0  0.89135  0.39597  0.09283  1.0000
  N   N24       1.0  0.60865  0.89597  0.40717  1.0000
  N   N25       1.0  0.91087  0.77325  0.90072  1.0000
  N   N26       1.0  0.58913  0.27325  0.59928  1.0000
  N   N27       1.0  0.08913  0.22675  0.09928  1.0000
  N   N28       1.0  0.41087  0.72675  0.40072  1.0000
  O   O1        1.0  0.05909  0.94351  0.25112  1.0000
  O   O2        1.0  0.44091  0.44351  0.24888  1.0000
  O   O3        1.0  0.94091  0.05649  0.74888  1.0000
  O   O4        1.0  0.55909  0.55649  0.75112  1.0000
  O   O5        1.0  0.13652  0.59719  0.01846  1.0000
  O   O6        1.0  0.36347  0.09719  0.48154  1.0000
  O   O7        1.0  0.86347  0.40281  0.98153  1.0000
  O   O8        1.0  0.63653  0.90281  0.51847  1.0000
  O   O9        1.0  0.79827  0.83585  0.83292  1.0000
  O   O10       1.0  0.70173  0.33585  0.66708  1.0000
  O   O11       1.0  0.20173  0.16415  0.16708  1.0000
  O   O12       1.0  0.29827  0.66415  0.33292  1.0000
  O   O13       1.0  0.94105  0.79470  0.01041  1.0000
  O   O14       1.0  0.55895  0.29470  0.48959  1.0000
  O   O15       1.0  0.05895  0.20530  0.98959  1.0000
  O   O16       1.0  0.44105  0.70530  0.51041  1.0000
  O   O17       1.0  0.18510  0.53267  0.84225  1.0000
  O   O18       1.0  0.31490  0.03267  0.65775  1.0000
  O   O19       1.0  0.81490  0.46733  0.15775  1.0000
  O   O20       1.0  0.68510  0.96733  0.34225  1.0000
