data_image0
_chemical_formula_structural       Cu2H22C28S2I2N4O4
_chemical_formula_sum              "Cu2 H22 C28 S2 I2 N4 O4"
_cell_length_a       8.72367
_cell_length_b       9.01964
_cell_length_c       10.2859
_cell_angle_alpha    64.8261
_cell_angle_beta     87.4227
_cell_angle_gamma    85.6684

_space_group_name_H-M_alt    "P 1"
_space_group_IT_number       1

loop_
  _space_group_symop_operation_xyz
  'x, y, z'

loop_
  _atom_site_type_symbol
  _atom_site_label
  _atom_site_symmetry_multiplicity
  _atom_site_fract_x
  _atom_site_fract_y
  _atom_site_fract_z
  _atom_site_occupancy
  Cu  Cu1       1.0  0.38849  0.90756  0.99311  1.0000
  Cu  Cu2       1.0  0.61152  0.09243  0.00689  1.0000
  H   H1        1.0  0.05117  0.17629  0.94632  1.0000
  H   H2        1.0  0.94883  0.82372  0.05369  1.0000
  H   H3        1.0  0.92346  0.10874  0.85402  1.0000
  H   H4        1.0  0.07654  0.89127  0.14598  1.0000
  H   H5        1.0  0.22863  0.42327  0.97922  1.0000
  H   H6        1.0  0.77137  0.57674  0.02077  1.0000
  H   H7        1.0  0.04195  0.44458  0.80102  1.0000
  H   H8        1.0  0.95804  0.55542  0.19897  1.0000
  H   H9        1.0  0.91873  0.71388  0.64024  1.0000
  H   H10       1.0  0.08126  0.28613  0.35976  1.0000
  H   H11       1.0  0.98793  0.96726  0.66005  1.0000
  H   H12       1.0  0.01207  0.03274  0.33996  1.0000
  H   H13       1.0  0.32537  0.42371  0.13257  1.0000
  H   H14       1.0  0.67463  0.57629  0.86743  1.0000
  H   H15       1.0  0.46334  0.24233  0.31373  1.0000
  H   H16       1.0  0.53667  0.75767  0.68627  1.0000
  H   H17       1.0  0.66232  0.16491  0.50303  1.0000
  H   H18       1.0  0.33768  0.83508  0.49697  1.0000
  H   H19       1.0  0.71735  0.67650  0.38711  1.0000
  H   H20       1.0  0.28265  0.32349  0.61289  1.0000
  H   H21       1.0  0.52504  0.75570  0.19476  1.0000
  H   H22       1.0  0.47496  0.24429  0.80523  1.0000
  C   C1        1.0  0.01903  0.07037  0.92942  1.0000
  C   C2        1.0  0.98098  0.92963  0.07058  1.0000
  C   C3        1.0  0.14298  0.83768  0.83442  1.0000
  C   C4        1.0  0.85702  0.16233  0.16559  1.0000
  C   C5        1.0  0.21288  0.68424  0.92922  1.0000
  C   C6        1.0  0.78711  0.31576  0.07078  1.0000
  C   C7        1.0  0.17520  0.54399  0.91295  1.0000
  C   C8        1.0  0.82479  0.45601  0.08704  1.0000
  C   C9        1.0  0.06955  0.55463  0.81162  1.0000
  C   C10       1.0  0.93045  0.44537  0.18836  1.0000
  C   C11       1.0  0.99956  0.70599  0.72091  1.0000
  C   C12       1.0  0.00043  0.29402  0.27909  1.0000
  C   C13       1.0  0.03845  0.84724  0.73148  1.0000
  C   C14       1.0  0.96155  0.15277  0.26852  1.0000
  C   C15       1.0  0.36771  0.53615  0.13053  1.0000
  C   C16       1.0  0.63229  0.46385  0.86946  1.0000
  C   C17       1.0  0.47973  0.50424  0.24103  1.0000
  C   C18       1.0  0.52028  0.49576  0.75897  1.0000
  C   C19       1.0  0.51898  0.33728  0.33028  1.0000
  C   C20       1.0  0.48102  0.66271  0.66973  1.0000
  C   C21       1.0  0.62959  0.29280  0.43498  1.0000
  C   C22       1.0  0.37042  0.70719  0.56502  1.0000
  C   C23       1.0  0.69843  0.41731  0.45356  1.0000
  C   C24       1.0  0.30157  0.58268  0.54645  1.0000
  C   C25       1.0  0.65991  0.58335  0.37011  1.0000
  C   C26       1.0  0.34009  0.41665  0.62989  1.0000
  C   C27       1.0  0.55246  0.62594  0.26280  1.0000
  C   C28       1.0  0.44753  0.37406  0.73720  1.0000
  S   S1        1.0  0.18854  0.02399  0.83851  1.0000
  S   S2        1.0  0.81147  0.97602  0.16149  1.0000
  I   I1        1.0  0.36079  0.06169  0.16129  1.0000
  I   I2        1.0  0.63921  0.93831  0.83871  1.0000
  N   N1        1.0  0.31857  0.67912  0.03345  1.0000
  N   N2        1.0  0.68143  0.32089  0.96654  1.0000
  N   N3        1.0  0.81718  0.37239  0.56112  1.0000
  N   N4        1.0  0.18282  0.62760  0.43888  1.0000
  O   O1        1.0  0.87859  0.23078  0.60684  1.0000
  O   O2        1.0  0.12141  0.76921  0.39316  1.0000
  O   O3        1.0  0.85105  0.47709  0.60237  1.0000
  O   O4        1.0  0.14894  0.52290  0.39763  1.0000
