data_image0
_chemical_formula_structural       Cu2H24C30S4I2N2
_chemical_formula_sum              "Cu2 H24 C30 S4 I2 N2"
_cell_length_a       6.7673
_cell_length_b       8.87014
_cell_length_c       12.1283
_cell_angle_alpha    83.2504
_cell_angle_beta     88.9655
_cell_angle_gamma    88.6448

_space_group_name_H-M_alt    "P 1"
_space_group_IT_number       1

loop_
  _space_group_symop_operation_xyz
  'x, y, z'

loop_
  _atom_site_type_symbol
  _atom_site_label
  _atom_site_symmetry_multiplicity
  _atom_site_fract_x
  _atom_site_fract_y
  _atom_site_fract_z
  _atom_site_occupancy
  Cu  Cu1       1.0  0.40539  0.40610  0.93923  1.0000
  Cu  Cu2       1.0  0.59461  0.59391  0.06077  1.0000
  H   H1        1.0  0.03511  0.48812  0.78699  1.0000
  H   H2        1.0  0.96489  0.51188  0.21300  1.0000
  H   H3        1.0  0.14260  0.66316  0.73542  1.0000
  H   H4        1.0  0.85741  0.33683  0.26456  1.0000
  H   H5        1.0  0.85808  0.34802  0.66646  1.0000
  H   H6        1.0  0.14195  0.65197  0.33353  1.0000
  H   H7        1.0  0.25083  0.69398  0.52088  1.0000
  H   H8        1.0  0.74921  0.30601  0.47911  1.0000
  H   H9        1.0  0.26640  0.91740  0.84173  1.0000
  H   H10       1.0  0.73358  0.08260  0.15828  1.0000
  H   H11       1.0  0.28342  0.86842  0.64909  1.0000
  H   H12       1.0  0.71654  0.13157  0.35093  1.0000
  H   H13       1.0  0.35058  0.07620  0.49743  1.0000
  H   H14       1.0  0.64940  0.92378  0.50258  1.0000
  H   H15       1.0  0.40020  0.33919  0.54505  1.0000
  H   H16       1.0  0.59981  0.66079  0.45495  1.0000
  H   H17       1.0  0.23016  0.97363  0.97913  1.0000
  H   H18       1.0  0.76984  0.02638  0.02088  1.0000
  H   H19       1.0  0.25870  0.24959  0.36992  1.0000
  H   H20       1.0  0.74131  0.75042  0.63009  1.0000
  H   H21       1.0  0.15335  0.96041  0.37705  1.0000
  H   H22       1.0  0.84663  0.03960  0.62295  1.0000
  H   H23       1.0  0.16099  0.87466  0.17506  1.0000
  H   H24       1.0  0.83898  0.12536  0.82494  1.0000
  C   C1        1.0  0.13142  0.54366  0.72127  1.0000
  C   C2        1.0  0.86859  0.45634  0.27872  1.0000
  C   C3        1.0  0.06151  0.52455  0.60752  1.0000
  C   C4        1.0  0.93852  0.47544  0.39246  1.0000
  C   C5        1.0  0.92089  0.41477  0.59337  1.0000
  C   C6        1.0  0.07916  0.58523  0.40661  1.0000
  C   C7        1.0  0.13942  0.60927  0.51233  1.0000
  C   C8        1.0  0.86061  0.39072  0.48765  1.0000
  C   C9        1.0  0.35654  0.27761  0.72017  1.0000
  C   C10       1.0  0.64346  0.72239  0.27983  1.0000
  C   C11       1.0  0.31789  0.16042  0.80732  1.0000
  C   C12       1.0  0.68211  0.83958  0.19268  1.0000
  C   C13       1.0  0.29319  0.01281  0.77838  1.0000
  C   C14       1.0  0.70679  0.98719  0.22163  1.0000
  C   C15       1.0  0.30362  0.98386  0.66842  1.0000
  C   C16       1.0  0.69636  0.01613  0.33159  1.0000
  C   C17       1.0  0.34055  0.10010  0.58324  1.0000
  C   C18       1.0  0.65943  0.89989  0.41676  1.0000
  C   C19       1.0  0.36928  0.24623  0.60972  1.0000
  C   C20       1.0  0.63073  0.75375  0.39029  1.0000
  C   C21       1.0  0.26224  0.08877  0.99757  1.0000
  C   C22       1.0  0.73774  0.91124  0.00243  1.0000
  C   C23       1.0  0.25055  0.10402  0.11272  1.0000
  C   C24       1.0  0.74943  0.89599  0.88729  1.0000
  C   C25       1.0  0.24886  0.18307  0.30061  1.0000
  C   C26       1.0  0.75116  0.81694  0.69940  1.0000
  C   C27       1.0  0.19415  0.03335  0.30202  1.0000
  C   C28       1.0  0.80584  0.96666  0.69798  1.0000
  C   C29       1.0  0.19607  0.98762  0.19491  1.0000
  C   C30       1.0  0.80390  0.01240  0.80510  1.0000
  S   S1        1.0  0.38629  0.46777  0.74671  1.0000
  S   S2        1.0  0.61373  0.53222  0.25329  1.0000
  S   S3        1.0  0.30211  0.26836  0.17015  1.0000
  S   S4        1.0  0.69790  0.73165  0.82986  1.0000
  I   I1        1.0  0.22055  0.64006  0.01283  1.0000
  I   I2        1.0  0.77945  0.35995  0.98717  1.0000
  N   N1        1.0  0.30799  0.19624  0.91824  1.0000
  N   N2        1.0  0.69200  0.80377  0.08176  1.0000
