data_image0
_chemical_formula_structural       Ag4H16C28S8N4O8
_chemical_formula_sum              "Ag4 H16 C28 S8 N4 O8"
_cell_length_a       8.10491
_cell_length_b       8.08982
_cell_length_c       12.7546
_cell_angle_alpha    100.085
_cell_angle_beta     90.0007
_cell_angle_gamma    89.9995

_space_group_name_H-M_alt    "P 1"
_space_group_IT_number       1

loop_
  _space_group_symop_operation_xyz
  'x, y, z'

loop_
  _atom_site_type_symbol
  _atom_site_label
  _atom_site_symmetry_multiplicity
  _atom_site_fract_x
  _atom_site_fract_y
  _atom_site_fract_z
  _atom_site_occupancy
  Ag  Ag1       1.0  0.14706  0.59148  0.53854  1.0000
  Ag  Ag2       1.0  0.64706  0.90852  0.46147  1.0000
  Ag  Ag3       1.0  0.85294  0.40852  0.46146  1.0000
  Ag  Ag4       1.0  0.35294  0.09148  0.53854  1.0000
  H   H1        1.0  0.49095  0.82576  0.72387  1.0000
  H   H2        1.0  0.99095  0.67423  0.27614  1.0000
  H   H3        1.0  0.50905  0.17424  0.27613  1.0000
  H   H4        1.0  0.00905  0.32576  0.72387  1.0000
  H   H5        1.0  0.41991  0.03375  0.88503  1.0000
  H   H6        1.0  0.91991  0.46625  0.11497  1.0000
  H   H7        1.0  0.58009  0.96626  0.11497  1.0000
  H   H8        1.0  0.08009  0.53375  0.88503  1.0000
  H   H9        1.0  0.64130  0.18195  0.00108  1.0000
  H   H10       1.0  0.14129  0.31805  0.99892  1.0000
  H   H11       1.0  0.35870  0.81805  0.99892  1.0000
  H   H12       1.0  0.85870  0.68195  0.00108  1.0000
  H   H13       1.0  0.93592  0.13221  0.95389  1.0000
  H   H14       1.0  0.43592  0.36780  0.04610  1.0000
  H   H15       1.0  0.06408  0.86778  0.04611  1.0000
  H   H16       1.0  0.56408  0.63221  0.95389  1.0000
  C   C1        1.0  0.82675  0.74873  0.65651  1.0000
  C   C2        1.0  0.32675  0.75126  0.34349  1.0000
  C   C3        1.0  0.17325  0.25127  0.34349  1.0000
  C   C4        1.0  0.67325  0.24873  0.65651  1.0000
  C   C5        1.0  0.75333  0.86710  0.74615  1.0000
  C   C6        1.0  0.25333  0.63290  0.25385  1.0000
  C   C7        1.0  0.24667  0.13291  0.25385  1.0000
  C   C8        1.0  0.74667  0.36710  0.74615  1.0000
  C   C9        1.0  0.58751  0.89464  0.77259  1.0000
  C   C10       1.0  0.08751  0.60535  0.22741  1.0000
  C   C11       1.0  0.41249  0.10536  0.22741  1.0000
  C   C12       1.0  0.91249  0.39465  0.77259  1.0000
  C   C13       1.0  0.54883  0.00984  0.86432  1.0000
  C   C14       1.0  0.04883  0.49016  0.13568  1.0000
  C   C15       1.0  0.45117  0.99016  0.13568  1.0000
  C   C16       1.0  0.95117  0.50984  0.86432  1.0000
  C   C17       1.0  0.67280  0.09467  0.92883  1.0000
  C   C18       1.0  0.17280  0.40534  0.07117  1.0000
  C   C19       1.0  0.32719  0.90533  0.07118  1.0000
  C   C20       1.0  0.82720  0.59467  0.92883  1.0000
  C   C21       1.0  0.83961  0.06741  0.90317  1.0000
  C   C22       1.0  0.33960  0.43259  0.09683  1.0000
  C   C23       1.0  0.16040  0.93258  0.09684  1.0000
  C   C24       1.0  0.66040  0.56741  0.90317  1.0000
  C   C25       1.0  0.87525  0.95408  0.81135  1.0000
  C   C26       1.0  0.37525  0.54593  0.18864  1.0000
  C   C27       1.0  0.12474  0.04592  0.18864  1.0000
  C   C28       1.0  0.62475  0.45408  0.81135  1.0000
  S   S1        1.0  0.70375  0.64169  0.55974  1.0000
  S   S2        1.0  0.20376  0.85831  0.44026  1.0000
  S   S3        1.0  0.29624  0.35831  0.44026  1.0000
  S   S4        1.0  0.79624  0.14169  0.55974  1.0000
  S   S5        1.0  0.06967  0.88854  0.75709  1.0000
  S   S6        1.0  0.56967  0.61145  0.24291  1.0000
  S   S7        1.0  0.93033  0.11146  0.24291  1.0000
  S   S8        1.0  0.43033  0.38856  0.75708  1.0000
  N   N1        1.0  0.99064  0.74139  0.65881  1.0000
  N   N2        1.0  0.49064  0.75861  0.34119  1.0000
  N   N3        1.0  0.00936  0.25861  0.34119  1.0000
  N   N4        1.0  0.50936  0.24138  0.65881  1.0000
  O   O1        1.0  0.16671  0.81265  0.83105  1.0000
  O   O2        1.0  0.66672  0.68735  0.16895  1.0000
  O   O3        1.0  0.83329  0.18735  0.16895  1.0000
  O   O4        1.0  0.33328  0.31265  0.83105  1.0000
  O   O5        1.0  0.14883  0.01622  0.70808  1.0000
  O   O6        1.0  0.64883  0.48378  0.29192  1.0000
  O   O7        1.0  0.85116  0.98378  0.29193  1.0000
  O   O8        1.0  0.35117  0.51621  0.70807  1.0000
