data_image0
_chemical_formula_structural       Ag6H60C30S6I6N12
_chemical_formula_sum              "Ag6 H60 C30 S6 I6 N12"
_cell_length_a       8.57403
_cell_length_b       13.1517
_cell_length_c       13.7726
_cell_angle_alpha    111.375
_cell_angle_beta     107.886
_cell_angle_gamma    90.0438

_space_group_name_H-M_alt    "P 1"
_space_group_IT_number       1

loop_
  _space_group_symop_operation_xyz
  'x, y, z'

loop_
  _atom_site_type_symbol
  _atom_site_label
  _atom_site_symmetry_multiplicity
  _atom_site_fract_x
  _atom_site_fract_y
  _atom_site_fract_z
  _atom_site_occupancy
  Ag  Ag1       1.0  0.41852  0.47007  0.56945  1.0000
  Ag  Ag2       1.0  0.58148  0.52993  0.43055  1.0000
  Ag  Ag3       1.0  0.44635  0.11548  0.43597  1.0000
  Ag  Ag4       1.0  0.55365  0.88452  0.56403  1.0000
  Ag  Ag5       1.0  0.66892  0.69172  0.77190  1.0000
  Ag  Ag6       1.0  0.33108  0.30828  0.22809  1.0000
  H   H1        1.0  0.09446  0.45038  0.20523  1.0000
  H   H2        1.0  0.90554  0.54962  0.79477  1.0000
  H   H3        1.0  0.81163  0.52753  0.19241  1.0000
  H   H4        1.0  0.18837  0.47247  0.80759  1.0000
  H   H5        1.0  0.94926  0.55896  0.13054  1.0000
  H   H6        1.0  0.05074  0.44104  0.86947  1.0000
  H   H7        1.0  0.05804  0.73790  0.29438  1.0000
  H   H8        1.0  0.94196  0.26210  0.70562  1.0000
  H   H9        1.0  0.84579  0.72300  0.22065  1.0000
  H   H10       1.0  0.15421  0.27700  0.77935  1.0000
  H   H11       1.0  0.78492  0.66281  0.36495  1.0000
  H   H12       1.0  0.21508  0.33719  0.63505  1.0000
  H   H13       1.0  0.87455  0.80080  0.41504  1.0000
  H   H14       1.0  0.12545  0.19920  0.58496  1.0000
  H   H15       1.0  0.15214  0.75177  0.48680  1.0000
  H   H16       1.0  0.84786  0.24823  0.51320  1.0000
  H   H17       1.0  0.01096  0.72511  0.54880  1.0000
  H   H18       1.0  0.98905  0.27489  0.45120  1.0000
  H   H19       1.0  0.12995  0.57222  0.52064  1.0000
  H   H20       1.0  0.87005  0.42778  0.47936  1.0000
  H   H21       1.0  0.54905  0.46010  0.77302  1.0000
  H   H22       1.0  0.45095  0.53990  0.22698  1.0000
  H   H23       1.0  0.67663  0.50073  0.95595  1.0000
  H   H24       1.0  0.32337  0.49927  0.04405  1.0000
  H   H25       1.0  0.79030  0.38934  0.92315  1.0000
  H   H26       1.0  0.20970  0.61066  0.07685  1.0000
  H   H27       1.0  0.44950  0.38265  0.95215  1.0000
  H   H28       1.0  0.55051  0.61735  0.04785  1.0000
  H   H29       1.0  0.63629  0.35391  0.02980  1.0000
  H   H30       1.0  0.36371  0.64609  0.97020  1.0000
  H   H31       1.0  0.49984  0.17527  0.91280  1.0000
  H   H32       1.0  0.50016  0.82473  0.08720  1.0000
  H   H33       1.0  0.40090  0.21237  0.80071  1.0000
  H   H34       1.0  0.59910  0.78763  0.19929  1.0000
  H   H35       1.0  0.77447  0.20197  0.87609  1.0000
  H   H36       1.0  0.22553  0.79803  0.12391  1.0000
  H   H37       1.0  0.62629  0.08932  0.77699  1.0000
  H   H38       1.0  0.37371  0.91068  0.22301  1.0000
  H   H39       1.0  0.65700  0.15254  0.65409  1.0000
  H   H40       1.0  0.34299  0.84746  0.34591  1.0000
  H   H41       1.0  0.07755  0.11744  0.07716  1.0000
  H   H42       1.0  0.92245  0.88256  0.92284  1.0000
  H   H43       1.0  0.81745  0.13709  0.01878  1.0000
  H   H44       1.0  0.18255  0.86291  0.98122  1.0000
  H   H45       1.0  0.85891  0.21112  0.16188  1.0000
  H   H46       1.0  0.14108  0.78888  0.83812  1.0000
  H   H47       1.0  0.59562  0.08945  0.07399  1.0000
  H   H48       1.0  0.40438  0.91055  0.92601  1.0000
  H   H49       1.0  0.69657  0.97150  0.03221  1.0000
  H   H50       1.0  0.30343  0.02850  0.96779  1.0000
  H   H51       1.0  0.62913  0.99777  0.20483  1.0000
  H   H52       1.0  0.37087  0.00223  0.79516  1.0000
  H   H53       1.0  0.75070  0.12723  0.27287  1.0000
  H   H54       1.0  0.24929  0.87277  0.72713  1.0000
  H   H55       1.0  0.88932  0.96797  0.31183  1.0000
  H   H56       1.0  0.11067  0.03203  0.68817  1.0000
  H   H57       1.0  0.88057  0.90948  0.17112  1.0000
  H   H58       1.0  0.11943  0.09051  0.82888  1.0000
  H   H59       1.0  0.13244  0.05193  0.34494  1.0000
  H   H60       1.0  0.86755  0.94807  0.65506  1.0000
  C   C1        1.0  0.10696  0.51281  0.36246  1.0000
  C   C2        1.0  0.89304  0.48719  0.63754  1.0000
  C   C3        1.0  0.93361  0.57095  0.21006  1.0000
  C   C4        1.0  0.06639  0.42905  0.78995  1.0000
  C   C5        1.0  0.93761  0.69254  0.27566  1.0000
  C   C6        1.0  0.06239  0.30746  0.72434  1.0000
  C   C7        1.0  0.89834  0.71489  0.38160  1.0000
  C   C8        1.0  0.10166  0.28511  0.61840  1.0000
  C   C9        1.0  0.03937  0.69953  0.47144  1.0000
  C   C10       1.0  0.96063  0.30047  0.52856  1.0000
  C   C11       1.0  0.60054  0.30556  0.70847  1.0000
  C   C12       1.0  0.39946  0.69445  0.29153  1.0000
  C   C13       1.0  0.66380  0.41185  0.90899  1.0000
  C   C14       1.0  0.33620  0.58815  0.09100  1.0000
  C   C15       1.0  0.56343  0.34671  0.94590  1.0000
  C   C16       1.0  0.43657  0.65329  0.05410  1.0000
  C   C17       1.0  0.51887  0.22504  0.86732  1.0000
  C   C18       1.0  0.48113  0.77496  0.13268  1.0000
  C   C19       1.0  0.64939  0.17969  0.81432  1.0000
  C   C20       1.0  0.35061  0.82031  0.18567  1.0000
  C   C21       1.0  0.11008  0.08445  0.21086  1.0000
  C   C22       1.0  0.88992  0.91555  0.78914  1.0000
  C   C23       1.0  0.84784  0.12814  0.09841  1.0000
  C   C24       1.0  0.15215  0.87186  0.90159  1.0000
  C   C25       1.0  0.71067  0.05393  0.09711  1.0000
  C   C26       1.0  0.28933  0.94607  0.90288  1.0000
  C   C27       1.0  0.73765  0.04501  0.20810  1.0000
  C   C28       1.0  0.26235  0.95499  0.79190  1.0000
  C   C29       1.0  0.88731  0.98753  0.24051  1.0000
  C   C30       1.0  0.11268  0.01247  0.75949  1.0000
  S   S1        1.0  0.20754  0.40251  0.38091  1.0000
  S   S2        1.0  0.79246  0.59749  0.61909  1.0000
  S   S3        1.0  0.55956  0.30894  0.57878  1.0000
  S   S4        1.0  0.44044  0.69106  0.42122  1.0000
  S   S5        1.0  0.32158  0.11625  0.24685  1.0000
  S   S6        1.0  0.67842  0.88375  0.75315  1.0000
  I   I1        1.0  0.33491  0.62935  0.73424  1.0000
  I   I2        1.0  0.66509  0.37065  0.26576  1.0000
  I   I3        1.0  0.73579  0.00287  0.48476  1.0000
  I   I4        1.0  0.26422  0.99713  0.51524  1.0000
  I   I5        1.0  0.87476  0.70317  0.97938  1.0000
  I   I6        1.0  0.12525  0.29684  0.02062  1.0000
  N   N1        1.0  0.06061  0.51458  0.26129  1.0000
  N   N2        1.0  0.93938  0.48542  0.73871  1.0000
  N   N3        1.0  0.07790  0.58641  0.44992  1.0000
  N   N4        1.0  0.92210  0.41359  0.55009  1.0000
  N   N5        1.0  0.59069  0.39488  0.79233  1.0000
  N   N6        1.0  0.40931  0.60512  0.20767  1.0000
  N   N7        1.0  0.64644  0.21351  0.72299  1.0000
  N   N8        1.0  0.35356  0.78649  0.27701  1.0000
  N   N9        1.0  0.01233  0.09110  0.11645  1.0000
  N   N10       1.0  0.98767  0.90890  0.88355  1.0000
  N   N11       1.0  0.04721  0.05253  0.27414  1.0000
  N   N12       1.0  0.95279  0.94747  0.72586  1.0000
