data_image0
_chemical_formula_structural       Ag8H48W4C24S24N16
_chemical_formula_sum              "Ag8 H48 W4 C24 S24 N16"
_cell_length_a       6.24604
_cell_length_b       13.2604
_cell_length_c       18.8244
_cell_angle_alpha    90
_cell_angle_beta     90
_cell_angle_gamma    92.3023

_space_group_name_H-M_alt    "P 1"
_space_group_IT_number       1

loop_
  _space_group_symop_operation_xyz
  'x, y, z'

loop_
  _atom_site_type_symbol
  _atom_site_label
  _atom_site_symmetry_multiplicity
  _atom_site_fract_x
  _atom_site_fract_y
  _atom_site_fract_z
  _atom_site_occupancy
  Ag  Ag1       1.0  0.99547  0.42711  0.24999  1.0000
  Ag  Ag2       1.0  0.00452  0.57292  0.74999  1.0000
  Ag  Ag3       1.0  0.50639  0.84691  0.36122  1.0000
  Ag  Ag4       1.0  0.49339  0.15281  0.86130  1.0000
  Ag  Ag5       1.0  0.49385  0.15330  0.63882  1.0000
  Ag  Ag6       1.0  0.50636  0.84693  0.13875  1.0000
  Ag  Ag7       1.0  0.93530  0.75633  0.24999  1.0000
  Ag  Ag8       1.0  0.06459  0.24366  0.75034  1.0000
  H   H1        1.0  0.13525  0.28886  0.50620  1.0000
  H   H2        1.0  0.86476  0.71110  0.00621  1.0000
  H   H3        1.0  0.86484  0.71114  0.49378  1.0000
  H   H4        1.0  0.13515  0.28891  0.99375  1.0000
  H   H5        1.0  0.74230  0.45798  0.38736  1.0000
  H   H6        1.0  0.25784  0.54208  0.88736  1.0000
  H   H7        1.0  0.25776  0.54199  0.61261  1.0000
  H   H8        1.0  0.74213  0.45796  0.11261  1.0000
  H   H9        1.0  0.61361  0.76063  0.61798  1.0000
  H   H10       1.0  0.38626  0.23937  0.11802  1.0000
  H   H11       1.0  0.38643  0.23934  0.38203  1.0000
  H   H12       1.0  0.61368  0.76065  0.88197  1.0000
  H   H13       1.0  0.26702  0.95244  0.50103  1.0000
  H   H14       1.0  0.73292  0.04762  0.00104  1.0000
  H   H15       1.0  0.73320  0.04762  0.49899  1.0000
  H   H16       1.0  0.26689  0.95232  0.99898  1.0000
  H   H17       1.0  0.87303  0.37837  0.59568  1.0000
  H   H18       1.0  0.12704  0.62163  0.09571  1.0000
  H   H19       1.0  0.12710  0.62165  0.40430  1.0000
  H   H20       1.0  0.87284  0.37837  0.90427  1.0000
  H   H21       1.0  0.75755  0.27211  0.55014  1.0000
  H   H22       1.0  0.24243  0.72790  0.05015  1.0000
  H   H23       1.0  0.24257  0.72790  0.44985  1.0000
  H   H24       1.0  0.75742  0.27209  0.94984  1.0000
  H   H25       1.0  0.52365  0.38833  0.49738  1.0000
  H   H26       1.0  0.47642  0.61170  0.99740  1.0000
  H   H27       1.0  0.47643  0.61165  0.50260  1.0000
  H   H28       1.0  0.52350  0.38833  0.00258  1.0000
  H   H29       1.0  0.69550  0.49400  0.52141  1.0000
  H   H30       1.0  0.30457  0.50602  0.02142  1.0000
  H   H31       1.0  0.30456  0.50600  0.47857  1.0000
  H   H32       1.0  0.69535  0.49398  0.97856  1.0000
  H   H33       1.0  0.35822  0.86629  0.69853  1.0000
  H   H34       1.0  0.64175  0.13375  0.19857  1.0000
  H   H35       1.0  0.64184  0.13371  0.30149  1.0000
  H   H36       1.0  0.35817  0.86627  0.80144  1.0000
  H   H37       1.0  0.22709  0.75299  0.66648  1.0000
  H   H38       1.0  0.77280  0.24709  0.16649  1.0000
  H   H39       1.0  0.77292  0.24702  0.33352  1.0000
  H   H40       1.0  0.22715  0.75290  0.83350  1.0000
  H   H41       1.0  0.00463  0.85313  0.59374  1.0000
  H   H42       1.0  0.99526  0.14695  0.09375  1.0000
  H   H43       1.0  0.99550  0.14692  0.40624  1.0000
  H   H44       1.0  0.00461  0.85301  0.90623  1.0000
  H   H45       1.0  0.14387  0.96452  0.62420  1.0000
  H   H46       1.0  0.85614  0.03557  0.12422  1.0000
  H   H47       1.0  0.85626  0.03551  0.37581  1.0000
  H   H48       1.0  0.14372  0.96441  0.87580  1.0000
  W   W1        1.0  0.54044  0.59191  0.24999  1.0000
  W   W2        1.0  0.45955  0.40809  0.74996  1.0000
  W   W3        1.0  0.25293  0.94438  0.24999  1.0000
  W   W4        1.0  0.74710  0.05562  0.75004  1.0000
  C   C1        1.0  0.98491  0.37588  0.43161  1.0000
  C   C2        1.0  0.01512  0.62412  0.93163  1.0000
  C   C3        1.0  0.01516  0.62414  0.56836  1.0000
  C   C4        1.0  0.98476  0.37589  0.06835  1.0000
  C   C5        1.0  0.83293  0.34774  0.54300  1.0000
  C   C6        1.0  0.16712  0.65224  0.04302  1.0000
  C   C7        1.0  0.16720  0.65226  0.45698  1.0000
  C   C8        1.0  0.83277  0.34773  0.95695  1.0000
  C   C9        1.0  0.69063  0.41706  0.49965  1.0000
  C   C10       1.0  0.30946  0.58295  0.99966  1.0000
  C   C11       1.0  0.30946  0.58293  0.50033  1.0000
  C   C12       1.0  0.69050  0.41704  0.00032  1.0000
  C   C13       1.0  0.47765  0.85260  0.54236  1.0000
  C   C14       1.0  0.52222  0.14742  0.04240  1.0000
  C   C15       1.0  0.52251  0.14743  0.45766  1.0000
  C   C16       1.0  0.47765  0.85256  0.95761  1.0000
  C   C17       1.0  0.30693  0.82475  0.65066  1.0000
  C   C18       1.0  0.69299  0.17531  0.15069  1.0000
  C   C19       1.0  0.69315  0.17526  0.34934  1.0000
  C   C20       1.0  0.30692  0.82469  0.84930  1.0000
  C   C21       1.0  0.16429  0.88853  0.60253  1.0000
  C   C22       1.0  0.83561  0.11155  0.10255  1.0000
  C   C23       1.0  0.83584  0.11150  0.39747  1.0000
  C   C24       1.0  0.16427  0.88842  0.89746  1.0000
  S   S1        1.0  0.16398  0.36945  0.36392  1.0000
  S   S2        1.0  0.83605  0.63052  0.86394  1.0000
  S   S3        1.0  0.83607  0.63053  0.63605  1.0000
  S   S4        1.0  0.16387  0.36951  0.13603  1.0000
  S   S5        1.0  0.67944  0.85716  0.48066  1.0000
  S   S6        1.0  0.32036  0.14281  0.98073  1.0000
  S   S7        1.0  0.32075  0.14286  0.51936  1.0000
  S   S8        1.0  0.67942  0.85716  0.01931  1.0000
  S   S9        1.0  0.59678  0.42820  0.24998  1.0000
  S   S10       1.0  0.40320  0.57180  0.75002  1.0000
  S   S11       1.0  0.19332  0.60629  0.25000  1.0000
  S   S12       1.0  0.80667  0.39372  0.74999  1.0000
  S   S13       1.0  0.66931  0.66201  0.34930  1.0000
  S   S14       1.0  0.33065  0.33787  0.84924  1.0000
  S   S15       1.0  0.33081  0.33809  0.65063  1.0000
  S   S16       1.0  0.66925  0.66201  0.15068  1.0000
  S   S17       1.0  0.61635  0.94299  0.24998  1.0000
  S   S18       1.0  0.38367  0.05700  0.74997  1.0000
  S   S19       1.0  0.11222  0.87571  0.34980  1.0000
  S   S20       1.0  0.88758  0.12411  0.84994  1.0000
  S   S21       1.0  0.88803  0.12444  0.65032  1.0000
  S   S22       1.0  0.11219  0.87573  0.15018  1.0000
  S   S23       1.0  0.17530  0.10122  0.25000  1.0000
  S   S24       1.0  0.82478  0.89878  0.74996  1.0000
  N   N1        1.0  0.02350  0.34237  0.49787  1.0000
  N   N2        1.0  0.97651  0.65759  0.99789  1.0000
  N   N3        1.0  0.97659  0.65762  0.50210  1.0000
  N   N4        1.0  0.02340  0.34242  0.00208  1.0000
  N   N5        1.0  0.79085  0.41589  0.42926  1.0000
  N   N6        1.0  0.20922  0.58413  0.92927  1.0000
  N   N7        1.0  0.20925  0.58412  0.57073  1.0000
  N   N8        1.0  0.79071  0.41588  0.07071  1.0000
  N   N9        1.0  0.49257  0.80781  0.60544  1.0000
  N   N10       1.0  0.50731  0.19219  0.10548  1.0000
  N   N11       1.0  0.50751  0.19218  0.39457  1.0000
  N   N12       1.0  0.49261  0.80781  0.89452  1.0000
  N   N13       1.0  0.28600  0.89451  0.53569  1.0000
  N   N14       1.0  0.71386  0.10551  0.03572  1.0000
  N   N15       1.0  0.71419  0.10553  0.46433  1.0000
  N   N16       1.0  0.28599  0.89443  0.96430  1.0000
