data_image0
_chemical_formula_structural       K2Ag2H20C28S4N4O14
_chemical_formula_sum              "K2 Ag2 H20 C28 S4 N4 O14"
_cell_length_a       7.39641
_cell_length_b       9.56047
_cell_length_c       13.5816
_cell_angle_alpha    87.4924
_cell_angle_beta     73.9249
_cell_angle_gamma    68.4714

_space_group_name_H-M_alt    "P 1"
_space_group_IT_number       1

loop_
  _space_group_symop_operation_xyz
  'x, y, z'

loop_
  _atom_site_type_symbol
  _atom_site_label
  _atom_site_symmetry_multiplicity
  _atom_site_fract_x
  _atom_site_fract_y
  _atom_site_fract_z
  _atom_site_occupancy
  K   K1        1.0  0.19369  0.27088  0.42289  1.0000
  K   K2        1.0  0.80632  0.72912  0.57711  1.0000
  Ag  Ag1       1.0  0.29141  0.81802  0.55000  1.0000
  Ag  Ag2       1.0  0.70858  0.18197  0.45000  1.0000
  H   H1        1.0  0.59551  0.25984  0.21768  1.0000
  H   H2        1.0  0.40450  0.74016  0.78232  1.0000
  H   H3        1.0  0.40213  0.23325  0.21077  1.0000
  H   H4        1.0  0.59788  0.76675  0.78923  1.0000
  H   H5        1.0  0.67990  0.40965  0.72482  1.0000
  H   H6        1.0  0.32011  0.59035  0.27517  1.0000
  H   H7        1.0  0.03934  0.42592  0.16620  1.0000
  H   H8        1.0  0.96068  0.57408  0.83379  1.0000
  H   H9        1.0  0.44228  0.49232  0.89804  1.0000
  H   H10       1.0  0.55772  0.50768  0.10196  1.0000
  H   H11       1.0  0.13766  0.56469  0.01225  1.0000
  H   H12       1.0  0.86234  0.43532  0.98775  1.0000
  H   H13       1.0  0.97251  0.83901  0.01202  1.0000
  H   H14       1.0  0.02749  0.16100  0.98798  1.0000
  H   H15       1.0  0.69415  0.98607  0.16690  1.0000
  H   H16       1.0  0.30585  0.01393  0.83311  1.0000
  H   H17       1.0  0.42161  0.30843  0.03286  1.0000
  H   H18       1.0  0.57839  0.69157  0.96714  1.0000
  H   H19       1.0  0.64430  0.03627  0.99425  1.0000
  H   H20       1.0  0.35570  0.96374  0.00575  1.0000
  C   C1        1.0  0.79461  0.17663  0.76165  1.0000
  C   C2        1.0  0.20539  0.82337  0.23835  1.0000
  C   C3        1.0  0.78262  0.07482  0.83784  1.0000
  C   C4        1.0  0.21739  0.92518  0.16216  1.0000
  C   C5        1.0  0.81110  0.63130  0.24911  1.0000
  C   C6        1.0  0.18890  0.36870  0.75089  1.0000
  C   C7        1.0  0.67230  0.32825  0.78279  1.0000
  C   C8        1.0  0.32769  0.67176  0.21721  1.0000
  C   C9        1.0  0.71371  0.78703  0.25003  1.0000
  C   C10       1.0  0.28628  0.21297  0.74998  1.0000
  C   C11       1.0  0.96401  0.54719  0.16517  1.0000
  C   C12       1.0  0.03599  0.45281  0.83483  1.0000
  C   C13       1.0  0.53776  0.37353  0.88109  1.0000
  C   C14       1.0  0.46225  0.62647  0.11890  1.0000
  C   C15       1.0  0.94927  0.10199  0.66357  1.0000
  C   C16       1.0  0.05072  0.89802  0.33643  1.0000
  C   C17       1.0  0.01829  0.62619  0.07987  1.0000
  C   C18       1.0  0.98171  0.37382  0.92013  1.0000
  C   C19       1.0  0.92276  0.78234  0.07950  1.0000
  C   C20       1.0  0.07723  0.21767  0.92051  1.0000
  C   C21       1.0  0.76834  0.86430  0.16489  1.0000
  C   C22       1.0  0.23165  0.13570  0.83512  1.0000
  C   C23       1.0  0.55470  0.85137  0.34823  1.0000
  C   C24       1.0  0.44530  0.14862  0.65177  1.0000
  C   C25       1.0  0.52645  0.27023  0.95653  1.0000
  C   C26       1.0  0.47355  0.72977  0.04347  1.0000
  C   C27       1.0  0.65099  0.11740  0.93582  1.0000
  C   C28       1.0  0.34901  0.88260  0.06418  1.0000
  S   S1        1.0  0.70330  0.57267  0.36983  1.0000
  S   S2        1.0  0.29671  0.42733  0.63017  1.0000
  S   S3        1.0  0.95909  0.89497  0.78421  1.0000
  S   S4        1.0  0.04091  0.10503  0.21578  1.0000
  N   N1        1.0  0.04454  0.94948  0.67133  1.0000
  N   N2        1.0  0.95546  0.05052  0.32866  1.0000
  N   N3        1.0  0.53995  0.74248  0.41627  1.0000
  N   N4        1.0  0.46005  0.25751  0.58373  1.0000
  O   O1        1.0  0.60330  0.47117  0.35953  1.0000
  O   O2        1.0  0.39671  0.52883  0.64046  1.0000
  O   O3        1.0  0.11663  0.83504  0.83665  1.0000
  O   O4        1.0  0.88336  0.16496  0.16335  1.0000
  O   O5        1.0  0.85361  0.79444  0.77804  1.0000
  O   O6        1.0  0.14640  0.20556  0.22195  1.0000
  O   O7        1.0  0.85211  0.51812  0.42806  1.0000
  O   O8        1.0  0.14789  0.48188  0.57195  1.0000
  O   O9        1.0  0.98902  0.16843  0.58497  1.0000
  O   O10       1.0  0.01097  0.83157  0.41503  1.0000
  O   O11       1.0  0.44644  0.98710  0.36637  1.0000
  O   O12       1.0  0.55355  0.01290  0.63364  1.0000
  O   O13       1.0  0.44785  0.30714  0.23279  1.0000
  O   O14       1.0  0.55216  0.69286  0.76721  1.0000
