data_image0
_chemical_formula_structural       Na4H16C4N16Cl4O8
_chemical_formula_sum              "Na4 H16 C4 N16 Cl4 O8"
_cell_length_a       6.8764
_cell_length_b       6.82315
_cell_length_c       12.2174
_cell_angle_alpha    89.9984
_cell_angle_beta     90.0005
_cell_angle_gamma    89.9998

_space_group_name_H-M_alt    "P 1"
_space_group_IT_number       1

loop_
  _space_group_symop_operation_xyz
  'x, y, z'

loop_
  _atom_site_type_symbol
  _atom_site_label
  _atom_site_symmetry_multiplicity
  _atom_site_fract_x
  _atom_site_fract_y
  _atom_site_fract_z
  _atom_site_occupancy
  Na  Na1       1.0  0.87049  0.75001  0.71907  1.0000
  Na  Na2       1.0  0.62952  0.25001  0.21906  1.0000
  Na  Na3       1.0  0.12952  0.25000  0.28093  1.0000
  Na  Na4       1.0  0.37048  0.74999  0.78094  1.0000
  H   H1        1.0  0.67681  0.42750  0.83942  1.0000
  H   H2        1.0  0.82319  0.57251  0.33942  1.0000
  H   H3        1.0  0.32319  0.92749  0.16058  1.0000
  H   H4        1.0  0.17681  0.07251  0.66058  1.0000
  H   H5        1.0  0.32319  0.57250  0.16058  1.0000
  H   H6        1.0  0.17681  0.42749  0.66058  1.0000
  H   H7        1.0  0.67681  0.07251  0.83943  1.0000
  H   H8        1.0  0.82318  0.92749  0.33942  1.0000
  H   H9        1.0  0.58428  0.41621  0.72253  1.0000
  H   H10       1.0  0.91572  0.58379  0.22253  1.0000
  H   H11       1.0  0.41573  0.91621  0.27747  1.0000
  H   H12       1.0  0.08429  0.08379  0.77746  1.0000
  H   H13       1.0  0.41572  0.58379  0.27747  1.0000
  H   H14       1.0  0.08428  0.41621  0.77747  1.0000
  H   H15       1.0  0.58427  0.08378  0.72253  1.0000
  H   H16       1.0  0.91571  0.91621  0.22254  1.0000
  C   C1        1.0  0.37558  0.75000  0.48260  1.0000
  C   C2        1.0  0.12441  0.25000  0.98260  1.0000
  C   C3        1.0  0.62442  0.24999  0.51740  1.0000
  C   C4        1.0  0.87558  0.75002  0.01740  1.0000
  N   N1        1.0  0.49011  0.75000  0.39363  1.0000
  N   N2        1.0  0.00990  0.24999  0.89363  1.0000
  N   N3        1.0  0.50989  0.25001  0.60637  1.0000
  N   N4        1.0  0.99010  0.75000  0.10636  1.0000
  N   N5        1.0  0.67277  0.74999  0.43470  1.0000
  N   N6        1.0  0.82723  0.24999  0.93470  1.0000
  N   N7        1.0  0.32722  0.25001  0.56530  1.0000
  N   N8        1.0  0.17277  0.75001  0.06530  1.0000
  N   N9        1.0  0.66509  0.75000  0.54294  1.0000
  N   N10       1.0  0.83491  0.24999  0.04294  1.0000
  N   N11       1.0  0.33491  0.24999  0.45706  1.0000
  N   N12       1.0  0.16509  0.75000  0.95706  1.0000
  N   N13       1.0  0.47816  0.75000  0.57595  1.0000
  N   N14       1.0  0.02184  0.25000  0.07595  1.0000
  N   N15       1.0  0.52184  0.25000  0.42406  1.0000
  N   N16       1.0  0.97816  0.75000  0.92405  1.0000
  Cl  Cl1       1.0  0.12999  0.74999  0.47635  1.0000
  Cl  Cl2       1.0  0.37000  0.24999  0.97635  1.0000
  Cl  Cl3       1.0  0.87001  0.25000  0.52365  1.0000
  Cl  Cl4       1.0  0.63000  0.75001  0.02365  1.0000
  O   O1        1.0  0.62992  0.50985  0.77874  1.0000
  O   O2        1.0  0.87008  0.49017  0.27874  1.0000
  O   O3        1.0  0.37009  0.00984  0.22125  1.0000
  O   O4        1.0  0.12992  0.99015  0.72126  1.0000
  O   O5        1.0  0.37008  0.49015  0.22126  1.0000
  O   O6        1.0  0.12992  0.50983  0.72126  1.0000
  O   O7        1.0  0.62991  0.99016  0.77875  1.0000
  O   O8        1.0  0.87008  0.00985  0.27874  1.0000
