data_image0
_chemical_formula_structural       CdH16C6N14
_chemical_formula_sum              "Cd1 H16 C6 N14"
_cell_length_a       7.7459
_cell_length_b       7.87173
_cell_length_c       9.02375
_cell_angle_alpha    65.155
_cell_angle_beta     66.2874
_cell_angle_gamma    73.2473

_space_group_name_H-M_alt    "P 1"
_space_group_IT_number       1

loop_
  _space_group_symop_operation_xyz
  'x, y, z'

loop_
  _atom_site_type_symbol
  _atom_site_label
  _atom_site_symmetry_multiplicity
  _atom_site_fract_x
  _atom_site_fract_y
  _atom_site_fract_z
  _atom_site_occupancy
  Cd  Cd1       1.0  0.00001  1.00000  0.50000  1.0000
  H   H1        1.0  0.37578  0.93385  0.27783  1.0000
  H   H2        1.0  0.62423  0.06615  0.72215  1.0000
  H   H3        1.0  0.84660  0.24520  0.22769  1.0000
  H   H4        1.0  0.15339  0.75480  0.77232  1.0000
  H   H5        1.0  0.24415  0.79480  0.28493  1.0000
  H   H6        1.0  0.75585  0.20519  0.71506  1.0000
  H   H7        1.0  0.23455  0.31588  0.13913  1.0000
  H   H8        1.0  0.76545  0.68412  0.86087  1.0000
  H   H9        1.0  0.91565  0.38991  0.27745  1.0000
  H   H10       1.0  0.08435  0.61008  0.72256  1.0000
  H   H11       1.0  0.11579  0.01233  0.08410  1.0000
  H   H12       1.0  0.88419  0.98767  0.91592  1.0000
  H   H13       1.0  0.12036  0.35761  0.98852  1.0000
  H   H14       1.0  0.87963  0.64238  0.01149  1.0000
  H   H15       1.0  0.34745  0.07487  0.99260  1.0000
  H   H16       1.0  0.65253  0.92513  0.00740  1.0000
  C   C1        1.0  0.33026  0.16515  0.58642  1.0000
  C   C2        1.0  0.66974  0.83486  0.41358  1.0000
  C   C3        1.0  0.13514  0.26301  0.11480  1.0000
  C   C4        1.0  0.86485  0.73699  0.88520  1.0000
  C   C5        1.0  0.21769  0.06478  0.10587  1.0000
  C   C6        1.0  0.78230  0.93522  0.89413  1.0000
  N   N1        1.0  0.15971  0.17830  0.56976  1.0000
  N   N2        1.0  0.84029  0.82170  0.43024  1.0000
  N   N3        1.0  0.31944  0.28109  0.66670  1.0000
  N   N4        1.0  0.68057  0.71892  0.33327  1.0000
  N   N5        1.0  0.13961  0.36629  0.69874  1.0000
  N   N6        1.0  0.86040  0.63371  0.30125  1.0000
  N   N7        1.0  0.04273  0.30428  0.64162  1.0000
  N   N8        1.0  0.95727  0.69572  0.35839  1.0000
  N   N9        1.0  0.49992  0.05041  0.53995  1.0000
  N   N10       1.0  0.50008  0.94962  0.46003  1.0000
  N   N11       1.0  0.25020  0.93015  0.26772  1.0000
  N   N12       1.0  0.74980  0.06985  0.73228  1.0000
  N   N13       1.0  0.95357  0.26203  0.25709  1.0000
  N   N14       1.0  0.04643  0.73797  0.74292  1.0000
