data_image0
_chemical_formula_structural       CdH20C8N14
_chemical_formula_sum              "Cd1 H20 C8 N14"
_cell_length_a       7.15758
_cell_length_b       8.03697
_cell_length_c       8.24549
_cell_angle_alpha    61.461
_cell_angle_beta     65.7817
_cell_angle_gamma    74.5148

_space_group_name_H-M_alt    "P 1"
_space_group_IT_number       1

loop_
  _space_group_symop_operation_xyz
  'x, y, z'

loop_
  _atom_site_type_symbol
  _atom_site_label
  _atom_site_symmetry_multiplicity
  _atom_site_fract_x
  _atom_site_fract_y
  _atom_site_fract_z
  _atom_site_occupancy
  Cd  Cd1       1.0  1.00000  0.50000  0.50000  1.0000
  H   H1        1.0  0.52179  0.34009  0.42214  1.0000
  H   H2        1.0  0.47820  0.65991  0.57786  1.0000
  H   H3        1.0  0.64387  0.45495  0.16537  1.0000
  H   H4        1.0  0.35612  0.54505  0.83463  1.0000
  H   H5        1.0  0.31130  0.63272  0.14902  1.0000
  H   H6        1.0  0.68870  0.36728  0.85097  1.0000
  H   H7        1.0  0.31964  0.08038  0.56219  1.0000
  H   H8        1.0  0.68035  0.91962  0.43782  1.0000
  H   H9        1.0  0.39177  0.66681  0.28903  1.0000
  H   H10       1.0  0.60824  0.33319  0.71097  1.0000
  H   H11       1.0  0.29714  0.99156  0.41156  1.0000
  H   H12       1.0  0.70285  0.00844  0.58844  1.0000
  H   H13       1.0  0.37320  0.32726  0.12923  1.0000
  H   H14       1.0  0.62680  0.67274  0.87077  1.0000
  H   H15       1.0  0.97906  0.11027  0.59997  1.0000
  H   H16       1.0  0.02093  0.88973  0.40003  1.0000
  H   H17       1.0  0.01541  0.22109  0.36235  1.0000
  H   H18       1.0  0.98459  0.77891  0.63765  1.0000
  H   H19       1.0  0.57524  0.17065  0.20538  1.0000
  H   H20       1.0  0.42475  0.82935  0.79463  1.0000
  C   C1        1.0  0.73800  0.88074  0.01885  1.0000
  C   C2        1.0  0.26201  0.11927  0.98114  1.0000
  C   C3        1.0  0.49652  0.40520  0.28063  1.0000
  C   C4        1.0  0.50348  0.59480  0.71937  1.0000
  C   C5        1.0  0.43404  0.25659  0.25194  1.0000
  C   C6        1.0  0.56596  0.74340  0.74806  1.0000
  C   C7        1.0  0.28149  0.12170  0.43116  1.0000
  C   C8        1.0  0.71850  0.87830  0.56885  1.0000
  N   N1        1.0  0.93542  0.86616  0.90196  1.0000
  N   N2        1.0  0.06458  0.13385  0.09804  1.0000
  N   N3        1.0  0.03508  0.73903  0.02288  1.0000
  N   N4        1.0  0.96492  0.26098  0.97712  1.0000
  N   N5        1.0  0.90040  0.67932  0.20707  1.0000
  N   N6        1.0  0.09961  0.32069  0.79293  1.0000
  N   N7        1.0  0.71354  0.76514  0.20944  1.0000
  N   N8        1.0  0.28647  0.23486  0.79056  1.0000
  N   N9        1.0  0.59147  0.00560  0.93901  1.0000
  N   N10       1.0  0.40853  0.99441  0.06099  1.0000
  N   N11       1.0  0.33748  0.56643  0.28028  1.0000
  N   N12       1.0  0.66252  0.43356  0.71972  1.0000
  N   N13       1.0  0.06566  0.20621  0.46899  1.0000
  N   N14       1.0  0.93434  0.79380  0.53101  1.0000
