data_image0
_chemical_formula_structural       Cu2H24C20N24Cl4
_chemical_formula_sum              "Cu2 H24 C20 N24 Cl4"
_cell_length_a       7.6629
_cell_length_b       8.05364
_cell_length_c       13.8602
_cell_angle_alpha    90
_cell_angle_beta     89.9997
_cell_angle_gamma    100.036

_space_group_name_H-M_alt    "P 1"
_space_group_IT_number       1

loop_
  _space_group_symop_operation_xyz
  'x, y, z'

loop_
  _atom_site_type_symbol
  _atom_site_label
  _atom_site_symmetry_multiplicity
  _atom_site_fract_x
  _atom_site_fract_y
  _atom_site_fract_z
  _atom_site_occupancy
  Cu  Cu1       1.0  0.00000  1.00000  1.00000  1.0000
  Cu  Cu2       1.0  0.50000  0.00000  0.50000  1.0000
  H   H1        1.0  0.31148  0.31964  0.01174  1.0000
  H   H2        1.0  0.18852  0.68036  0.51174  1.0000
  H   H3        1.0  0.68852  0.68036  0.98826  1.0000
  H   H4        1.0  0.81148  0.31964  0.48826  1.0000
  H   H5        1.0  0.96411  0.10531  0.23071  1.0000
  H   H6        1.0  0.53589  0.89468  0.73071  1.0000
  H   H7        1.0  0.03589  0.89468  0.76929  1.0000
  H   H8        1.0  0.46411  0.10532  0.26929  1.0000
  H   H9        1.0  0.36764  0.61107  0.23953  1.0000
  H   H10       1.0  0.13236  0.38893  0.73953  1.0000
  H   H11       1.0  0.63236  0.38893  0.76047  1.0000
  H   H12       1.0  0.86764  0.61107  0.26047  1.0000
  H   H13       1.0  0.51883  0.55288  0.15014  1.0000
  H   H14       1.0  0.98117  0.44712  0.65014  1.0000
  H   H15       1.0  0.48117  0.44712  0.84985  1.0000
  H   H16       1.0  0.01883  0.55288  0.34986  1.0000
  H   H17       1.0  0.15444  0.80888  0.18287  1.0000
  H   H18       1.0  0.34556  0.19112  0.68288  1.0000
  H   H19       1.0  0.84556  0.19112  0.81712  1.0000
  H   H20       1.0  0.65444  0.80888  0.31712  1.0000
  H   H21       1.0  0.28736  0.81446  0.88691  1.0000
  H   H22       1.0  0.21265  0.18554  0.38692  1.0000
  H   H23       1.0  0.71265  0.18554  0.11308  1.0000
  H   H24       1.0  0.78735  0.81446  0.61308  1.0000
  C   C1        1.0  0.24140  0.29799  0.07991  1.0000
  C   C2        1.0  0.25860  0.70201  0.57991  1.0000
  C   C3        1.0  0.75860  0.70200  0.92009  1.0000
  C   C4        1.0  0.74140  0.29800  0.42009  1.0000
  C   C5        1.0  0.06550  0.19309  0.19335  1.0000
  C   C6        1.0  0.43450  0.80691  0.69335  1.0000
  C   C7        1.0  0.93450  0.80691  0.80665  1.0000
  C   C8        1.0  0.56550  0.19309  0.30665  1.0000
  C   C9        1.0  0.38102  0.56245  0.16626  1.0000
  C   C10       1.0  0.11898  0.43754  0.66626  1.0000
  C   C11       1.0  0.61898  0.43755  0.83374  1.0000
  C   C12       1.0  0.88102  0.56245  0.33374  1.0000
  C   C13       1.0  0.20769  0.78397  0.11264  1.0000
  C   C14       1.0  0.29231  0.21603  0.61265  1.0000
  C   C15       1.0  0.79231  0.21603  0.88735  1.0000
  C   C16       1.0  0.70769  0.78397  0.38735  1.0000
  C   C17       1.0  0.27991  0.78310  0.96297  1.0000
  C   C18       1.0  0.22009  0.21690  0.46297  1.0000
  C   C19       1.0  0.72009  0.21690  0.03703  1.0000
  C   C20       1.0  0.77991  0.78310  0.53703  1.0000
  N   N1        1.0  0.11375  0.16761  0.10018  1.0000
  N   N2        1.0  0.38625  0.83238  0.60018  1.0000
  N   N3        1.0  0.88625  0.83239  0.89982  1.0000
  N   N4        1.0  0.61375  0.16761  0.39982  1.0000
  N   N5        1.0  0.15515  0.33378  0.23123  1.0000
  N   N6        1.0  0.34485  0.66621  0.73123  1.0000
  N   N7        1.0  0.84485  0.66622  0.76877  1.0000
  N   N8        1.0  0.65515  0.33378  0.26877  1.0000
  N   N9        1.0  0.26717  0.39787  0.15823  1.0000
  N   N10       1.0  0.23282  0.60213  0.65823  1.0000
  N   N11       1.0  0.73282  0.60213  0.84177  1.0000
  N   N12       1.0  0.76718  0.39787  0.34177  1.0000
  N   N13       1.0  0.32319  0.67829  0.09829  1.0000
  N   N14       1.0  0.17681  0.32171  0.59829  1.0000
  N   N15       1.0  0.67681  0.32170  0.90171  1.0000
  N   N16       1.0  0.82319  0.67829  0.40171  1.0000
  N   N17       1.0  0.17828  0.85221  0.02770  1.0000
  N   N18       1.0  0.32173  0.14780  0.52770  1.0000
  N   N19       1.0  0.82172  0.14779  0.97229  1.0000
  N   N20       1.0  0.67828  0.85221  0.47230  1.0000
  N   N21       1.0  0.36943  0.67491  0.00324  1.0000
  N   N22       1.0  0.13057  0.32509  0.50324  1.0000
  N   N23       1.0  0.63057  0.32510  0.99676  1.0000
  N   N24       1.0  0.86943  0.67490  0.49676  1.0000
  Cl  Cl1       1.0  0.22225  0.16443  0.85200  1.0000
  Cl  Cl2       1.0  0.27775  0.83558  0.35201  1.0000
  Cl  Cl3       1.0  0.77775  0.83557  0.14800  1.0000
  Cl  Cl4       1.0  0.72225  0.16442  0.64799  1.0000
