data_image0
_chemical_formula_structural       Ba2H20C16N4O14
_chemical_formula_sum              "Ba2 H20 C16 N4 O14"
_cell_length_a       4.59246
_cell_length_b       7.05485
_cell_length_c       17.9426
_cell_angle_alpha    88.6964
_cell_angle_beta     85.8506
_cell_angle_gamma    70.8008

_space_group_name_H-M_alt    "P 1"
_space_group_IT_number       1

loop_
  _space_group_symop_operation_xyz
  'x, y, z'

loop_
  _atom_site_type_symbol
  _atom_site_label
  _atom_site_symmetry_multiplicity
  _atom_site_fract_x
  _atom_site_fract_y
  _atom_site_fract_z
  _atom_site_occupancy
  Ba  Ba1       1.0  0.42201  0.15863  0.25014  1.0000
  Ba  Ba2       1.0  0.57799  0.84137  0.74986  1.0000
  H   H1        1.0  0.84374  0.85419  0.45362  1.0000
  H   H2        1.0  0.28169  0.86607  0.04098  1.0000
  H   H3        1.0  0.15625  0.14582  0.54638  1.0000
  H   H4        1.0  0.71832  0.13392  0.95902  1.0000
  H   H5        1.0  0.89366  0.66073  0.38767  1.0000
  H   H6        1.0  0.45007  0.67599  0.10606  1.0000
  H   H7        1.0  0.10633  0.33928  0.61233  1.0000
  H   H8        1.0  0.54995  0.32399  0.89394  1.0000
  H   H9        1.0  0.16018  0.76933  0.56133  1.0000
  H   H10       1.0  0.07497  0.76033  0.93371  1.0000
  H   H11       1.0  0.83981  0.23068  0.43867  1.0000
  H   H12       1.0  0.92503  0.23966  0.06629  1.0000
  H   H13       1.0  0.41335  0.83742  0.49500  1.0000
  H   H14       1.0  0.74931  0.83708  0.99889  1.0000
  H   H15       1.0  0.58664  0.16259  0.50500  1.0000
  H   H16       1.0  0.25069  0.16291  0.00111  1.0000
  H   H17       1.0  0.65193  0.56217  0.28906  1.0000
  H   H18       1.0  0.78825  0.55887  0.20919  1.0000
  H   H19       1.0  0.34807  0.43783  0.71094  1.0000
  H   H20       1.0  0.21176  0.44114  0.79081  1.0000
  C   C1        1.0  0.13904  0.86561  0.35595  1.0000
  C   C2        1.0  0.99504  0.86919  0.14200  1.0000
  C   C3        1.0  0.86093  0.13440  0.64405  1.0000
  C   C4        1.0  0.00498  0.13080  0.85800  1.0000
  C   C5        1.0  0.01358  0.74704  0.41571  1.0000
  C   C6        1.0  0.23501  0.75617  0.08002  1.0000
  C   C7        1.0  0.98641  0.25297  0.58430  1.0000
  C   C8        1.0  0.76501  0.24382  0.91998  1.0000
  C   C9        1.0  0.35186  0.70904  0.51853  1.0000
  C   C10       1.0  0.94163  0.70574  0.97765  1.0000
  C   C11       1.0  0.64813  0.29097  0.48147  1.0000
  C   C12       1.0  0.05837  0.29425  0.02235  1.0000
  C   C13       1.0  0.37834  0.41922  0.44030  1.0000
  C   C14       1.0  0.19811  0.42700  0.06121  1.0000
  C   C15       1.0  0.62164  0.58079  0.55970  1.0000
  C   C16       1.0  0.80189  0.57299  0.93879  1.0000
  N   N1        1.0  0.25159  0.61361  0.45915  1.0000
  N   N2        1.0  0.13476  0.61784  0.03844  1.0000
  N   N3        1.0  0.74840  0.38640  0.54085  1.0000
  N   N4        1.0  0.86525  0.38215  0.96156  1.0000
  O   O1        1.0  0.94819  0.02880  0.33457  1.0000
  O   O2        1.0  0.02511  0.02938  0.16560  1.0000
  O   O3        1.0  0.05180  0.97120  0.66543  1.0000
  O   O4        1.0  0.97491  0.97061  0.83440  1.0000
  O   O5        1.0  0.76966  0.46522  0.24969  1.0000
  O   O6        1.0  0.23034  0.53478  0.75031  1.0000
  O   O7        1.0  0.42124  0.79626  0.33250  1.0000
  O   O8        1.0  0.78317  0.79929  0.16481  1.0000
  O   O9        1.0  0.57876  0.20374  0.66749  1.0000
  O   O10       1.0  0.21685  0.20069  0.83519  1.0000
  O   O11       1.0  0.28235  0.34055  0.38985  1.0000
  O   O12       1.0  0.36841  0.35519  0.11325  1.0000
  O   O13       1.0  0.71764  0.65946  0.61015  1.0000
  O   O14       1.0  0.63160  0.64480  0.88675  1.0000
