data_image0
_chemical_formula_structural       Mg2H24C16N4O16
_chemical_formula_sum              "Mg2 H24 C16 N4 O16"
_cell_length_a       7.64855
_cell_length_b       7.56991
_cell_length_c       9.42292
_cell_angle_alpha    90
_cell_angle_beta     90.0002
_cell_angle_gamma    108.995

_space_group_name_H-M_alt    "P 1"
_space_group_IT_number       1

loop_
  _space_group_symop_operation_xyz
  'x, y, z'

loop_
  _atom_site_type_symbol
  _atom_site_label
  _atom_site_symmetry_multiplicity
  _atom_site_fract_x
  _atom_site_fract_y
  _atom_site_fract_z
  _atom_site_occupancy
  Mg  Mg1       1.0  1.00000  1.00000  1.00000  1.0000
  Mg  Mg2       1.0  1.00000  0.50000  0.50000  1.0000
  H   H1        1.0  0.33293  0.15936  0.38436  1.0000
  H   H2        1.0  0.66707  0.34064  0.88437  1.0000
  H   H3        1.0  0.66707  0.84064  0.61564  1.0000
  H   H4        1.0  0.33293  0.65935  0.11564  1.0000
  H   H5        1.0  0.22314  0.91215  0.38978  1.0000
  H   H6        1.0  0.77686  0.58784  0.88978  1.0000
  H   H7        1.0  0.77686  0.08785  0.61022  1.0000
  H   H8        1.0  0.22314  0.41215  0.11022  1.0000
  H   H9        1.0  0.13743  0.13893  0.58202  1.0000
  H   H10       1.0  0.86257  0.36107  0.08203  1.0000
  H   H11       1.0  0.86257  0.86107  0.41798  1.0000
  H   H12       1.0  0.13744  0.63894  0.91798  1.0000
  H   H13       1.0  0.25082  0.14582  0.74642  1.0000
  H   H14       1.0  0.74917  0.35417  0.24643  1.0000
  H   H15       1.0  0.74918  0.85418  0.25358  1.0000
  H   H16       1.0  0.25083  0.64583  0.75358  1.0000
  H   H17       1.0  0.65035  0.95453  0.91286  1.0000
  H   H18       1.0  0.34965  0.54547  0.41286  1.0000
  H   H19       1.0  0.34965  0.04547  0.08714  1.0000
  H   H20       1.0  0.65035  0.45453  0.58714  1.0000
  H   H21       1.0  0.64337  0.96097  0.08095  1.0000
  H   H22       1.0  0.35663  0.53903  0.58095  1.0000
  H   H23       1.0  0.35662  0.03903  0.91904  1.0000
  H   H24       1.0  0.64337  0.46097  0.41905  1.0000
  C   C1        1.0  0.49223  0.00139  0.65210  1.0000
  C   C2        1.0  0.50777  0.49861  0.15211  1.0000
  C   C3        1.0  0.50777  0.99861  0.34790  1.0000
  C   C4        1.0  0.49223  0.50139  0.84789  1.0000
  C   C5        1.0  0.34690  0.02743  0.42351  1.0000
  C   C6        1.0  0.65310  0.47256  0.92352  1.0000
  C   C7        1.0  0.65310  0.97256  0.57648  1.0000
  C   C8        1.0  0.34690  0.52743  0.07649  1.0000
  C   C9        1.0  0.05191  0.87490  0.69031  1.0000
  C   C10       1.0  0.94809  0.62510  0.19033  1.0000
  C   C11       1.0  0.94809  0.12510  0.30969  1.0000
  C   C12       1.0  0.05191  0.37491  0.80967  1.0000
  C   C13       1.0  0.20084  0.06072  0.65213  1.0000
  C   C14       1.0  0.79916  0.43928  0.15214  1.0000
  C   C15       1.0  0.79916  0.93928  0.34786  1.0000
  C   C16       1.0  0.20084  0.56072  0.84786  1.0000
  N   N1        1.0  0.35694  0.03294  0.57772  1.0000
  N   N2        1.0  0.64305  0.46706  0.07772  1.0000
  N   N3        1.0  0.64305  0.96706  0.42228  1.0000
  N   N4        1.0  0.35695  0.53294  0.92228  1.0000
  O   O1        1.0  0.01664  0.74832  0.59715  1.0000
  O   O2        1.0  0.98336  0.75168  0.09715  1.0000
  O   O3        1.0  0.98336  0.25168  0.40285  1.0000
  O   O4        1.0  0.01665  0.24831  0.90286  1.0000
  O   O5        1.0  0.49285  0.99720  0.78629  1.0000
  O   O6        1.0  0.50715  0.50281  0.28629  1.0000
  O   O7        1.0  0.50715  0.00281  0.21371  1.0000
  O   O8        1.0  0.49286  0.49720  0.71372  1.0000
  O   O9        1.0  0.70967  0.92789  0.99998  1.0000
  O   O10       1.0  0.29033  0.57210  0.49998  1.0000
  O   O11       1.0  0.29033  0.07211  0.00002  1.0000
  O   O12       1.0  0.70967  0.42789  0.50002  1.0000
  O   O13       1.0  0.97109  0.86126  0.80889  1.0000
  O   O14       1.0  0.02890  0.63873  0.30888  1.0000
  O   O15       1.0  0.02890  0.13873  0.19112  1.0000
  O   O16       1.0  0.97110  0.36127  0.69113  1.0000
