data_image0
_chemical_formula_structural       Ca2H24C16N4O16
_chemical_formula_sum              "Ca2 H24 C16 N4 O16"
_cell_length_a       5.56089
_cell_length_b       7.61579
_cell_length_c       13.1559
_cell_angle_alpha    95.7975
_cell_angle_beta     90.0005
_cell_angle_gamma    90.0005

_space_group_name_H-M_alt    "P 1"
_space_group_IT_number       1

loop_
  _space_group_symop_operation_xyz
  'x, y, z'

loop_
  _atom_site_type_symbol
  _atom_site_label
  _atom_site_symmetry_multiplicity
  _atom_site_fract_x
  _atom_site_fract_y
  _atom_site_fract_z
  _atom_site_occupancy
  Ca  Ca1       1.0  0.00001  0.50002  0.00001  1.0000
  Ca  Ca2       1.0  0.50000  0.00001  0.50001  1.0000
  H   H1        1.0  0.85815  0.00435  0.92131  1.0000
  H   H2        1.0  0.35814  0.49565  0.57869  1.0000
  H   H3        1.0  0.14185  0.99565  0.07869  1.0000
  H   H4        1.0  0.64185  0.50436  0.42131  1.0000
  H   H5        1.0  0.69036  0.81813  0.87342  1.0000
  H   H6        1.0  0.19037  0.68186  0.62658  1.0000
  H   H7        1.0  0.30965  0.18187  0.12658  1.0000
  H   H8        1.0  0.80964  0.31812  0.37342  1.0000
  H   H9        1.0  0.55532  0.77632  0.21349  1.0000
  H   H10       1.0  0.05536  0.72368  0.28652  1.0000
  H   H11       1.0  0.44467  0.22368  0.78652  1.0000
  H   H12       1.0  0.94467  0.27632  0.71348  1.0000
  H   H13       1.0  0.35200  0.95341  0.24384  1.0000
  H   H14       1.0  0.85203  0.54658  0.25617  1.0000
  H   H15       1.0  0.64799  0.04658  0.75617  1.0000
  H   H16       1.0  0.14799  0.45341  0.74383  1.0000
  H   H17       1.0  0.25808  0.72514  0.86168  1.0000
  H   H18       1.0  0.75809  0.77486  0.63832  1.0000
  H   H19       1.0  0.74191  0.27486  0.13833  1.0000
  H   H20       1.0  0.24191  0.22514  0.36168  1.0000
  H   H21       1.0  0.45655  0.58352  0.88813  1.0000
  H   H22       1.0  0.95656  0.91648  0.61187  1.0000
  H   H23       1.0  0.54346  0.41648  0.11187  1.0000
  H   H24       1.0  0.04344  0.08353  0.38813  1.0000
  C   C1        1.0  0.68447  0.93679  0.92822  1.0000
  C   C2        1.0  0.18446  0.56321  0.57177  1.0000
  C   C3        1.0  0.31553  0.06321  0.07178  1.0000
  C   C4        1.0  0.81552  0.43679  0.42822  1.0000
  C   C5        1.0  0.67490  0.88025  0.03416  1.0000
  C   C6        1.0  0.17491  0.61976  0.46584  1.0000
  C   C7        1.0  0.32510  0.11976  0.96584  1.0000
  C   C8        1.0  0.82508  0.38025  0.53415  1.0000
  C   C9        1.0  0.52391  0.91665  0.20658  1.0000
  C   C10       1.0  0.02393  0.58334  0.29342  1.0000
  C   C11       1.0  0.47608  0.08334  0.79342  1.0000
  C   C12       1.0  0.97608  0.41665  0.70658  1.0000
  C   C13       1.0  0.72434  0.02523  0.26355  1.0000
  C   C14       1.0  0.22435  0.47476  0.23645  1.0000
  C   C15       1.0  0.27565  0.97476  0.73645  1.0000
  C   C16       1.0  0.77565  0.52523  0.76355  1.0000
  N   N1        1.0  0.50815  0.94813  0.09966  1.0000
  N   N2        1.0  0.00817  0.55187  0.40034  1.0000
  N   N3        1.0  0.49184  0.05188  0.90034  1.0000
  N   N4        1.0  0.99186  0.44813  0.59966  1.0000
  O   O1        1.0  0.83367  0.77513  0.05980  1.0000
  O   O2        1.0  0.33369  0.72487  0.44021  1.0000
  O   O3        1.0  0.16631  0.22486  0.94020  1.0000
  O   O4        1.0  0.66630  0.27514  0.55980  1.0000
  O   O5        1.0  0.84520  0.13373  0.21916  1.0000
  O   O6        1.0  0.34522  0.36625  0.28084  1.0000
  O   O7        1.0  0.15479  0.86625  0.78084  1.0000
  O   O8        1.0  0.65478  0.63374  0.71915  1.0000
  O   O9        1.0  0.75682  0.99467  0.35689  1.0000
  O   O10       1.0  0.25683  0.50534  0.14311  1.0000
  O   O11       1.0  0.24318  0.00534  0.64311  1.0000
  O   O12       1.0  0.74317  0.49466  0.85689  1.0000
  O   O13       1.0  0.29575  0.63311  0.90831  1.0000
  O   O14       1.0  0.79575  0.86688  0.59169  1.0000
  O   O15       1.0  0.70425  0.36688  0.09169  1.0000
  O   O16       1.0  0.20424  0.13314  0.40832  1.0000
