data_image0
_chemical_formula_structural       Mn2H28PtC38S6N10O4
_chemical_formula_sum              "Mn2 H28 Pt1 C38 S6 N10 O4"
_cell_length_a       10.1991
_cell_length_b       10.5263
_cell_length_c       10.9675
_cell_angle_alpha    95.0773
_cell_angle_beta     107.904
_cell_angle_gamma    107.851

_space_group_name_H-M_alt    "P 1"
_space_group_IT_number       1

loop_
  _space_group_symop_operation_xyz
  'x, y, z'

loop_
  _atom_site_type_symbol
  _atom_site_label
  _atom_site_symmetry_multiplicity
  _atom_site_fract_x
  _atom_site_fract_y
  _atom_site_fract_z
  _atom_site_occupancy
  Mn  Mn1       1.0  0.50262  0.41487  0.36581  1.0000
  Mn  Mn2       1.0  0.49738  0.58512  0.63419  1.0000
  H   H1        1.0  0.14885  0.53829  0.11785  1.0000
  H   H2        1.0  0.85115  0.46170  0.88215  1.0000
  H   H3        1.0  0.15752  0.68157  0.94944  1.0000
  H   H4        1.0  0.84248  0.31843  0.05056  1.0000
  H   H5        1.0  0.39208  0.78779  0.91170  1.0000
  H   H6        1.0  0.60792  0.21221  0.08831  1.0000
  H   H7        1.0  0.61447  0.73646  0.03266  1.0000
  H   H8        1.0  0.38552  0.26353  0.96734  1.0000
  H   H9        1.0  0.73254  0.62444  0.17556  1.0000
  H   H10       1.0  0.26746  0.37556  0.82444  1.0000
  H   H11       1.0  0.88109  0.55287  0.33352  1.0000
  H   H12       1.0  0.11892  0.44714  0.66648  1.0000
  H   H13       1.0  0.77344  0.37686  0.27996  1.0000
  H   H14       1.0  0.22657  0.62314  0.72005  1.0000
  H   H15       1.0  0.88762  0.39780  0.51183  1.0000
  H   H16       1.0  0.11239  0.60219  0.48817  1.0000
  H   H17       1.0  0.85340  0.55071  0.54945  1.0000
  H   H18       1.0  0.14661  0.44929  0.45056  1.0000
  H   H19       1.0  0.74860  0.25975  0.61050  1.0000
  H   H20       1.0  0.25140  0.74025  0.38951  1.0000
  H   H21       1.0  0.16612  0.20782  0.52252  1.0000
  H   H22       1.0  0.83387  0.79219  0.47748  1.0000
  H   H23       1.0  0.15630  0.00849  0.62977  1.0000
  H   H24       1.0  0.84370  0.99152  0.37023  1.0000
  H   H25       1.0  0.37448  0.93689  0.70180  1.0000
  H   H26       1.0  0.62551  0.06312  0.29820  1.0000
  H   H27       1.0  0.60476  0.06855  0.66686  1.0000
  H   H28       1.0  0.39524  0.93145  0.33314  1.0000
  Pt  Pt1       1.0  0.00000  1.00000  1.00000  1.0000
  C   C1        1.0  0.37458  0.55202  0.16797  1.0000
  C   C2        1.0  0.62542  0.44798  0.83202  1.0000
  C   C3        1.0  0.24934  0.58050  0.09672  1.0000
  C   C4        1.0  0.75066  0.41950  0.90328  1.0000
  C   C5        1.0  0.25614  0.66269  0.00493  1.0000
  C   C6        1.0  0.74386  0.33731  0.99507  1.0000
  C   C7        1.0  0.38797  0.72178  0.98246  1.0000
  C   C8        1.0  0.61203  0.27823  0.01754  1.0000
  C   C9        1.0  0.51148  0.69376  0.05012  1.0000
  C   C10       1.0  0.48852  0.30624  0.94988  1.0000
  C   C11       1.0  0.50750  0.60798  0.14199  1.0000
  C   C12       1.0  0.49249  0.39202  0.85802  1.0000
  C   C13       1.0  0.63744  0.57888  0.20449  1.0000
  C   C14       1.0  0.36256  0.42112  0.79550  1.0000
  C   C15       1.0  0.78725  0.47200  0.34100  1.0000
  C   C16       1.0  0.21276  0.52800  0.65900  1.0000
  C   C17       1.0  0.81048  0.45209  0.48107  1.0000
  C   C18       1.0  0.18952  0.54790  0.51893  1.0000
  C   C19       1.0  0.65068  0.28177  0.55590  1.0000
  C   C20       1.0  0.34932  0.71823  0.44410  1.0000
  C   C21       1.0  0.51380  0.20795  0.57014  1.0000
  C   C22       1.0  0.48620  0.79205  0.42986  1.0000
  C   C23       1.0  0.38790  0.24783  0.52832  1.0000
  C   C24       1.0  0.61210  0.75218  0.47168  1.0000
  C   C25       1.0  0.26055  0.17475  0.55228  1.0000
  C   C26       1.0  0.73945  0.82526  0.44772  1.0000
  C   C27       1.0  0.25639  0.06395  0.61302  1.0000
  C   C28       1.0  0.74360  0.93606  0.38698  1.0000
  C   C29       1.0  0.37956  0.02398  0.65437  1.0000
  C   C30       1.0  0.62044  0.97603  0.34563  1.0000
  C   C31       1.0  0.50708  0.09677  0.63429  1.0000
  C   C32       1.0  0.49291  0.90323  0.36571  1.0000
  C   C33       1.0  0.01839  0.26076  0.86108  1.0000
  C   C34       1.0  0.98161  0.73923  0.13890  1.0000
  C   C35       1.0  0.98290  0.16474  0.25664  1.0000
  C   C36       1.0  0.01711  0.83526  0.74336  1.0000
  C   C37       1.0  0.34670  0.11990  0.15798  1.0000
  C   C38       1.0  0.65331  0.88011  0.84204  1.0000
  S   S1        1.0  0.09325  0.24262  0.01277  1.0000
  S   S2        1.0  0.90675  0.75738  0.98721  1.0000
  S   S3        1.0  0.05461  0.04722  0.23235  1.0000
  S   S4        1.0  0.94539  0.95278  0.76764  1.0000
  S   S5        1.0  0.23998  0.98580  0.04100  1.0000
  S   S6        1.0  0.76002  0.01420  0.95900  1.0000
  N   N1        1.0  0.65167  0.50241  0.29103  1.0000
  N   N2        1.0  0.34834  0.49759  0.70897  1.0000
  N   N3        1.0  0.66654  0.37412  0.48538  1.0000
  N   N4        1.0  0.33346  0.62588  0.51462  1.0000
  N   N5        1.0  0.97074  0.28084  0.75510  1.0000
  N   N6        1.0  0.02925  0.71914  0.24489  1.0000
  N   N7        1.0  0.93256  0.24588  0.28277  1.0000
  N   N8        1.0  0.06744  0.75411  0.71723  1.0000
  N   N9        1.0  0.42913  0.21415  0.24183  1.0000
  N   N10       1.0  0.57087  0.78584  0.75818  1.0000
  O   O1        1.0  0.36363  0.47533  0.25595  1.0000
  O   O2        1.0  0.63636  0.52466  0.74405  1.0000
  O   O3        1.0  0.38815  0.35549  0.47211  1.0000
  O   O4        1.0  0.61185  0.64452  0.52789  1.0000
