data_image0
_chemical_formula_structural       Cu3H18C16Br4N2O4
_chemical_formula_sum              "Cu3 H18 C16 Br4 N2 O4"
_cell_length_a       7.79487
_cell_length_b       8.62087
_cell_length_c       9.05242
_cell_angle_alpha    82.3764
_cell_angle_beta     81.4278
_cell_angle_gamma    66.7186

_space_group_name_H-M_alt    "P 1"
_space_group_IT_number       1

loop_
  _space_group_symop_operation_xyz
  'x, y, z'

loop_
  _atom_site_type_symbol
  _atom_site_label
  _atom_site_symmetry_multiplicity
  _atom_site_fract_x
  _atom_site_fract_y
  _atom_site_fract_z
  _atom_site_occupancy
  Cu  Cu1       1.0  0.09396  0.48456  0.87241  1.0000
  Cu  Cu2       1.0  0.90892  0.51436  0.12444  1.0000
  Cu  Cu3       1.0  0.99843  0.49998  0.50008  1.0000
  H   H1        1.0  0.64406  0.27692  0.85228  1.0000
  H   H2        1.0  0.35616  0.72233  0.14847  1.0000
  H   H3        1.0  0.51751  0.14249  0.90790  1.0000
  H   H4        1.0  0.48265  0.85686  0.09300  1.0000
  H   H5        1.0  0.73446  0.09629  0.98143  1.0000
  H   H6        1.0  0.26505  0.90378  0.02025  1.0000
  H   H7        1.0  0.93956  0.22977  0.71066  1.0000
  H   H8        1.0  0.06135  0.76894  0.29082  1.0000
  H   H9        1.0  0.08782  0.91211  0.73811  1.0000
  H   H10       1.0  0.91373  0.08669  0.26203  1.0000
  H   H11       1.0  0.34226  0.76179  0.54160  1.0000
  H   H12       1.0  0.65833  0.23815  0.45748  1.0000
  H   H13       1.0  0.44388  0.93592  0.32876  1.0000
  H   H14       1.0  0.55512  0.06539  0.67040  1.0000
  H   H15       1.0  0.37147  0.41327  0.03668  1.0000
  H   H16       1.0  0.62726  0.58674  0.96296  1.0000
  H   H17       1.0  0.58469  0.36189  0.11845  1.0000
  H   H18       1.0  0.41369  0.63975  0.88125  1.0000
  C   C1        1.0  0.05042  0.15910  0.62818  1.0000
  C   C2        1.0  0.95008  0.84021  0.37274  1.0000
  C   C3        1.0  0.13457  0.98264  0.64274  1.0000
  C   C4        1.0  0.86622  0.01665  0.35742  1.0000
  C   C5        1.0  0.27618  0.89983  0.53388  1.0000
  C   C6        1.0  0.72413  0.10011  0.46571  1.0000
  C   C7        1.0  0.33176  0.99602  0.41475  1.0000
  C   C8        1.0  0.66775  0.00462  0.58501  1.0000
  C   C9        1.0  0.24318  0.17198  0.40838  1.0000
  C   C10       1.0  0.75626  0.82864  0.59222  1.0000
  C   C11       1.0  0.29736  0.28668  0.28987  1.0000
  C   C12       1.0  0.70150  0.71423  0.71073  1.0000
  C   C13       1.0  0.49918  0.30893  0.07143  1.0000
  C   C14       1.0  0.49972  0.69174  0.92882  1.0000
  C   C15       1.0  0.60587  0.19815  0.94643  1.0000
  C   C16       1.0  0.39384  0.80163  0.05453  1.0000
  Br  Br1       1.0  0.29302  0.47013  0.65062  1.0000
  Br  Br2       1.0  0.71077  0.52925  0.34736  1.0000
  Br  Br3       1.0  0.04329  0.24712  0.01171  1.0000
  Br  Br4       1.0  0.95757  0.75242  0.98584  1.0000
  N   N1        1.0  0.10346  0.25181  0.51336  1.0000
  N   N2        1.0  0.89633  0.74817  0.48777  1.0000
  O   O1        1.0  0.21582  0.44270  0.28424  1.0000
  O   O2        1.0  0.78208  0.55815  0.71593  1.0000
  O   O3        1.0  0.44098  0.20411  0.19347  1.0000
  O   O4        1.0  0.55830  0.79697  0.80739  1.0000
