data_image0
_chemical_formula_structural       Mn2H28C24N8O8
_chemical_formula_sum              "Mn2 H28 C24 N8 O8"
_cell_length_a       9.37096
_cell_length_b       9.52994
_cell_length_c       9.58689
_cell_angle_alpha    68.2247
_cell_angle_beta     87.1209
_cell_angle_gamma    63.9234

_space_group_name_H-M_alt    "P 1"
_space_group_IT_number       1

loop_
  _space_group_symop_operation_xyz
  'x, y, z'

loop_
  _atom_site_type_symbol
  _atom_site_label
  _atom_site_symmetry_multiplicity
  _atom_site_fract_x
  _atom_site_fract_y
  _atom_site_fract_z
  _atom_site_occupancy
  Mn  Mn1       1.0  0.16758  0.49798  0.24278  1.0000
  Mn  Mn2       1.0  0.83243  0.50201  0.75724  1.0000
  H   H1        1.0  0.85922  0.16210  0.50308  1.0000
  H   H2        1.0  0.14078  0.83791  0.49692  1.0000
  H   H3        1.0  0.94719  0.14085  0.33969  1.0000
  H   H4        1.0  0.05282  0.85916  0.66031  1.0000
  H   H5        1.0  0.66371  0.94649  0.08339  1.0000
  H   H6        1.0  0.33629  0.05351  0.91660  1.0000
  H   H7        1.0  0.60864  0.80878  0.04507  1.0000
  H   H8        1.0  0.39136  0.19122  0.95492  1.0000
  H   H9        1.0  0.87577  0.90053  0.37966  1.0000
  H   H10       1.0  0.12424  0.09948  0.62033  1.0000
  H   H11       1.0  0.77995  0.93475  0.53551  1.0000
  H   H12       1.0  0.22006  0.06525  0.46449  1.0000
  H   H13       1.0  0.49383  0.57731  0.29382  1.0000
  H   H14       1.0  0.50616  0.42269  0.70618  1.0000
  H   H15       1.0  0.58734  0.79429  0.31009  1.0000
  H   H16       1.0  0.41265  0.20571  0.68989  1.0000
  H   H17       1.0  0.44190  0.01216  0.24045  1.0000
  H   H18       1.0  0.55810  0.98784  0.75954  1.0000
  H   H19       1.0  0.75804  0.18143  0.10932  1.0000
  H   H20       1.0  0.24196  0.81857  0.89068  1.0000
  H   H21       1.0  0.00122  0.90169  0.14467  1.0000
  H   H22       1.0  0.99878  0.09831  0.85533  1.0000
  H   H23       1.0  0.49275  0.15738  0.48142  1.0000
  H   H24       1.0  0.50726  0.84262  0.51858  1.0000
  H   H25       1.0  0.43605  0.41226  0.00807  1.0000
  H   H26       1.0  0.56395  0.58774  0.99193  1.0000
  H   H27       1.0  0.15512  0.09621  0.13695  1.0000
  H   H28       1.0  0.84487  0.90379  0.86304  1.0000
  C   C1        1.0  0.00299  0.58304  0.94580  1.0000
  C   C2        1.0  0.99703  0.41694  0.05423  1.0000
  C   C3        1.0  0.92187  0.07049  0.44994  1.0000
  C   C4        1.0  0.07814  0.92951  0.55005  1.0000
  C   C5        1.0  0.56030  0.92572  0.06716  1.0000
  C   C6        1.0  0.43970  0.07428  0.93283  1.0000
  C   C7        1.0  0.81395  0.99697  0.42731  1.0000
  C   C8        1.0  0.18606  0.00303  0.57269  1.0000
  C   C9        1.0  0.92291  0.57703  0.44714  1.0000
  C   C10       1.0  0.07710  0.42296  0.55286  1.0000
  C   C11       1.0  0.37926  0.69015  0.25219  1.0000
  C   C12       1.0  0.62073  0.30985  0.74780  1.0000
  C   C13       1.0  0.49170  0.89593  0.21746  1.0000
  C   C14       1.0  0.50829  0.10407  0.78253  1.0000
  C   C15       1.0  0.65452  0.20810  0.16959  1.0000
  C   C16       1.0  0.34548  0.79190  0.83040  1.0000
  C   C17       1.0  0.12646  0.86338  0.17485  1.0000
  C   C18       1.0  0.87353  0.13662  0.82515  1.0000
  C   C19       1.0  0.51876  0.19555  0.36570  1.0000
  C   C20       1.0  0.48124  0.80446  0.63430  1.0000
  C   C21       1.0  0.49552  0.32332  0.12149  1.0000
  C   C22       1.0  0.50448  0.67668  0.87851  1.0000
  C   C23       1.0  0.20145  0.96093  0.16846  1.0000
  C   C24       1.0  0.79854  0.03908  0.83152  1.0000
  N   N1        1.0  0.66676  0.12720  0.32477  1.0000
  N   N2        1.0  0.33325  0.87280  0.67522  1.0000
  N   N3        1.0  0.23834  0.69466  0.22732  1.0000
  N   N4        1.0  0.76165  0.30534  0.77268  1.0000
  N   N5        1.0  0.41207  0.31501  0.24470  1.0000
  N   N6        1.0  0.58794  0.68500  0.75530  1.0000
  N   N7        1.0  0.36197  0.84921  0.21819  1.0000
  N   N8        1.0  0.63803  0.15080  0.78180  1.0000
  O   O1        1.0  0.07934  0.63764  0.99968  1.0000
  O   O2        1.0  0.92067  0.36234  0.00034  1.0000
  O   O3        1.0  0.79863  0.63078  0.50994  1.0000
  O   O4        1.0  0.20136  0.36922  0.49008  1.0000
  O   O5        1.0  0.93266  0.63804  0.30725  1.0000
  O   O6        1.0  0.06734  0.36194  0.69277  1.0000
  O   O7        1.0  0.92999  0.65271  0.81230  1.0000
  O   O8        1.0  0.07001  0.34727  0.18772  1.0000
