data_image0
_chemical_formula_structural       U2H16C28Br4O12
_chemical_formula_sum              "U2 H16 C28 Br4 O12"
_cell_length_a       5.14189
_cell_length_b       8.78534
_cell_length_c       17.6853
_cell_angle_alpha    90
_cell_angle_beta     90.0002
_cell_angle_gamma    94.7648

_space_group_name_H-M_alt    "P 1"
_space_group_IT_number       1

loop_
  _space_group_symop_operation_xyz
  'x, y, z'

loop_
  _atom_site_type_symbol
  _atom_site_label
  _atom_site_symmetry_multiplicity
  _atom_site_fract_x
  _atom_site_fract_y
  _atom_site_fract_z
  _atom_site_occupancy
  U   U1        1.0  1.00000  0.00000  1.00000  1.0000
  U   U2        1.0  0.00000  0.50000  0.50000  1.0000
  H   H1        1.0  0.90099  0.73047  0.67213  1.0000
  H   H2        1.0  0.09901  0.76953  0.17213  1.0000
  H   H3        1.0  0.09901  0.26953  0.32787  1.0000
  H   H4        1.0  0.90099  0.23047  0.82788  1.0000
  H   H5        1.0  0.83881  0.77299  0.81085  1.0000
  H   H6        1.0  0.16119  0.72701  0.31085  1.0000
  H   H7        1.0  0.16119  0.22701  0.18915  1.0000
  H   H8        1.0  0.83881  0.27299  0.68915  1.0000
  H   H9        1.0  0.22156  0.06107  0.76041  1.0000
  H   H10       1.0  0.77844  0.43893  0.26041  1.0000
  H   H11       1.0  0.77844  0.93893  0.23959  1.0000
  H   H12       1.0  0.22156  0.56107  0.73959  1.0000
  H   H13       1.0  0.62959  0.85352  0.57895  1.0000
  H   H14       1.0  0.37041  0.64648  0.07895  1.0000
  H   H15       1.0  0.37041  0.14648  0.42105  1.0000
  H   H16       1.0  0.62959  0.35352  0.92105  1.0000
  C   C1        1.0  0.41007  0.96505  0.66418  1.0000
  C   C2        1.0  0.58993  0.53495  0.16418  1.0000
  C   C3        1.0  0.58993  0.03495  0.33582  1.0000
  C   C4        1.0  0.41006  0.46505  0.83582  1.0000
  C   C5        1.0  0.75233  0.80224  0.69219  1.0000
  C   C6        1.0  0.24768  0.69776  0.19219  1.0000
  C   C7        1.0  0.24768  0.19776  0.30781  1.0000
  C   C8        1.0  0.75232  0.30224  0.80781  1.0000
  C   C9        1.0  0.52427  0.91789  0.79369  1.0000
  C   C10       1.0  0.47573  0.58211  0.29369  1.0000
  C   C11       1.0  0.47573  0.08211  0.20631  1.0000
  C   C12       1.0  0.52426  0.41789  0.70631  1.0000
  C   C13       1.0  0.71883  0.82620  0.76927  1.0000
  C   C14       1.0  0.28118  0.67380  0.26926  1.0000
  C   C15       1.0  0.28117  0.17380  0.23074  1.0000
  C   C16       1.0  0.71883  0.32620  0.73074  1.0000
  C   C17       1.0  0.36749  0.98720  0.74094  1.0000
  C   C18       1.0  0.63251  0.51280  0.24093  1.0000
  C   C19       1.0  0.63250  0.01279  0.25906  1.0000
  C   C20       1.0  0.36749  0.48721  0.75906  1.0000
  C   C21       1.0  0.59903  0.87132  0.63908  1.0000
  C   C22       1.0  0.40098  0.62868  0.13908  1.0000
  C   C23       1.0  0.40098  0.12868  0.36092  1.0000
  C   C24       1.0  0.59902  0.37132  0.86092  1.0000
  C   C25       1.0  0.48715  0.94608  0.87531  1.0000
  C   C26       1.0  0.51285  0.55392  0.37531  1.0000
  C   C27       1.0  0.51285  0.05392  0.12469  1.0000
  C   C28       1.0  0.48715  0.44607  0.62469  1.0000
  Br  Br1       1.0  0.21887  0.07049  0.59188  1.0000
  Br  Br2       1.0  0.78113  0.42951  0.09188  1.0000
  Br  Br3       1.0  0.78113  0.92951  0.40812  1.0000
  Br  Br4       1.0  0.21887  0.57049  0.90812  1.0000
  O   O1        1.0  0.27875  0.00259  0.89713  1.0000
  O   O2        1.0  0.72125  0.49741  0.39713  1.0000
  O   O3        1.0  0.72125  0.99741  0.10287  1.0000
  O   O4        1.0  0.27875  0.50259  0.60287  1.0000
  O   O5        1.0  0.93917  0.19463  0.97783  1.0000
  O   O6        1.0  0.06083  0.30536  0.47782  1.0000
  O   O7        1.0  0.06083  0.80537  0.02218  1.0000
  O   O8        1.0  0.93917  0.69464  0.52218  1.0000
  O   O9        1.0  0.66635  0.91470  0.92164  1.0000
  O   O10       1.0  0.33365  0.58530  0.42164  1.0000
  O   O11       1.0  0.33365  0.08530  0.07836  1.0000
  O   O12       1.0  0.66635  0.41470  0.57836  1.0000
