data_image0
_chemical_formula_structural       U2H16C28I4O12
_chemical_formula_sum              "U2 H16 C28 I4 O12"
_cell_length_a       5.12623
_cell_length_b       9.0654
_cell_length_c       17.9619
_cell_angle_alpha    90.0001
_cell_angle_beta     89.9997
_cell_angle_gamma    94.0352

_space_group_name_H-M_alt    "P 1"
_space_group_IT_number       1

loop_
  _space_group_symop_operation_xyz
  'x, y, z'

loop_
  _atom_site_type_symbol
  _atom_site_label
  _atom_site_symmetry_multiplicity
  _atom_site_fract_x
  _atom_site_fract_y
  _atom_site_fract_z
  _atom_site_occupancy
  U   U1        1.0  1.00000  0.50002  0.50000  1.0000
  U   U2        1.0  0.00000  0.99998  0.00000  1.0000
  H   H1        1.0  0.83432  0.26315  0.68259  1.0000
  H   H2        1.0  0.16567  0.23685  0.18259  1.0000
  H   H3        1.0  0.16568  0.73685  0.31741  1.0000
  H   H4        1.0  0.83432  0.76315  0.81741  1.0000
  H   H5        1.0  0.22696  0.55095  0.73692  1.0000
  H   H6        1.0  0.77304  0.94904  0.23692  1.0000
  H   H7        1.0  0.77304  0.44904  0.26307  1.0000
  H   H8        1.0  0.22695  0.05096  0.76307  1.0000
  H   H9        1.0  0.62901  0.33077  0.91209  1.0000
  H   H10       1.0  0.37099  0.16923  0.41209  1.0000
  H   H11       1.0  0.37098  0.66923  0.08791  1.0000
  H   H12       1.0  0.62902  0.83077  0.58791  1.0000
  H   H13       1.0  0.89543  0.21236  0.81821  1.0000
  H   H14       1.0  0.10456  0.28765  0.31821  1.0000
  H   H15       1.0  0.10456  0.78764  0.18180  1.0000
  H   H16       1.0  0.89544  0.71236  0.68179  1.0000
  C   C1        1.0  0.71600  0.31446  0.72436  1.0000
  C   C2        1.0  0.28400  0.18553  0.22436  1.0000
  C   C3        1.0  0.28401  0.68553  0.27564  1.0000
  C   C4        1.0  0.71600  0.81447  0.77564  1.0000
  C   C5        1.0  0.48816  0.44121  0.62210  1.0000
  C   C6        1.0  0.51183  0.05878  0.12210  1.0000
  C   C7        1.0  0.51185  0.55878  0.37790  1.0000
  C   C8        1.0  0.48816  0.94122  0.87790  1.0000
  C   C9        1.0  0.37077  0.47594  0.75519  1.0000
  C   C10       1.0  0.62923  0.02406  0.25518  1.0000
  C   C11       1.0  0.62923  0.52406  0.24481  1.0000
  C   C12       1.0  0.37077  0.97594  0.74481  1.0000
  C   C13       1.0  0.52463  0.40866  0.70199  1.0000
  C   C14       1.0  0.47536  0.09134  0.20199  1.0000
  C   C15       1.0  0.47537  0.59133  0.29801  1.0000
  C   C16       1.0  0.52463  0.90867  0.79801  1.0000
  C   C17       1.0  0.59816  0.35260  0.85328  1.0000
  C   C18       1.0  0.40184  0.14740  0.35328  1.0000
  C   C19       1.0  0.40184  0.64740  0.14672  1.0000
  C   C20       1.0  0.59816  0.85260  0.64671  1.0000
  C   C21       1.0  0.74868  0.28568  0.79979  1.0000
  C   C22       1.0  0.25132  0.21431  0.29979  1.0000
  C   C23       1.0  0.25132  0.71431  0.20021  1.0000
  C   C24       1.0  0.74868  0.78569  0.70021  1.0000
  C   C25       1.0  0.41234  0.44926  0.83049  1.0000
  C   C26       1.0  0.58767  0.05074  0.33049  1.0000
  C   C27       1.0  0.58766  0.55074  0.16951  1.0000
  C   C28       1.0  0.41233  0.94926  0.66951  1.0000
  I   I1        1.0  0.21131  0.56435  0.91156  1.0000
  I   I2        1.0  0.78871  0.93565  0.41156  1.0000
  I   I3        1.0  0.78871  0.43566  0.08844  1.0000
  I   I4        1.0  0.21129  0.06434  0.58844  1.0000
  O   O1        1.0  0.27974  0.49879  0.60124  1.0000
  O   O2        1.0  0.72025  0.00121  0.10123  1.0000
  O   O3        1.0  0.72028  0.50121  0.39877  1.0000
  O   O4        1.0  0.27973  0.99879  0.89877  1.0000
  O   O5        1.0  0.93060  0.68706  0.52423  1.0000
  O   O6        1.0  0.06939  0.81295  0.02423  1.0000
  O   O7        1.0  0.06943  0.31295  0.47577  1.0000
  O   O8        1.0  0.93058  0.18706  0.97577  1.0000
  O   O9        1.0  0.66853  0.41237  0.57607  1.0000
  O   O10       1.0  0.33146  0.08763  0.07607  1.0000
  O   O11       1.0  0.33148  0.58764  0.42393  1.0000
  O   O12       1.0  0.66853  0.91237  0.92393  1.0000
