data_image0
_chemical_formula_structural       Zn2H18C20N6O12
_chemical_formula_sum              "Zn2 H18 C20 N6 O12"
_cell_length_a       7.14544
_cell_length_b       7.42948
_cell_length_c       12.5913
_cell_angle_alpha    104.965
_cell_angle_beta     93.6482
_cell_angle_gamma    113.716

_space_group_name_H-M_alt    "P 1"
_space_group_IT_number       1

loop_
  _space_group_symop_operation_xyz
  'x, y, z'

loop_
  _atom_site_type_symbol
  _atom_site_label
  _atom_site_symmetry_multiplicity
  _atom_site_fract_x
  _atom_site_fract_y
  _atom_site_fract_z
  _atom_site_occupancy
  Zn  Zn1       1.0  0.28052  0.26839  0.96091  1.0000
  Zn  Zn2       1.0  0.71948  0.73160  0.03909  1.0000
  H   H1        1.0  0.62340  0.32858  0.05327  1.0000
  H   H2        1.0  0.37660  0.67141  0.94673  1.0000
  H   H3        1.0  0.66562  0.32427  0.92268  1.0000
  H   H4        1.0  0.33438  0.67573  0.07732  1.0000
  H   H5        1.0  0.15743  0.88156  0.97408  1.0000
  H   H6        1.0  0.84257  0.11844  0.02591  1.0000
  H   H7        1.0  0.30714  0.89811  0.88456  1.0000
  H   H8        1.0  0.69286  0.10189  0.11544  1.0000
  H   H9        1.0  0.07812  0.31064  0.27129  1.0000
  H   H10       1.0  0.92189  0.68936  0.72871  1.0000
  H   H11       1.0  0.99520  0.30897  0.46266  1.0000
  H   H12       1.0  0.00480  0.69103  0.53734  1.0000
  H   H13       1.0  0.49080  0.25905  0.70741  1.0000
  H   H14       1.0  0.50920  0.74095  0.29259  1.0000
  H   H15       1.0  0.52345  0.18873  0.53811  1.0000
  H   H16       1.0  0.47654  0.81127  0.46189  1.0000
  H   H17       1.0  0.60566  0.19809  0.35041  1.0000
  H   H18       1.0  0.39434  0.80191  0.64959  1.0000
  C   C1        1.0  0.40135  0.26597  0.18800  1.0000
  C   C2        1.0  0.59865  0.73403  0.81200  1.0000
  C   C3        1.0  0.34798  0.25679  0.30039  1.0000
  C   C4        1.0  0.65202  0.74321  0.69961  1.0000
  C   C5        1.0  0.17429  0.28562  0.33131  1.0000
  C   C6        1.0  0.82571  0.71438  0.66869  1.0000
  C   C7        1.0  0.12717  0.28319  0.43669  1.0000
  C   C8        1.0  0.87283  0.71682  0.56331  1.0000
  C   C9        1.0  0.25420  0.24966  0.51102  1.0000
  C   C10       1.0  0.74580  0.75034  0.48898  1.0000
  C   C11       1.0  0.05393  0.25043  0.75555  1.0000
  C   C12       1.0  0.94606  0.74957  0.24445  1.0000
  C   C13       1.0  0.33617  0.25302  0.70695  1.0000
  C   C14       1.0  0.66383  0.74698  0.29305  1.0000
  C   C15       1.0  0.90526  0.24557  0.83468  1.0000
  C   C16       1.0  0.09474  0.75442  0.16532  1.0000
  C   C17       1.0  0.42582  0.21688  0.48064  1.0000
  C   C18       1.0  0.57418  0.78312  0.51936  1.0000
  C   C19       1.0  0.47226  0.22198  0.37575  1.0000
  C   C20       1.0  0.52773  0.77802  0.62425  1.0000
  N   N1        1.0  0.21147  0.25056  0.61973  1.0000
  N   N2        1.0  0.78853  0.74944  0.38027  1.0000
  N   N3        1.0  0.03113  0.25032  0.64991  1.0000
  N   N4        1.0  0.96887  0.74968  0.35009  1.0000
  N   N5        1.0  0.23913  0.25243  0.79289  1.0000
  N   N6        1.0  0.76086  0.74757  0.20711  1.0000
  O   O1        1.0  0.61181  0.38379  0.98915  1.0000
  O   O2        1.0  0.38819  0.61621  0.01085  1.0000
  O   O3        1.0  0.27696  0.29400  0.12421  1.0000
  O   O4        1.0  0.72304  0.70600  0.87579  1.0000
  O   O5        1.0  0.56764  0.25261  0.16515  1.0000
  O   O6        1.0  0.43236  0.74740  0.83485  1.0000
  O   O7        1.0  0.96727  0.23402  0.92960  1.0000
  O   O8        1.0  0.03272  0.76598  0.07040  1.0000
  O   O9        1.0  0.73785  0.25366  0.80646  1.0000
  O   O10       1.0  0.26214  0.74634  0.19354  1.0000
  O   O11       1.0  0.21290  0.95362  0.91878  1.0000
  O   O12       1.0  0.78710  0.04638  0.08122  1.0000
