data_image0
_chemical_formula_structural       H28Pb4C40N12O20
_chemical_formula_sum              "H28 Pb4 C40 N12 O20"
_cell_length_a       6.81805
_cell_length_b       12.2542
_cell_length_c       13.715
_cell_angle_alpha    112.865
_cell_angle_beta     90.0046
_cell_angle_gamma    89.9989

_space_group_name_H-M_alt    "P 1"
_space_group_IT_number       1

loop_
  _space_group_symop_operation_xyz
  'x, y, z'

loop_
  _atom_site_type_symbol
  _atom_site_label
  _atom_site_symmetry_multiplicity
  _atom_site_fract_x
  _atom_site_fract_y
  _atom_site_fract_z
  _atom_site_occupancy
  H   H1        1.0  0.36691  0.59859  0.51366  1.0000
  H   H2        1.0  0.86688  0.90138  0.48632  1.0000
  H   H3        1.0  0.63311  0.40140  0.48634  1.0000
  H   H4        1.0  0.13305  0.09857  0.51366  1.0000
  H   H5        1.0  0.33937  0.49562  0.39731  1.0000
  H   H6        1.0  0.83933  0.00437  0.60267  1.0000
  H   H7        1.0  0.66067  0.50440  0.60269  1.0000
  H   H8        1.0  0.16057  0.99558  0.39730  1.0000
  H   H9        1.0  0.19383  0.39673  0.17565  1.0000
  H   H10       1.0  0.69373  0.10327  0.82436  1.0000
  H   H11       1.0  0.80622  0.60325  0.82435  1.0000
  H   H12       1.0  0.30616  0.89676  0.17567  1.0000
  H   H13       1.0  0.27817  0.59961  0.94742  1.0000
  H   H14       1.0  0.77819  0.90039  0.05259  1.0000
  H   H15       1.0  0.72181  0.40038  0.05259  1.0000
  H   H16       1.0  0.22183  0.09962  0.94741  1.0000
  H   H17       1.0  0.38054  0.47782  0.76232  1.0000
  H   H18       1.0  0.88055  0.02219  0.23769  1.0000
  H   H19       1.0  0.61944  0.52219  0.23768  1.0000
  H   H20       1.0  0.11948  0.97782  0.76231  1.0000
  H   H21       1.0  0.36463  0.16605  0.83302  1.0000
  H   H22       1.0  0.86453  0.33396  0.16701  1.0000
  H   H23       1.0  0.63546  0.83395  0.16698  1.0000
  H   H24       1.0  0.13545  0.66605  0.83299  1.0000
  H   H25       1.0  0.26828  0.28679  0.01876  1.0000
  H   H26       1.0  0.76818  0.21322  0.98126  1.0000
  H   H27       1.0  0.73190  0.71319  0.98125  1.0000
  H   H28       1.0  0.23177  0.78680  0.01875  1.0000
  Pb  Pb1       1.0  0.92974  0.61538  0.44401  1.0000
  Pb  Pb2       1.0  0.42969  0.88462  0.55597  1.0000
  Pb  Pb3       1.0  0.07029  0.38463  0.55600  1.0000
  Pb  Pb4       1.0  0.57022  0.11538  0.44401  1.0000
  C   C1        1.0  0.05570  0.79206  0.30669  1.0000
  C   C2        1.0  0.55570  0.70793  0.69330  1.0000
  C   C3        1.0  0.94430  0.20792  0.69331  1.0000
  C   C4        1.0  0.44429  0.29208  0.30671  1.0000
  C   C5        1.0  0.11022  0.67012  0.23013  1.0000
  C   C6        1.0  0.61019  0.82987  0.76987  1.0000
  C   C7        1.0  0.88981  0.32985  0.76987  1.0000
  C   C8        1.0  0.38976  0.17015  0.23014  1.0000
  C   C9        1.0  0.16751  0.48497  0.17808  1.0000
  C   C10       1.0  0.66745  0.01503  0.82192  1.0000
  C   C11       1.0  0.83253  0.51501  0.82192  1.0000
  C   C12       1.0  0.33248  0.98499  0.17809  1.0000
  C   C13       1.0  0.26160  0.45080  0.99264  1.0000
  C   C14       1.0  0.76156  0.04920  0.00737  1.0000
  C   C15       1.0  0.73847  0.54918  0.00737  1.0000
  C   C16       1.0  0.23842  0.95081  0.99264  1.0000
  C   C17       1.0  0.29409  0.50436  0.92091  1.0000
  C   C18       1.0  0.79408  0.99565  0.07910  1.0000
  C   C19       1.0  0.70593  0.49563  0.07909  1.0000
  C   C20       1.0  0.20593  0.00437  0.92091  1.0000
  C   C21       1.0  0.35061  0.43564  0.81767  1.0000
  C   C22       1.0  0.85060  0.06437  0.18235  1.0000
  C   C23       1.0  0.64939  0.56436  0.18233  1.0000
  C   C24       1.0  0.14941  0.93565  0.81766  1.0000
  C   C25       1.0  0.37515  0.31318  0.78566  1.0000
  C   C26       1.0  0.87512  0.18683  0.21435  1.0000
  C   C27       1.0  0.62486  0.68681  0.21433  1.0000
  C   C28       1.0  0.12489  0.81319  0.78565  1.0000
  C   C29       1.0  0.43441  0.23714  0.67484  1.0000
  C   C30       1.0  0.93442  0.26287  0.32517  1.0000
  C   C31       1.0  0.56553  0.76286  0.32514  1.0000
  C   C32       1.0  0.06561  0.73715  0.67483  1.0000
  C   C33       1.0  0.34544  0.26132  0.85926  1.0000
  C   C34       1.0  0.84536  0.23869  0.14076  1.0000
  C   C35       1.0  0.65464  0.73868  0.14074  1.0000
  C   C36       1.0  0.15462  0.76132  0.85924  1.0000
  C   C37       1.0  0.28928  0.32876  0.96253  1.0000
  C   C38       1.0  0.78920  0.17125  0.03748  1.0000
  C   C39       1.0  0.71084  0.67123  0.03747  1.0000
  C   C40       1.0  0.21077  0.82876  0.96253  1.0000
  N   N1        1.0  0.10969  0.57711  0.26211  1.0000
  N   N2        1.0  0.60964  0.92288  0.73789  1.0000
  N   N3        1.0  0.89033  0.42287  0.73789  1.0000
  N   N4        1.0  0.39028  0.07714  0.26213  1.0000
  N   N5        1.0  0.20106  0.52098  0.09729  1.0000
  N   N6        1.0  0.70101  0.97902  0.90272  1.0000
  N   N7        1.0  0.79900  0.47901  0.90272  1.0000
  N   N8        1.0  0.29895  0.02099  0.09729  1.0000
  N   N9        1.0  0.16529  0.63954  0.12973  1.0000
  N   N10       1.0  0.66526  0.86046  0.87027  1.0000
  N   N11       1.0  0.83476  0.36045  0.87028  1.0000
  N   N12       1.0  0.33471  0.13956  0.12973  1.0000
  O   O1        1.0  0.00931  0.79708  0.39940  1.0000
  O   O2        1.0  0.50932  0.70292  0.60058  1.0000
  O   O3        1.0  0.99069  0.20290  0.60060  1.0000
  O   O4        1.0  0.49066  0.29709  0.39942  1.0000
  O   O5        1.0  0.06118  0.87833  0.27928  1.0000
  O   O6        1.0  0.56119  0.62165  0.72071  1.0000
  O   O7        1.0  0.93880  0.12164  0.72072  1.0000
  O   O8        1.0  0.43883  0.37836  0.27930  1.0000
  O   O9        1.0  0.42971  0.28331  0.60509  1.0000
  O   O10       1.0  0.92977  0.21671  0.39492  1.0000
  O   O11       1.0  0.57016  0.71670  0.39489  1.0000
  O   O12       1.0  0.07028  0.78332  0.60508  1.0000
  O   O13       1.0  0.48874  0.13179  0.65503  1.0000
  O   O14       1.0  0.98871  0.36823  0.34497  1.0000
  O   O15       1.0  0.51124  0.86822  0.34493  1.0000
  O   O16       1.0  0.01129  0.63180  0.65502  1.0000
  O   O17       1.0  0.26968  0.54324  0.46403  1.0000
  O   O18       1.0  0.76965  0.95673  0.53595  1.0000
  O   O19       1.0  0.73035  0.45675  0.53597  1.0000
  O   O20       1.0  0.23028  0.04323  0.46402  1.0000
