data_image0
_chemical_formula_structural       ZnH32C26N4O6
_chemical_formula_sum              "Zn1 H32 C26 N4 O6"
_cell_length_a       7.4747
_cell_length_b       8.39594
_cell_length_c       11.3875
_cell_angle_alpha    87.3078
_cell_angle_beta     79.0395
_cell_angle_gamma    66.3246

_space_group_name_H-M_alt    "P 1"
_space_group_IT_number       1

loop_
  _space_group_symop_operation_xyz
  'x, y, z'

loop_
  _atom_site_type_symbol
  _atom_site_label
  _atom_site_symmetry_multiplicity
  _atom_site_fract_x
  _atom_site_fract_y
  _atom_site_fract_z
  _atom_site_occupancy
  Zn  Zn1       1.0  1.00000  1.00000  1.00000  1.0000
  H   H1        1.0  0.29989  0.65162  0.88745  1.0000
  H   H2        1.0  0.70012  0.34838  0.11255  1.0000
  H   H3        1.0  0.83736  0.38387  0.24588  1.0000
  H   H4        1.0  0.16263  0.61614  0.75412  1.0000
  H   H5        1.0  0.64512  0.95287  0.07983  1.0000
  H   H6        1.0  0.35487  0.04713  0.92017  1.0000
  H   H7        1.0  0.43012  0.33719  0.93991  1.0000
  H   H8        1.0  0.56988  0.66281  0.06010  1.0000
  H   H9        1.0  0.68253  0.01848  0.94534  1.0000
  H   H10       1.0  0.31746  0.98150  0.05465  1.0000
  H   H11       1.0  0.30344  0.25639  0.14495  1.0000
  H   H12       1.0  0.69656  0.74360  0.85505  1.0000
  H   H13       1.0  0.90776  0.79609  0.21064  1.0000
  H   H14       1.0  0.09222  0.20390  0.78936  1.0000
  H   H15       1.0  0.97350  0.58960  0.37983  1.0000
  H   H16       1.0  0.02649  0.41041  0.62017  1.0000
  H   H17       1.0  0.10224  0.36227  0.34894  1.0000
  H   H18       1.0  0.89774  0.63774  0.65108  1.0000
  H   H19       1.0  0.78620  0.34732  0.46759  1.0000
  H   H20       1.0  0.21380  0.65268  0.53241  1.0000
  H   H21       1.0  0.71644  0.65363  0.52307  1.0000
  H   H22       1.0  0.28355  0.34637  0.47694  1.0000
  H   H23       1.0  0.51081  0.72832  0.44938  1.0000
  H   H24       1.0  0.48918  0.27168  0.55062  1.0000
  H   H25       1.0  0.59726  0.28948  0.32895  1.0000
  H   H26       1.0  0.40274  0.71051  0.67105  1.0000
  H   H27       1.0  0.43798  0.51348  0.33557  1.0000
  H   H28       1.0  0.56202  0.48652  0.66443  1.0000
  H   H29       1.0  0.31240  0.03494  0.41166  1.0000
  H   H30       1.0  0.68764  0.96506  0.58832  1.0000
  H   H31       1.0  0.77948  0.98609  0.36652  1.0000
  H   H32       1.0  0.22057  0.01391  0.63348  1.0000
  C   C1        1.0  0.24154  0.60865  0.97216  1.0000
  C   C2        1.0  0.75844  0.39135  0.02785  1.0000
  C   C3        1.0  0.31501  0.43508  0.00310  1.0000
  C   C4        1.0  0.68499  0.56491  0.99690  1.0000
  C   C5        1.0  0.24387  0.39082  0.11675  1.0000
  C   C6        1.0  0.75612  0.60918  0.88325  1.0000
  C   C7        1.0  0.09557  0.52107  0.19444  1.0000
  C   C8        1.0  0.90442  0.47892  0.80556  1.0000
  C   C9        1.0  0.02553  0.69053  0.15396  1.0000
  C   C10       1.0  0.97447  0.30947  0.84603  1.0000
  C   C11       1.0  0.00028  0.48491  0.31549  1.0000
  C   C12       1.0  0.99972  0.51510  0.68451  1.0000
  C   C13       1.0  0.69271  0.45589  0.41743  1.0000
  C   C14       1.0  0.30728  0.54411  0.58258  1.0000
  C   C15       1.0  0.60034  0.61921  0.49926  1.0000
  C   C16       1.0  0.39966  0.38079  0.50074  1.0000
  C   C17       1.0  0.52938  0.40771  0.38734  1.0000
  C   C18       1.0  0.47062  0.59229  0.61267  1.0000
  C   C19       1.0  0.10753  0.02219  0.24202  1.0000
  C   C20       1.0  0.89248  0.97781  0.75797  1.0000
  C   C21       1.0  0.05233  0.01083  0.37535  1.0000
  C   C22       1.0  0.94766  0.98918  0.62463  1.0000
  C   C23       1.0  0.17554  0.01990  0.45119  1.0000
  C   C24       1.0  0.82448  0.98010  0.54880  1.0000
  C   C25       1.0  0.87631  0.99082  0.42547  1.0000
  C   C26       1.0  0.12368  0.00917  0.57452  1.0000
  N   N1        1.0  0.09871  0.73487  0.04651  1.0000
  N   N2        1.0  0.90130  0.26512  0.95349  1.0000
  N   N3        1.0  0.80974  0.48187  0.30557  1.0000
  N   N4        1.0  0.19025  0.51814  0.69443  1.0000
  O   O1        1.0  0.96511  0.06724  0.18364  1.0000
  O   O2        1.0  0.03490  0.93276  0.81635  1.0000
  O   O3        1.0  0.28897  0.98640  0.19654  1.0000
  O   O4        1.0  0.71104  0.01360  0.80344  1.0000
  O   O5        1.0  0.68447  0.03744  0.03304  1.0000
  O   O6        1.0  0.31553  0.96255  0.96695  1.0000
