data_image0
_chemical_formula_structural       Dy2H14C16S2N2O14
_chemical_formula_sum              "Dy2 H14 C16 S2 N2 O14"
_cell_length_a       7.01138
_cell_length_b       10.4319
_cell_length_c       10.4319
_cell_angle_alpha    66.1003
_cell_angle_beta     70.0573
_cell_angle_gamma    70.0589

_space_group_name_H-M_alt    "P 1"
_space_group_IT_number       1

loop_
  _space_group_symop_operation_xyz
  'x, y, z'

loop_
  _atom_site_type_symbol
  _atom_site_label
  _atom_site_symmetry_multiplicity
  _atom_site_fract_x
  _atom_site_fract_y
  _atom_site_fract_z
  _atom_site_occupancy
  Dy  Dy1       1.0  0.87167  0.82303  0.82303  1.0000
  Dy  Dy2       1.0  0.12835  0.17696  0.17696  1.0000
  H   H1        1.0  0.75772  0.63974  0.27506  1.0000
  H   H2        1.0  0.24230  0.72495  0.36030  1.0000
  H   H3        1.0  0.24226  0.36023  0.72496  1.0000
  H   H4        1.0  0.75771  0.27505  0.63976  1.0000
  H   H5        1.0  0.68361  0.80176  0.42101  1.0000
  H   H6        1.0  0.31641  0.57902  0.19826  1.0000
  H   H7        1.0  0.31640  0.19824  0.57898  1.0000
  H   H8        1.0  0.68359  0.42102  0.80176  1.0000
  H   H9        1.0  0.79614  0.39201  0.39203  1.0000
  H   H10       1.0  0.20384  0.60796  0.60804  1.0000
  H   H11       1.0  0.15990  0.91043  0.91044  1.0000
  H   H12       1.0  0.84007  0.08958  0.08957  1.0000
  H   H13       1.0  0.30642  0.81317  0.81316  1.0000
  H   H14       1.0  0.69359  0.18685  0.18684  1.0000
  C   C1        1.0  0.74140  0.59955  0.39149  1.0000
  C   C2        1.0  0.25862  0.60851  0.40048  1.0000
  C   C3        1.0  0.25859  0.40043  0.60852  1.0000
  C   C4        1.0  0.74139  0.39149  0.59957  1.0000
  C   C5        1.0  0.70173  0.68569  0.47300  1.0000
  C   C6        1.0  0.29827  0.52701  0.31433  1.0000
  C   C7        1.0  0.29826  0.31432  0.52699  1.0000
  C   C8        1.0  0.70173  0.47302  0.68569  1.0000
  C   C9        1.0  0.68152  0.62441  0.62440  1.0000
  C   C10       1.0  0.31848  0.37561  0.37560  1.0000
  C   C11       1.0  0.08005  0.93275  0.48428  1.0000
  C   C12       1.0  0.91994  0.51571  0.06725  1.0000
  C   C13       1.0  0.91993  0.06725  0.51571  1.0000
  C   C14       1.0  0.08003  0.48428  0.93276  1.0000
  C   C15       1.0  0.57547  0.02183  0.02181  1.0000
  C   C16       1.0  0.42458  0.97814  0.97813  1.0000
  S   S1        1.0  0.62045  0.72991  0.72987  1.0000
  S   S2        1.0  0.37954  0.27015  0.27008  1.0000
  N   N1        1.0  0.76092  0.45547  0.45548  1.0000
  N   N2        1.0  0.23907  0.54451  0.54455  1.0000
  O   O1        1.0  0.09842  0.81929  0.59207  1.0000
  O   O2        1.0  0.90157  0.40791  0.18072  1.0000
  O   O3        1.0  0.90156  0.18071  0.40790  1.0000
  O   O4        1.0  0.09840  0.59208  0.81928  1.0000
  O   O5        1.0  0.17819  0.94639  0.35427  1.0000
  O   O6        1.0  0.82182  0.64571  0.05361  1.0000
  O   O7        1.0  0.82184  0.05362  0.64570  1.0000
  O   O8        1.0  0.17815  0.35427  0.94639  1.0000
  O   O9        1.0  0.76946  0.97593  0.97591  1.0000
  O   O10       1.0  0.23058  0.02404  0.02404  1.0000
  O   O11       1.0  0.49220  0.10097  0.10094  1.0000
  O   O12       1.0  0.50785  0.89901  0.89902  1.0000
  O   O13       1.0  0.15778  0.85474  0.85472  1.0000
  O   O14       1.0  0.84222  0.14528  0.14526  1.0000
