data_image0
_chemical_formula_structural       Er2H14C16S2N2O14
_chemical_formula_sum              "Er2 H14 C16 S2 N2 O14"
_cell_length_a       6.9802
_cell_length_b       10.4365
_cell_length_c       10.4391
_cell_angle_alpha    65.6154
_cell_angle_beta     69.3849
_cell_angle_gamma    69.4748

_space_group_name_H-M_alt    "P 1"
_space_group_IT_number       1

loop_
  _space_group_symop_operation_xyz
  'x, y, z'

loop_
  _atom_site_type_symbol
  _atom_site_label
  _atom_site_symmetry_multiplicity
  _atom_site_fract_x
  _atom_site_fract_y
  _atom_site_fract_z
  _atom_site_occupancy
  Er  Er1       1.0  0.86950  0.82230  0.82252  1.0000
  Er  Er2       1.0  0.13050  0.17762  0.17755  1.0000
  H   H1        1.0  0.75722  0.64145  0.27436  1.0000
  H   H2        1.0  0.24286  0.72580  0.35868  1.0000
  H   H3        1.0  0.24287  0.35832  0.72549  1.0000
  H   H4        1.0  0.75713  0.27434  0.64149  1.0000
  H   H5        1.0  0.68510  0.80287  0.41986  1.0000
  H   H6        1.0  0.31495  0.58057  0.19700  1.0000
  H   H7        1.0  0.31498  0.19722  0.57964  1.0000
  H   H8        1.0  0.68496  0.41988  0.80291  1.0000
  H   H9        1.0  0.79503  0.39245  0.39243  1.0000
  H   H10       1.0  0.20503  0.60737  0.60777  1.0000
  H   H11       1.0  0.15902  0.90580  0.90595  1.0000
  H   H12       1.0  0.84095  0.09387  0.09441  1.0000
  H   H13       1.0  0.30819  0.80816  0.80814  1.0000
  H   H14       1.0  0.69180  0.19146  0.19226  1.0000
  C   C1        1.0  0.74170  0.60040  0.39116  1.0000
  C   C2        1.0  0.25834  0.60901  0.39965  1.0000
  C   C3        1.0  0.25834  0.39954  0.60869  1.0000
  C   C4        1.0  0.74163  0.39115  0.60043  1.0000
  C   C5        1.0  0.70269  0.68637  0.47248  1.0000
  C   C6        1.0  0.29737  0.52784  0.31350  1.0000
  C   C7        1.0  0.29742  0.31372  0.52719  1.0000
  C   C8        1.0  0.70262  0.47248  0.68640  1.0000
  C   C9        1.0  0.68290  0.62431  0.62431  1.0000
  C   C10       1.0  0.31715  0.37601  0.37537  1.0000
  C   C11       1.0  0.42244  0.97920  0.97941  1.0000
  C   C12       1.0  0.57756  0.02080  0.02059  1.0000
  C   C13       1.0  0.91854  0.51597  0.06727  1.0000
  C   C14       1.0  0.08150  0.93284  0.48395  1.0000
  C   C15       1.0  0.08109  0.48390  0.93273  1.0000
  C   C16       1.0  0.91882  0.06715  0.51619  1.0000
  S   S1        1.0  0.62183  0.72972  0.72975  1.0000
  S   S2        1.0  0.37811  0.27094  0.26960  1.0000
  N   N1        1.0  0.76062  0.45581  0.45582  1.0000
  N   N2        1.0  0.23935  0.54416  0.54423  1.0000
  O   O1        1.0  0.50363  0.89963  0.90025  1.0000
  O   O2        1.0  0.49635  0.10046  0.09966  1.0000
  O   O3        1.0  0.22741  0.02722  0.02734  1.0000
  O   O4        1.0  0.77258  0.97268  0.97275  1.0000
  O   O5        1.0  0.81782  0.64664  0.05243  1.0000
  O   O6        1.0  0.18233  0.94780  0.35316  1.0000
  O   O7        1.0  0.18183  0.35324  0.94749  1.0000
  O   O8        1.0  0.81799  0.05226  0.64696  1.0000
  O   O9        1.0  0.90103  0.40797  0.18187  1.0000
  O   O10       1.0  0.09904  0.81829  0.59194  1.0000
  O   O11       1.0  0.09864  0.59193  0.81816  1.0000
  O   O12       1.0  0.90126  0.18170  0.40818  1.0000
  O   O13       1.0  0.15740  0.85039  0.85039  1.0000
  O   O14       1.0  0.84258  0.14899  0.15025  1.0000
