data_image0
_chemical_formula_structural       Mn3H12C16N2O16
_chemical_formula_sum              "Mn3 H12 C16 N2 O16"
_cell_length_a       6.36738
_cell_length_b       8.43541
_cell_length_c       9.84855
_cell_angle_alpha    110.172
_cell_angle_beta     95.801
_cell_angle_gamma    100.438

_space_group_name_H-M_alt    "P 1"
_space_group_IT_number       1

loop_
  _space_group_symop_operation_xyz
  'x, y, z'

loop_
  _atom_site_type_symbol
  _atom_site_label
  _atom_site_symmetry_multiplicity
  _atom_site_fract_x
  _atom_site_fract_y
  _atom_site_fract_z
  _atom_site_occupancy
  Mn  Mn1       1.0  0.92852  0.93806  0.67399  1.0000
  Mn  Mn2       1.0  0.07148  0.06194  0.32601  1.0000
  Mn  Mn3       1.0  0.50000  0.50000  0.00000  1.0000
  H   H1        1.0  0.70584  0.33064  0.21530  1.0000
  H   H2        1.0  0.29416  0.66935  0.78470  1.0000
  H   H3        1.0  0.63122  0.29433  0.63573  1.0000
  H   H4        1.0  0.36878  0.70567  0.36427  1.0000
  H   H5        1.0  0.70949  0.22560  0.92581  1.0000
  H   H6        1.0  0.29051  0.77439  0.07419  1.0000
  H   H7        1.0  0.45484  0.15688  0.87662  1.0000
  H   H8        1.0  0.54516  0.84312  0.12338  1.0000
  H   H9        1.0  0.00982  0.14728  0.97937  1.0000
  H   H10       1.0  0.99019  0.85272  0.02063  1.0000
  H   H11       1.0  0.04760  0.25545  0.87679  1.0000
  H   H12       1.0  0.95240  0.74455  0.12321  1.0000
  C   C1        1.0  0.78987  0.56848  0.40689  1.0000
  C   C2        1.0  0.21013  0.43152  0.59311  1.0000
  C   C3        1.0  0.85013  0.68505  0.32473  1.0000
  C   C4        1.0  0.14987  0.31495  0.67527  1.0000
  C   C5        1.0  0.78358  0.64343  0.79466  1.0000
  C   C6        1.0  0.21643  0.35657  0.20534  1.0000
  C   C7        1.0  0.71843  0.38932  0.33413  1.0000
  C   C8        1.0  0.28157  0.61068  0.66587  1.0000
  C   C9        1.0  0.67572  0.36903  0.56794  1.0000
  C   C10       1.0  0.32428  0.63097  0.43206  1.0000
  C   C11       1.0  0.58398  0.09519  0.34235  1.0000
  C   C12       1.0  0.41602  0.90481  0.65765  1.0000
  C   C13       1.0  0.66127  0.28795  0.41666  1.0000
  C   C14       1.0  0.33873  0.71205  0.58334  1.0000
  C   C15       1.0  0.75485  0.54834  0.63183  1.0000
  C   C16       1.0  0.24515  0.45166  0.36817  1.0000
  N   N1        1.0  0.81276  0.64667  0.55341  1.0000
  N   N2        1.0  0.18724  0.35333  0.44659  1.0000
  O   O1        1.0  0.95702  0.83887  0.40112  1.0000
  O   O2        1.0  0.04298  0.16113  0.59888  1.0000
  O   O3        1.0  0.79487  0.62030  0.18523  1.0000
  O   O4        1.0  0.20513  0.37970  0.81477  1.0000
  O   O5        1.0  0.94328  0.15699  0.88694  1.0000
  O   O6        1.0  0.05672  0.84301  0.11306  1.0000
  O   O7        1.0  0.40008  0.02320  0.35644  1.0000
  O   O8        1.0  0.59993  0.97680  0.64356  1.0000
  O   O9        1.0  0.86997  0.80572  0.84349  1.0000
  O   O10       1.0  0.13004  0.19428  0.15651  1.0000
  O   O11       1.0  0.56865  0.25138  0.95333  1.0000
  O   O12       1.0  0.43135  0.74862  0.04667  1.0000
  O   O13       1.0  0.71166  0.01657  0.26621  1.0000
  O   O14       1.0  0.28834  0.98343  0.73379  1.0000
  O   O15       1.0  0.72530  0.55488  0.87089  1.0000
  O   O16       1.0  0.27470  0.44513  0.12911  1.0000
