data_image0
_chemical_formula_structural       Hg4H24C20S8N16
_chemical_formula_sum              "Hg4 H24 C20 S8 N16"
_cell_length_a       5.98601
_cell_length_b       7.80301
_cell_length_c       19.4034
_cell_angle_alpha    89.9998
_cell_angle_beta     89.9975
_cell_angle_gamma    105.651

_space_group_name_H-M_alt    "P 1"
_space_group_IT_number       1

loop_
  _space_group_symop_operation_xyz
  'x, y, z'

loop_
  _atom_site_type_symbol
  _atom_site_label
  _atom_site_symmetry_multiplicity
  _atom_site_fract_x
  _atom_site_fract_y
  _atom_site_fract_z
  _atom_site_occupancy
  Hg  Hg1       1.0  0.80837  0.66765  0.91374  1.0000
  Hg  Hg2       1.0  0.19164  0.33237  0.41374  1.0000
  Hg  Hg3       1.0  0.19160  0.33236  0.08627  1.0000
  Hg  Hg4       1.0  0.80838  0.66765  0.58626  1.0000
  H   H1        1.0  0.20003  0.97739  0.81132  1.0000
  H   H2        1.0  0.79997  0.02261  0.31133  1.0000
  H   H3        1.0  0.79996  0.02260  0.18868  1.0000
  H   H4        1.0  0.20005  0.97741  0.68868  1.0000
  H   H5        1.0  0.04189  0.10530  0.85772  1.0000
  H   H6        1.0  0.95810  0.89469  0.35772  1.0000
  H   H7        1.0  0.95808  0.89468  0.14229  1.0000
  H   H8        1.0  0.04191  0.10533  0.64229  1.0000
  H   H9        1.0  0.62494  0.01757  0.85779  1.0000
  H   H10       1.0  0.37506  0.98241  0.35779  1.0000
  H   H11       1.0  0.37503  0.98239  0.14220  1.0000
  H   H12       1.0  0.62497  0.01760  0.64221  1.0000
  H   H13       1.0  0.47063  0.82349  0.81170  1.0000
  H   H14       1.0  0.52937  0.17649  0.31169  1.0000
  H   H15       1.0  0.52936  0.17649  0.18829  1.0000
  H   H16       1.0  0.47065  0.82351  0.68830  1.0000
  H   H17       1.0  0.99010  0.71171  0.75000  1.0000
  H   H18       1.0  0.00989  0.28828  0.25000  1.0000
  H   H19       1.0  0.68081  0.64719  0.75000  1.0000
  H   H20       1.0  0.31919  0.35280  0.24999  1.0000
  H   H21       1.0  0.83356  0.27887  0.79583  1.0000
  H   H22       1.0  0.16643  0.72112  0.29583  1.0000
  H   H23       1.0  0.16642  0.72111  0.20417  1.0000
  H   H24       1.0  0.83358  0.27888  0.70418  1.0000
  C   C1        1.0  0.28933  0.49851  0.85445  1.0000
  C   C2        1.0  0.71073  0.50150  0.35444  1.0000
  C   C3        1.0  0.71074  0.50148  0.14555  1.0000
  C   C4        1.0  0.28925  0.49852  0.64555  1.0000
  C   C5        1.0  0.31990  0.79142  0.98223  1.0000
  C   C6        1.0  0.68007  0.20859  0.48222  1.0000
  C   C7        1.0  0.68006  0.20860  0.01777  1.0000
  C   C8        1.0  0.31994  0.79142  0.51778  1.0000
  C   C9        1.0  0.04415  0.02549  0.81128  1.0000
  C   C10       1.0  0.95584  0.97451  0.31128  1.0000
  C   C11       1.0  0.95583  0.97450  0.18873  1.0000
  C   C12       1.0  0.04417  0.02551  0.68873  1.0000
  C   C13       1.0  0.62475  0.93790  0.81121  1.0000
  C   C14       1.0  0.37524  0.06209  0.31120  1.0000
  C   C15       1.0  0.37523  0.06208  0.18879  1.0000
  C   C16       1.0  0.62477  0.93792  0.68879  1.0000
  C   C17       1.0  0.83559  0.76142  0.75000  1.0000
  C   C18       1.0  0.16441  0.23858  0.25000  1.0000
  C   C19       1.0  0.83330  0.19654  0.75000  1.0000
  C   C20       1.0  0.16669  0.80345  0.25000  1.0000
  S   S1        1.0  0.49814  0.40235  0.86958  1.0000
  S   S2        1.0  0.50188  0.59763  0.36956  1.0000
  S   S3        1.0  0.50190  0.59763  0.13043  1.0000
  S   S4        1.0  0.49810  0.40239  0.63044  1.0000
  S   S5        1.0  0.06042  0.76694  0.01590  1.0000
  S   S6        1.0  0.93954  0.23307  0.51590  1.0000
  S   S7        1.0  0.93956  0.23309  0.98410  1.0000
  S   S8        1.0  0.06047  0.76692  0.48410  1.0000
  N   N1        1.0  0.13743  0.56440  0.84274  1.0000
  N   N2        1.0  0.86263  0.43560  0.34272  1.0000
  N   N3        1.0  0.86262  0.43560  0.15727  1.0000
  N   N4        1.0  0.13736  0.56441  0.65728  1.0000
  N   N5        1.0  0.50945  0.81336  0.96067  1.0000
  N   N6        1.0  0.49053  0.18664  0.46066  1.0000
  N   N7        1.0  0.49051  0.18663  0.03933  1.0000
  N   N8        1.0  0.50948  0.81340  0.53934  1.0000
  N   N9        1.0  0.83471  0.86858  0.81302  1.0000
  N   N10       1.0  0.16529  0.13141  0.31302  1.0000
  N   N11       1.0  0.16528  0.13140  0.18698  1.0000
  N   N12       1.0  0.83473  0.86860  0.68698  1.0000
  N   N13       1.0  0.04426  0.13390  0.75000  1.0000
  N   N14       1.0  0.95574  0.86610  0.25000  1.0000
  N   N15       1.0  0.62293  0.04587  0.75000  1.0000
  N   N16       1.0  0.37707  0.95413  0.25000  1.0000
