data_image0
_chemical_formula_structural       Zn8H32C24N32O16
_chemical_formula_sum              "Zn8 H32 C24 N32 O16"
_cell_length_a       9.10565
_cell_length_b       10.4461
_cell_length_c       12.504
_cell_angle_alpha    90
_cell_angle_beta     90
_cell_angle_gamma    90

_space_group_name_H-M_alt    "P 1"
_space_group_IT_number       1

loop_
  _space_group_symop_operation_xyz
  'x, y, z'

loop_
  _atom_site_type_symbol
  _atom_site_label
  _atom_site_symmetry_multiplicity
  _atom_site_fract_x
  _atom_site_fract_y
  _atom_site_fract_z
  _atom_site_occupancy
  Zn  Zn1       1.0  0.08764  0.39674  0.09995  1.0000
  Zn  Zn2       1.0  0.41236  0.60326  0.59995  1.0000
  Zn  Zn3       1.0  0.91236  0.89674  0.40005  1.0000
  Zn  Zn4       1.0  0.58764  0.10326  0.90005  1.0000
  Zn  Zn5       1.0  0.91236  0.60326  0.90005  1.0000
  Zn  Zn6       1.0  0.58764  0.39674  0.40005  1.0000
  Zn  Zn7       1.0  0.08764  0.10326  0.59995  1.0000
  Zn  Zn8       1.0  0.41236  0.89674  0.09995  1.0000
  H   H1        1.0  0.28187  0.42851  0.90631  1.0000
  H   H2        1.0  0.21813  0.57149  0.40631  1.0000
  H   H3        1.0  0.71813  0.92851  0.59369  1.0000
  H   H4        1.0  0.78187  0.07149  0.09369  1.0000
  H   H5        1.0  0.71813  0.57149  0.09369  1.0000
  H   H6        1.0  0.78187  0.42851  0.59369  1.0000
  H   H7        1.0  0.28187  0.07149  0.40631  1.0000
  H   H8        1.0  0.21813  0.92851  0.90631  1.0000
  H   H9        1.0  0.40723  0.33548  0.83630  1.0000
  H   H10       1.0  0.09277  0.66452  0.33630  1.0000
  H   H11       1.0  0.59277  0.83548  0.66370  1.0000
  H   H12       1.0  0.90723  0.16452  0.16370  1.0000
  H   H13       1.0  0.59277  0.66452  0.16370  1.0000
  H   H14       1.0  0.90723  0.33548  0.66370  1.0000
  H   H15       1.0  0.40723  0.16452  0.33630  1.0000
  H   H16       1.0  0.09277  0.83548  0.83630  1.0000
  H   H17       1.0  0.17064  0.10439  0.16595  1.0000
  H   H18       1.0  0.32936  0.89561  0.66595  1.0000
  H   H19       1.0  0.82936  0.60439  0.33405  1.0000
  H   H20       1.0  0.67064  0.39561  0.83405  1.0000
  H   H21       1.0  0.82936  0.89561  0.83405  1.0000
  H   H22       1.0  0.67064  0.10439  0.33405  1.0000
  H   H23       1.0  0.17064  0.39561  0.66595  1.0000
  H   H24       1.0  0.32936  0.60439  0.16595  1.0000
  H   H25       1.0  0.04861  0.35236  0.40060  1.0000
  H   H26       1.0  0.45139  0.64763  0.90060  1.0000
  H   H27       1.0  0.95139  0.85237  0.09940  1.0000
  H   H28       1.0  0.54861  0.14763  0.59940  1.0000
  H   H29       1.0  0.95139  0.64764  0.59940  1.0000
  H   H30       1.0  0.54861  0.35237  0.09940  1.0000
  H   H31       1.0  0.04861  0.14764  0.90060  1.0000
  H   H32       1.0  0.45139  0.85237  0.40060  1.0000
  C   C1        1.0  0.23417  0.13576  0.09730  1.0000
  C   C2        1.0  0.26583  0.86424  0.59730  1.0000
  C   C3        1.0  0.76582  0.63576  0.40270  1.0000
  C   C4        1.0  0.73417  0.36424  0.90270  1.0000
  C   C5        1.0  0.76583  0.86424  0.90270  1.0000
  C   C6        1.0  0.73418  0.13576  0.40270  1.0000
  C   C7        1.0  0.23417  0.36424  0.59730  1.0000
  C   C8        1.0  0.26583  0.63576  0.09730  1.0000
  C   C9        1.0  0.32227  0.25332  0.97123  1.0000
  C   C10       1.0  0.17773  0.74668  0.47123  1.0000
  C   C11       1.0  0.67773  0.75332  0.52877  1.0000
  C   C12       1.0  0.82227  0.24668  0.02877  1.0000
  C   C13       1.0  0.67773  0.74668  0.02877  1.0000
  C   C14       1.0  0.82227  0.25332  0.52877  1.0000
  C   C15       1.0  0.32227  0.24668  0.47123  1.0000
  C   C16       1.0  0.17773  0.75332  0.97123  1.0000
  C   C17       1.0  0.05037  0.33129  0.31351  1.0000
  C   C18       1.0  0.44963  0.66870  0.81351  1.0000
  C   C19       1.0  0.94963  0.83129  0.18649  1.0000
  C   C20       1.0  0.55037  0.16870  0.68649  1.0000
  C   C21       1.0  0.94963  0.66871  0.68649  1.0000
  C   C22       1.0  0.55037  0.33129  0.18649  1.0000
  C   C23       1.0  0.05037  0.16871  0.81351  1.0000
  C   C24       1.0  0.44963  0.83129  0.31351  1.0000
  N   N1        1.0  0.22216  0.25381  0.05286  1.0000
  N   N2        1.0  0.27784  0.74619  0.55286  1.0000
  N   N3        1.0  0.77784  0.75381  0.44714  1.0000
  N   N4        1.0  0.72216  0.24619  0.94714  1.0000
  N   N5        1.0  0.77784  0.74619  0.94714  1.0000
  N   N6        1.0  0.72216  0.25381  0.44714  1.0000
  N   N7        1.0  0.22216  0.24619  0.55286  1.0000
  N   N8        1.0  0.27784  0.75381  0.05286  1.0000
  N   N9        1.0  0.33341  0.06488  0.04796  1.0000
  N   N10       1.0  0.16659  0.93513  0.54796  1.0000
  N   N11       1.0  0.66659  0.56488  0.45204  1.0000
  N   N12       1.0  0.83341  0.43513  0.95204  1.0000
  N   N13       1.0  0.66659  0.93513  0.95204  1.0000
  N   N14       1.0  0.83341  0.06488  0.45204  1.0000
  N   N15       1.0  0.33341  0.43513  0.54796  1.0000
  N   N16       1.0  0.16659  0.56488  0.04796  1.0000
  N   N17       1.0  0.39208  0.13953  0.96637  1.0000
  N   N18       1.0  0.10792  0.86048  0.46637  1.0000
  N   N19       1.0  0.60792  0.63953  0.53363  1.0000
  N   N20       1.0  0.89208  0.36048  0.03363  1.0000
  N   N21       1.0  0.60792  0.86048  0.03363  1.0000
  N   N22       1.0  0.89208  0.13953  0.53363  1.0000
  N   N23       1.0  0.39208  0.36047  0.46637  1.0000
  N   N24       1.0  0.10792  0.63953  0.96637  1.0000
  N   N25       1.0  0.35146  0.35293  0.90631  1.0000
  N   N26       1.0  0.14854  0.64708  0.40631  1.0000
  N   N27       1.0  0.64854  0.85293  0.59369  1.0000
  N   N28       1.0  0.85146  0.14708  0.09369  1.0000
  N   N29       1.0  0.64854  0.64707  0.09369  1.0000
  N   N30       1.0  0.85146  0.35292  0.59369  1.0000
  N   N31       1.0  0.35146  0.14707  0.40631  1.0000
  N   N32       1.0  0.14854  0.85293  0.90631  1.0000
  O   O1        1.0  0.09384  0.42603  0.25540  1.0000
  O   O2        1.0  0.40616  0.57397  0.75540  1.0000
  O   O3        1.0  0.90616  0.92603  0.24460  1.0000
  O   O4        1.0  0.59384  0.07397  0.74460  1.0000
  O   O5        1.0  0.90616  0.57397  0.74460  1.0000
  O   O6        1.0  0.59384  0.42603  0.24460  1.0000
  O   O7        1.0  0.09384  0.07397  0.75540  1.0000
  O   O8        1.0  0.40616  0.92603  0.25540  1.0000
  O   O9        1.0  0.01207  0.22330  0.28119  1.0000
  O   O10       1.0  0.48793  0.77669  0.78119  1.0000
  O   O11       1.0  0.98793  0.72330  0.21881  1.0000
  O   O12       1.0  0.51207  0.27669  0.71881  1.0000
  O   O13       1.0  0.98793  0.77670  0.71881  1.0000
  O   O14       1.0  0.51207  0.22331  0.21881  1.0000
  O   O15       1.0  0.01207  0.27670  0.78119  1.0000
  O   O16       1.0  0.48793  0.72331  0.28119  1.0000
