data_image0
_chemical_formula_structural       Zn2H32C52S2N4O16
_chemical_formula_sum              "Zn2 H32 C52 S2 N4 O16"
_cell_length_a       9.65014
_cell_length_b       10.7775
_cell_length_c       12.2062
_cell_angle_alpha    103.842
_cell_angle_beta     99.4232
_cell_angle_gamma    108.236

_space_group_name_H-M_alt    "P 1"
_space_group_IT_number       1

loop_
  _space_group_symop_operation_xyz
  'x, y, z'

loop_
  _atom_site_type_symbol
  _atom_site_label
  _atom_site_symmetry_multiplicity
  _atom_site_fract_x
  _atom_site_fract_y
  _atom_site_fract_z
  _atom_site_occupancy
  Zn  Zn1       1.0  0.06800  0.45094  0.40907  1.0000
  Zn  Zn2       1.0  0.93200  0.54906  0.59093  1.0000
  H   H1        1.0  0.79374  0.83934  0.45467  1.0000
  H   H2        1.0  0.20626  0.16066  0.54533  1.0000
  H   H3        1.0  0.79542  0.04169  0.38863  1.0000
  H   H4        1.0  0.20458  0.95831  0.61137  1.0000
  H   H5        1.0  0.93857  0.09883  0.24410  1.0000
  H   H6        1.0  0.06143  0.90117  0.75590  1.0000
  H   H7        1.0  0.26273  0.05710  0.36757  1.0000
  H   H8        1.0  0.73727  0.94290  0.63243  1.0000
  H   H9        1.0  0.63637  0.15996  0.13474  1.0000
  H   H10       1.0  0.36363  0.84004  0.86526  1.0000
  H   H11       1.0  0.36453  0.02416  0.03238  1.0000
  H   H12       1.0  0.63547  0.97584  0.96762  1.0000
  H   H13       1.0  0.38889  0.47309  0.43211  1.0000
  H   H14       1.0  0.61111  0.52691  0.56789  1.0000
  H   H15       1.0  0.55428  0.43955  0.30174  1.0000
  H   H16       1.0  0.44572  0.56045  0.69826  1.0000
  H   H17       1.0  0.16406  0.32429  0.00966  1.0000
  H   H18       1.0  0.83594  0.67570  0.99034  1.0000
  H   H19       1.0  0.01897  0.35955  0.15282  1.0000
  H   H20       1.0  0.98102  0.64044  0.84718  1.0000
  H   H21       1.0  0.68754  0.47595  0.18189  1.0000
  H   H22       1.0  0.31246  0.52405  0.81810  1.0000
  H   H23       1.0  0.29842  0.70176  0.16430  1.0000
  H   H24       1.0  0.70159  0.29824  0.83570  1.0000
  H   H25       1.0  0.83032  0.43550  0.03245  1.0000
  H   H26       1.0  0.16968  0.56450  0.96755  1.0000
  H   H27       1.0  0.43664  0.20503  0.76961  1.0000
  H   H28       1.0  0.56336  0.79498  0.23039  1.0000
  H   H29       1.0  0.27446  0.23062  0.90769  1.0000
  H   H30       1.0  0.72554  0.76938  0.09231  1.0000
  H   H31       1.0  0.70216  0.18170  0.62238  1.0000
  H   H32       1.0  0.29784  0.81830  0.37762  1.0000
  C   C1        1.0  0.00786  0.92364  0.22358  1.0000
  C   C2        1.0  0.99214  0.07636  0.77642  1.0000
  C   C3        1.0  0.00425  0.80744  0.25890  1.0000
  C   C4        1.0  0.99574  0.19256  0.74110  1.0000
  C   C5        1.0  0.93008  0.78081  0.34554  1.0000
  C   C6        1.0  0.06992  0.21919  0.65445  1.0000
  C   C7        1.0  0.85380  0.86468  0.39013  1.0000
  C   C8        1.0  0.14620  0.13532  0.60987  1.0000
  C   C9        1.0  0.85401  0.97673  0.35226  1.0000
  C   C10       1.0  0.14599  0.02327  0.64774  1.0000
  C   C11       1.0  0.93356  0.00810  0.27043  1.0000
  C   C12       1.0  0.06644  0.99190  0.72957  1.0000
  C   C13       1.0  0.29404  0.03794  0.19322  1.0000
  C   C14       1.0  0.70596  0.96207  0.80678  1.0000
  C   C15       1.0  0.34309  0.08022  0.31546  1.0000
  C   C16       1.0  0.65691  0.91978  0.68454  1.0000
  C   C17       1.0  0.49540  0.15146  0.37164  1.0000
  C   C18       1.0  0.50460  0.84854  0.62837  1.0000
  C   C19       1.0  0.60141  0.18670  0.30643  1.0000
  C   C20       1.0  0.39859  0.81331  0.69357  1.0000
  C   C21       1.0  0.55307  0.13534  0.18448  1.0000
  C   C22       1.0  0.44693  0.86466  0.81552  1.0000
  C   C23       1.0  0.40119  0.06074  0.12764  1.0000
  C   C24       1.0  0.59881  0.93926  0.87236  1.0000
  C   C25       1.0  0.08031  0.71761  0.19959  1.0000
  C   C26       1.0  0.91969  0.28239  0.80041  1.0000
  C   C27       1.0  0.93905  0.66893  0.39662  1.0000
  C   C28       1.0  0.06095  0.33107  0.60338  1.0000
  C   C29       1.0  0.54413  0.18398  0.50179  1.0000
  C   C30       1.0  0.45587  0.81602  0.49821  1.0000
  C   C31       1.0  0.75592  0.29291  0.36498  1.0000
  C   C32       1.0  0.24408  0.70709  0.63502  1.0000
  C   C33       1.0  0.34500  0.43854  0.33763  1.0000
  C   C34       1.0  0.65500  0.56146  0.66237  1.0000
  C   C35       1.0  0.43657  0.42016  0.26329  1.0000
  C   C36       1.0  0.56343  0.57985  0.73671  1.0000
  C   C37       1.0  0.37463  0.37593  0.14193  1.0000
  C   C38       1.0  0.62537  0.62407  0.85807  1.0000
  C   C39       1.0  0.22101  0.35271  0.10175  1.0000
  C   C40       1.0  0.77899  0.64728  0.89825  1.0000
  C   C41       1.0  0.13754  0.37442  0.18174  1.0000
  C   C42       1.0  0.86246  0.62558  0.81826  1.0000
  C   C43       1.0  0.46654  0.35601  0.05824  1.0000
  C   C44       1.0  0.53346  0.64399  0.94176  1.0000
  C   C45       1.0  0.62532  0.41331  0.09261  1.0000
  C   C46       1.0  0.37468  0.58668  0.90739  1.0000
  C   C47       1.0  0.70729  0.39150  0.01157  1.0000
  C   C48       1.0  0.29271  0.60850  0.98843  1.0000
  C   C49       1.0  0.48370  0.26144  0.86239  1.0000
  C   C50       1.0  0.51630  0.73855  0.13760  1.0000
  C   C51       1.0  0.39662  0.27878  0.94008  1.0000
  C   C52       1.0  0.60338  0.72122  0.05992  1.0000
  S   S1        1.0  0.10275  0.96134  0.11537  1.0000
  S   S2        1.0  0.89725  0.03866  0.88463  1.0000
  N   N1        1.0  0.19804  0.41621  0.29782  1.0000
  N   N2        1.0  0.80196  0.58380  0.70218  1.0000
  N   N3        1.0  0.63518  0.31708  0.89966  1.0000
  N   N4        1.0  0.36482  0.68292  0.10034  1.0000
  O   O1        1.0  0.00992  0.63004  0.10281  1.0000
  O   O2        1.0  0.99008  0.36996  0.89718  1.0000
  O   O3        1.0  0.22112  0.74723  0.24880  1.0000
  O   O4        1.0  0.77888  0.25277  0.75120  1.0000
  O   O5        1.0  0.98922  0.58255  0.34296  1.0000
  O   O6        1.0  0.01078  0.41745  0.65704  1.0000
  O   O7        1.0  0.89888  0.67112  0.49098  1.0000
  O   O8        1.0  0.10112  0.32888  0.50902  1.0000
  O   O9        1.0  0.48148  0.23627  0.56942  1.0000
  O   O10       1.0  0.51852  0.76373  0.43058  1.0000
  O   O11       1.0  0.65695  0.14283  0.53298  1.0000
  O   O12       1.0  0.34305  0.85717  0.46702  1.0000
  O   O13       1.0  0.76671  0.38158  0.45957  1.0000
  O   O14       1.0  0.23329  0.61842  0.54043  1.0000
  O   O15       1.0  0.86204  0.29295  0.31507  1.0000
  O   O16       1.0  0.13796  0.70705  0.68493  1.0000
