data_image0
_chemical_formula_structural       Cd4H48C56N8O16
_chemical_formula_sum              "Cd4 H48 C56 N8 O16"
_cell_length_a       6.83782
_cell_length_b       10.557
_cell_length_c       18.5505
_cell_angle_alpha    90
_cell_angle_beta     94.2991
_cell_angle_gamma    90

_space_group_name_H-M_alt    "P 1"
_space_group_IT_number       1

loop_
  _space_group_symop_operation_xyz
  'x, y, z'

loop_
  _atom_site_type_symbol
  _atom_site_label
  _atom_site_symmetry_multiplicity
  _atom_site_fract_x
  _atom_site_fract_y
  _atom_site_fract_z
  _atom_site_occupancy
  Cd  Cd1       1.0  0.24943  0.92049  0.49004  1.0000
  Cd  Cd2       1.0  0.75057  0.42049  0.00997  1.0000
  Cd  Cd3       1.0  0.75057  0.07952  0.50996  1.0000
  Cd  Cd4       1.0  0.24943  0.57952  0.99004  1.0000
  H   H1        1.0  0.57616  0.68816  0.72409  1.0000
  H   H2        1.0  0.42384  0.18815  0.77591  1.0000
  H   H3        1.0  0.42384  0.31184  0.27591  1.0000
  H   H4        1.0  0.57616  0.81184  0.22409  1.0000
  H   H5        1.0  0.31760  0.52531  0.74080  1.0000
  H   H6        1.0  0.68241  0.02531  0.75921  1.0000
  H   H7        1.0  0.68241  0.47470  0.25920  1.0000
  H   H8        1.0  0.31759  0.97469  0.24079  1.0000
  H   H9        1.0  0.02449  0.51766  0.65156  1.0000
  H   H10       1.0  0.97552  0.01765  0.84844  1.0000
  H   H11       1.0  0.97552  0.48234  0.34844  1.0000
  H   H12       1.0  0.02448  0.98235  0.15156  1.0000
  H   H13       1.0  0.88015  0.76791  0.53142  1.0000
  H   H14       1.0  0.11986  0.26791  0.96859  1.0000
  H   H15       1.0  0.11985  0.23209  0.46858  1.0000
  H   H16       1.0  0.88014  0.73209  0.03142  1.0000
  H   H17       1.0  0.83679  0.60559  0.55116  1.0000
  H   H18       1.0  0.16321  0.10559  0.94884  1.0000
  H   H19       1.0  0.16321  0.39441  0.44884  1.0000
  H   H20       1.0  0.83679  0.89441  0.05116  1.0000
  H   H21       1.0  0.98825  0.64848  0.48091  1.0000
  H   H22       1.0  0.01176  0.14847  0.01909  1.0000
  H   H23       1.0  0.01175  0.35152  0.51909  1.0000
  H   H24       1.0  0.98824  0.85152  0.98091  1.0000
  H   H25       1.0  0.84167  0.75419  0.25383  1.0000
  H   H26       1.0  0.15833  0.25419  0.24617  1.0000
  H   H27       1.0  0.15833  0.24581  0.74617  1.0000
  H   H28       1.0  0.84167  0.74581  0.75383  1.0000
  H   H29       1.0  0.07786  0.59279  0.21540  1.0000
  H   H30       1.0  0.92214  0.09278  0.28460  1.0000
  H   H31       1.0  0.92214  0.40722  0.78460  1.0000
  H   H32       1.0  0.07786  0.90721  0.71540  1.0000
  H   H33       1.0  0.39082  0.55895  0.29043  1.0000
  H   H34       1.0  0.60918  0.05895  0.20957  1.0000
  H   H35       1.0  0.60918  0.44105  0.70957  1.0000
  H   H36       1.0  0.39082  0.94105  0.79043  1.0000
  H   H37       1.0  0.57447  0.77498  0.43313  1.0000
  H   H38       1.0  0.42553  0.27498  0.06687  1.0000
  H   H39       1.0  0.42553  0.22502  0.56687  1.0000
  H   H40       1.0  0.57447  0.72502  0.93313  1.0000
  H   H41       1.0  0.61693  0.62656  0.39109  1.0000
  H   H42       1.0  0.38307  0.12656  0.10891  1.0000
  H   H43       1.0  0.38307  0.37344  0.60891  1.0000
  H   H44       1.0  0.61693  0.87344  0.89109  1.0000
  H   H45       1.0  0.47450  0.63505  0.46755  1.0000
  H   H46       1.0  0.52551  0.13505  0.03245  1.0000
  H   H47       1.0  0.52550  0.36495  0.53245  1.0000
  H   H48       1.0  0.47450  0.86494  0.96755  1.0000
  C   C1        1.0  0.42394  0.76466  0.62724  1.0000
  C   C2        1.0  0.57606  0.26465  0.87276  1.0000
  C   C3        1.0  0.57606  0.23535  0.37276  1.0000
  C   C4        1.0  0.42394  0.73535  0.12724  1.0000
  C   C5        1.0  0.44846  0.68131  0.68567  1.0000
  C   C6        1.0  0.55154  0.18131  0.81433  1.0000
  C   C7        1.0  0.55154  0.31869  0.31433  1.0000
  C   C8        1.0  0.44846  0.81869  0.18567  1.0000
  C   C9        1.0  0.30454  0.59043  0.69487  1.0000
  C   C10       1.0  0.69547  0.09043  0.80513  1.0000
  C   C11       1.0  0.69547  0.40957  0.30513  1.0000
  C   C12       1.0  0.30453  0.90957  0.19487  1.0000
  C   C13       1.0  0.14098  0.58629  0.64557  1.0000
  C   C14       1.0  0.85902  0.08629  0.85443  1.0000
  C   C15       1.0  0.85902  0.41371  0.35443  1.0000
  C   C16       1.0  0.14098  0.91371  0.14557  1.0000
  C   C17       1.0  0.12303  0.67304  0.58844  1.0000
  C   C18       1.0  0.87697  0.17304  0.91157  1.0000
  C   C19       1.0  0.87697  0.32696  0.41156  1.0000
  C   C20       1.0  0.12303  0.82696  0.08844  1.0000
  C   C21       1.0  0.57913  0.86427  0.61506  1.0000
  C   C22       1.0  0.42087  0.36426  0.88494  1.0000
  C   C23       1.0  0.42087  0.13573  0.38494  1.0000
  C   C24       1.0  0.57913  0.63574  0.11506  1.0000
  C   C25       1.0  0.94706  0.67340  0.53528  1.0000
  C   C26       1.0  0.05295  0.17339  0.96472  1.0000
  C   C27       1.0  0.05295  0.32660  0.46472  1.0000
  C   C28       1.0  0.94705  0.82661  0.03528  1.0000
  C   C29       1.0  0.02655  0.80758  0.34829  1.0000
  C   C30       1.0  0.97345  0.30758  0.15171  1.0000
  C   C31       1.0  0.97345  0.19242  0.65171  1.0000
  C   C32       1.0  0.02655  0.69242  0.84829  1.0000
  C   C33       1.0  0.97935  0.73839  0.28553  1.0000
  C   C34       1.0  0.02065  0.23839  0.21447  1.0000
  C   C35       1.0  0.02065  0.26161  0.71447  1.0000
  C   C36       1.0  0.97935  0.76161  0.78553  1.0000
  C   C37       1.0  0.11108  0.64782  0.26429  1.0000
  C   C38       1.0  0.88892  0.14782  0.23571  1.0000
  C   C39       1.0  0.88892  0.35218  0.73571  1.0000
  C   C40       1.0  0.11108  0.85218  0.76429  1.0000
  C   C41       1.0  0.28562  0.62893  0.30634  1.0000
  C   C42       1.0  0.71437  0.12893  0.19366  1.0000
  C   C43       1.0  0.71438  0.37107  0.69366  1.0000
  C   C44       1.0  0.28562  0.87107  0.80633  1.0000
  C   C45       1.0  0.32592  0.70140  0.36899  1.0000
  C   C46       1.0  0.67408  0.20140  0.13102  1.0000
  C   C47       1.0  0.67408  0.29860  0.63102  1.0000
  C   C48       1.0  0.32592  0.79860  0.86898  1.0000
  C   C49       1.0  0.88024  0.90241  0.37441  1.0000
  C   C50       1.0  0.11976  0.40241  0.12559  1.0000
  C   C51       1.0  0.11976  0.09760  0.62559  1.0000
  C   C52       1.0  0.88024  0.59759  0.87441  1.0000
  C   C53       1.0  0.50889  0.68335  0.41745  1.0000
  C   C54       1.0  0.49110  0.18335  0.08255  1.0000
  C   C55       1.0  0.49111  0.31665  0.58255  1.0000
  C   C56       1.0  0.50889  0.81665  0.91745  1.0000
  N   N1        1.0  0.26441  0.75971  0.57981  1.0000
  N   N2        1.0  0.73560  0.25971  0.92019  1.0000
  N   N3        1.0  0.73559  0.24029  0.42019  1.0000
  N   N4        1.0  0.26441  0.74029  0.07981  1.0000
  N   N5        1.0  0.19696  0.78934  0.38868  1.0000
  N   N6        1.0  0.80304  0.28934  0.11133  1.0000
  N   N7        1.0  0.80304  0.21066  0.61133  1.0000
  N   N8        1.0  0.19696  0.71066  0.88867  1.0000
  O   O1        1.0  0.56660  0.91550  0.55125  1.0000
  O   O2        1.0  0.43340  0.41549  0.94875  1.0000
  O   O3        1.0  0.43340  0.08451  0.44875  1.0000
  O   O4        1.0  0.56660  0.58450  0.05125  1.0000
  O   O5        1.0  0.70785  0.88698  0.66421  1.0000
  O   O6        1.0  0.29216  0.38697  0.83579  1.0000
  O   O7        1.0  0.29215  0.11302  0.33579  1.0000
  O   O8        1.0  0.70784  0.61302  0.16420  1.0000
  O   O9        1.0  0.92641  0.95005  0.43771  1.0000
  O   O10       1.0  0.07358  0.45005  0.06229  1.0000
  O   O11       1.0  0.07359  0.04995  0.56229  1.0000
  O   O12       1.0  0.92641  0.54995  0.93771  1.0000
  O   O13       1.0  0.72775  0.92516  0.33565  1.0000
  O   O14       1.0  0.27224  0.42517  0.16435  1.0000
  O   O15       1.0  0.27224  0.07483  0.66435  1.0000
  O   O16       1.0  0.72776  0.57483  0.83565  1.0000
