data_image0
_chemical_formula_structural       Zn2H16C16O12
_chemical_formula_sum              "Zn2 H16 C16 O12"
_cell_length_a       4.97777
_cell_length_b       7.84969
_cell_length_c       12.1422
_cell_angle_alpha    101.68
_cell_angle_beta     89.9056
_cell_angle_gamma    108.665

_space_group_name_H-M_alt    "P 1"
_space_group_IT_number       1

loop_
  _space_group_symop_operation_xyz
  'x, y, z'

loop_
  _atom_site_type_symbol
  _atom_site_label
  _atom_site_symmetry_multiplicity
  _atom_site_fract_x
  _atom_site_fract_y
  _atom_site_fract_z
  _atom_site_occupancy
  Zn  Zn1       1.0  0.95385  0.00071  0.25049  1.0000
  Zn  Zn2       1.0  0.04615  0.99929  0.74951  1.0000
  H   H1        1.0  0.21982  0.76699  0.91251  1.0000
  H   H2        1.0  0.45825  0.23610  0.58940  1.0000
  H   H3        1.0  0.78017  0.23301  0.08749  1.0000
  H   H4        1.0  0.54176  0.76390  0.41060  1.0000
  H   H5        1.0  0.22082  0.47543  0.17738  1.0000
  H   H6        1.0  0.74303  0.52335  0.32166  1.0000
  H   H7        1.0  0.77918  0.52457  0.82262  1.0000
  H   H8        1.0  0.25698  0.47666  0.67835  1.0000
  H   H9        1.0  0.29703  0.12453  0.08742  1.0000
  H   H10       1.0  0.17323  0.87637  0.41262  1.0000
  H   H11       1.0  0.70297  0.87547  0.91258  1.0000
  H   H12       1.0  0.82676  0.12363  0.58738  1.0000
  H   H13       1.0  0.47624  0.16476  0.20927  1.0000
  H   H14       1.0  0.31138  0.83710  0.29043  1.0000
  H   H15       1.0  0.52376  0.83524  0.79073  1.0000
  H   H16       1.0  0.68862  0.16289  0.70956  1.0000
  C   C1        1.0  0.52245  0.77886  0.10089  1.0000
  C   C2        1.0  0.74404  0.22210  0.39943  1.0000
  C   C3        1.0  0.47754  0.22114  0.89911  1.0000
  C   C4        1.0  0.25597  0.77790  0.60057  1.0000
  C   C5        1.0  0.25222  0.63557  0.04928  1.0000
  C   C6        1.0  0.61734  0.36508  0.45099  1.0000
  C   C7        1.0  0.74777  0.36442  0.95072  1.0000
  C   C8        1.0  0.38266  0.63492  0.54901  1.0000
  C   C9        1.0  0.12681  0.64783  0.94920  1.0000
  C   C10       1.0  0.48152  0.35379  0.55174  1.0000
  C   C11       1.0  0.87318  0.35217  0.05079  1.0000
  C   C12       1.0  0.51848  0.64621  0.44826  1.0000
  C   C13       1.0  0.12285  0.48707  0.10036  1.0000
  C   C14       1.0  0.63417  0.51210  0.39904  1.0000
  C   C15       1.0  0.87714  0.51293  0.89964  1.0000
  C   C16       1.0  0.36584  0.48791  0.60096  1.0000
  O   O1        1.0  0.57949  0.79498  0.20777  1.0000
  O   O2        1.0  0.78650  0.20636  0.29267  1.0000
  O   O3        1.0  0.42050  0.20502  0.79223  1.0000
  O   O4        1.0  0.21350  0.79365  0.70734  1.0000
  O   O5        1.0  0.69088  0.88115  0.04540  1.0000
  O   O6        1.0  0.80819  0.11941  0.45482  1.0000
  O   O7        1.0  0.30913  0.11885  0.95460  1.0000
  O   O8        1.0  0.19182  0.88059  0.54518  1.0000
  O   O9        1.0  0.28415  0.12695  0.17079  1.0000
  O   O10       1.0  0.15693  0.87414  0.32934  1.0000
  O   O11       1.0  0.71584  0.87305  0.82921  1.0000
  O   O12       1.0  0.84306  0.12586  0.67066  1.0000
