data_image0
_chemical_formula_structural       Zn4H32C28N8O24
_chemical_formula_sum              "Zn4 H32 C28 N8 O24"
_cell_length_a       9.33516
_cell_length_b       10.6319
_cell_length_c       11.1305
_cell_angle_alpha    118.178
_cell_angle_beta     89.9999
_cell_angle_gamma    90.0001

_space_group_name_H-M_alt    "P 1"
_space_group_IT_number       1

loop_
  _space_group_symop_operation_xyz
  'x, y, z'

loop_
  _atom_site_type_symbol
  _atom_site_label
  _atom_site_symmetry_multiplicity
  _atom_site_fract_x
  _atom_site_fract_y
  _atom_site_fract_z
  _atom_site_occupancy
  Zn  Zn1       1.0  0.67646  0.34795  0.40357  1.0000
  Zn  Zn2       1.0  0.17646  0.15205  0.09643  1.0000
  Zn  Zn3       1.0  0.32354  0.65205  0.59643  1.0000
  Zn  Zn4       1.0  0.82354  0.84795  0.90357  1.0000
  H   H1        1.0  0.84327  0.14099  0.28621  1.0000
  H   H2        1.0  0.34327  0.35901  0.21379  1.0000
  H   H3        1.0  0.15673  0.85901  0.71379  1.0000
  H   H4        1.0  0.65673  0.64099  0.78621  1.0000
  H   H5        1.0  0.93888  0.27374  0.40521  1.0000
  H   H6        1.0  0.43888  0.22626  0.09479  1.0000
  H   H7        1.0  0.06112  0.72626  0.59479  1.0000
  H   H8        1.0  0.56112  0.77374  0.90521  1.0000
  H   H9        1.0  0.64628  0.88461  0.49054  1.0000
  H   H10       1.0  0.14628  0.61538  0.00946  1.0000
  H   H11       1.0  0.35372  0.11539  0.50946  1.0000
  H   H12       1.0  0.85372  0.38462  0.99054  1.0000
  H   H13       1.0  0.67280  0.00067  0.34392  1.0000
  H   H14       1.0  0.17280  0.49933  0.15608  1.0000
  H   H15       1.0  0.32720  0.99933  0.65608  1.0000
  H   H16       1.0  0.82720  0.50067  0.84392  1.0000
  H   H17       1.0  0.99191  0.28352  0.61839  1.0000
  H   H18       1.0  0.49191  0.21648  0.88161  1.0000
  H   H19       1.0  0.00809  0.71648  0.38161  1.0000
  H   H20       1.0  0.50809  0.78352  0.11839  1.0000
  H   H21       1.0  0.96832  0.16557  0.76348  1.0000
  H   H22       1.0  0.46832  0.33443  0.73652  1.0000
  H   H23       1.0  0.03168  0.83443  0.23652  1.0000
  H   H24       1.0  0.53168  0.66557  0.26348  1.0000
  H   H25       1.0  0.42868  0.24120  0.41694  1.0000
  H   H26       1.0  0.92868  0.25880  0.08306  1.0000
  H   H27       1.0  0.57132  0.75880  0.58306  1.0000
  H   H28       1.0  0.07132  0.74120  0.91694  1.0000
  H   H29       1.0  0.45658  0.38299  0.56113  1.0000
  H   H30       1.0  0.95658  0.11701  0.93887  1.0000
  H   H31       1.0  0.54342  0.61701  0.43887  1.0000
  H   H32       1.0  0.04342  0.88299  0.06113  1.0000
  C   C1        1.0  0.79187  0.93998  0.71851  1.0000
  C   C2        1.0  0.29187  0.56001  0.78149  1.0000
  C   C3        1.0  0.20813  0.06001  0.28149  1.0000
  C   C4        1.0  0.70813  0.43999  0.21851  1.0000
  C   C5        1.0  0.80479  0.01719  0.63760  1.0000
  C   C6        1.0  0.30479  0.48281  0.86240  1.0000
  C   C7        1.0  0.19521  0.98281  0.36240  1.0000
  C   C8        1.0  0.69521  0.51719  0.13759  1.0000
  C   C9        1.0  0.72175  0.97221  0.51900  1.0000
  C   C10       1.0  0.22175  0.52779  0.98100  1.0000
  C   C11       1.0  0.27825  0.02779  0.48100  1.0000
  C   C12       1.0  0.77825  0.47221  0.01900  1.0000
  C   C13       1.0  0.73628  0.03672  0.43662  1.0000
  C   C14       1.0  0.23627  0.46328  0.06338  1.0000
  C   C15       1.0  0.26372  0.96328  0.56338  1.0000
  C   C16       1.0  0.76372  0.53672  0.93662  1.0000
  C   C17       1.0  0.83373  0.14907  0.47263  1.0000
  C   C18       1.0  0.33373  0.35093  0.02737  1.0000
  C   C19       1.0  0.16627  0.85093  0.52737  1.0000
  C   C20       1.0  0.66626  0.64907  0.97263  1.0000
  C   C21       1.0  0.91551  0.19677  0.59164  1.0000
  C   C22       1.0  0.41551  0.30323  0.90836  1.0000
  C   C23       1.0  0.08449  0.80323  0.40836  1.0000
  C   C24       1.0  0.58449  0.69677  0.09164  1.0000
  C   C25       1.0  0.90171  0.13028  0.67285  1.0000
  C   C26       1.0  0.40171  0.36971  0.82715  1.0000
  C   C27       1.0  0.09829  0.86971  0.32715  1.0000
  C   C28       1.0  0.59829  0.63028  0.17285  1.0000
  N   N1        1.0  0.84590  0.21590  0.38779  1.0000
  N   N2        1.0  0.34590  0.28410  0.11221  1.0000
  N   N3        1.0  0.15410  0.78410  0.61221  1.0000
  N   N4        1.0  0.65410  0.71590  0.88779  1.0000
  N   N5        1.0  0.84703  0.58357  0.59823  1.0000
  N   N6        1.0  0.34703  0.91643  0.90177  1.0000
  N   N7        1.0  0.15297  0.41643  0.40177  1.0000
  N   N8        1.0  0.65297  0.08357  0.09823  1.0000
  O   O1        1.0  0.69884  0.84469  0.69158  1.0000
  O   O2        1.0  0.19884  0.65530  0.80842  1.0000
  O   O3        1.0  0.30116  0.15530  0.30842  1.0000
  O   O4        1.0  0.80116  0.34470  0.19158  1.0000
  O   O5        1.0  0.88249  0.96973  0.81806  1.0000
  O   O6        1.0  0.38248  0.53027  0.68194  1.0000
  O   O7        1.0  0.11752  0.03027  0.18194  1.0000
  O   O8        1.0  0.61752  0.46973  0.31806  1.0000
  O   O9        1.0  0.50485  0.30040  0.48385  1.0000
  O   O10       1.0  0.00485  0.19960  0.01615  1.0000
  O   O11       1.0  0.49515  0.69960  0.51615  1.0000
  O   O12       1.0  0.99515  0.80040  0.98385  1.0000
  O   O13       1.0  0.73561  0.51130  0.60040  1.0000
  O   O14       1.0  0.23561  0.98870  0.89960  1.0000
  O   O15       1.0  0.26439  0.48870  0.39960  1.0000
  O   O16       1.0  0.76439  0.01130  0.10040  1.0000
  O   O17       1.0  0.91653  0.65160  0.70691  1.0000
  O   O18       1.0  0.41653  0.84840  0.79309  1.0000
  O   O19       1.0  0.08347  0.34840  0.29309  1.0000
  O   O20       1.0  0.58347  0.15160  0.20691  1.0000
  O   O21       1.0  0.88333  0.58302  0.49024  1.0000
  O   O22       1.0  0.38333  0.91698  0.00976  1.0000
  O   O23       1.0  0.11667  0.41698  0.50976  1.0000
  O   O24       1.0  0.61667  0.08302  0.99024  1.0000
