data_image0
_chemical_formula_structural       Zn2H24C20N4O8
_chemical_formula_sum              "Zn2 H24 C20 N4 O8"
_cell_length_a       5.41558
_cell_length_b       6.99429
_cell_length_c       13.9345
_cell_angle_alpha    89.9998
_cell_angle_beta     98.4137
_cell_angle_gamma    90.0003

_space_group_name_H-M_alt    "P 1"
_space_group_IT_number       1

loop_
  _space_group_symop_operation_xyz
  'x, y, z'

loop_
  _atom_site_type_symbol
  _atom_site_label
  _atom_site_symmetry_multiplicity
  _atom_site_fract_x
  _atom_site_fract_y
  _atom_site_fract_z
  _atom_site_occupancy
  Zn  Zn1       1.0  0.24998  0.36253  0.25000  1.0000
  Zn  Zn2       1.0  0.75000  0.63747  0.75000  1.0000
  H   H1        1.0  0.15297  0.88324  0.32570  1.0000
  H   H2        1.0  0.65297  0.11677  0.82570  1.0000
  H   H3        1.0  0.84703  0.11677  0.67430  1.0000
  H   H4        1.0  0.34702  0.88323  0.17430  1.0000
  H   H5        1.0  0.96349  0.76237  0.23065  1.0000
  H   H6        1.0  0.46350  0.23764  0.73065  1.0000
  H   H7        1.0  0.03650  0.23765  0.76935  1.0000
  H   H8        1.0  0.53649  0.76236  0.26935  1.0000
  H   H9        1.0  0.38272  0.34065  0.01457  1.0000
  H   H10       1.0  0.88271  0.65934  0.51457  1.0000
  H   H11       1.0  0.61730  0.65932  0.98543  1.0000
  H   H12       1.0  0.11729  0.34068  0.48543  1.0000
  H   H13       1.0  0.90927  0.88273  0.08244  1.0000
  H   H14       1.0  0.40926  0.11727  0.58245  1.0000
  H   H15       1.0  0.09075  0.11726  0.91756  1.0000
  H   H16       1.0  0.59073  0.88274  0.41756  1.0000
  H   H17       1.0  0.27597  0.58118  0.39589  1.0000
  H   H18       1.0  0.77597  0.41882  0.89589  1.0000
  H   H19       1.0  0.72402  0.41883  0.60411  1.0000
  H   H20       1.0  0.22402  0.58118  0.10411  1.0000
  H   H21       1.0  0.97211  0.55177  0.35951  1.0000
  H   H22       1.0  0.47211  0.44823  0.85951  1.0000
  H   H23       1.0  0.02788  0.44824  0.64049  1.0000
  H   H24       1.0  0.52787  0.55176  0.14050  1.0000
  C   C1        1.0  0.66487  0.12534  0.05653  1.0000
  C   C2        1.0  0.16488  0.87465  0.55653  1.0000
  C   C3        1.0  0.33514  0.87463  0.94346  1.0000
  C   C4        1.0  0.83515  0.12536  0.44345  1.0000
  C   C5        1.0  0.84115  0.26019  0.11588  1.0000
  C   C6        1.0  0.34114  0.73982  0.61588  1.0000
  C   C7        1.0  0.15885  0.73978  0.88413  1.0000
  C   C8        1.0  0.65885  0.26022  0.38413  1.0000
  C   C9        1.0  0.14161  0.75543  0.27947  1.0000
  C   C10       1.0  0.64161  0.24458  0.77946  1.0000
  C   C11       1.0  0.85838  0.24458  0.72054  1.0000
  C   C12       1.0  0.35837  0.75543  0.22054  1.0000
  C   C13       1.0  0.43392  0.19102  0.00935  1.0000
  C   C14       1.0  0.93392  0.80898  0.50936  1.0000
  C   C15       1.0  0.56610  0.80897  0.99065  1.0000
  C   C16       1.0  0.06611  0.19103  0.49064  1.0000
  C   C17       1.0  0.72913  0.93298  0.04646  1.0000
  C   C18       1.0  0.22913  0.06701  0.54646  1.0000
  C   C19       1.0  0.27090  0.06700  0.95354  1.0000
  C   C20       1.0  0.77091  0.93299  0.45354  1.0000
  N   N1        1.0  0.14152  0.57623  0.33610  1.0000
  N   N2        1.0  0.64153  0.42377  0.83610  1.0000
  N   N3        1.0  0.85846  0.42378  0.66390  1.0000
  N   N4        1.0  0.35846  0.57623  0.16390  1.0000
  O   O1        1.0  0.01374  0.18170  0.17711  1.0000
  O   O2        1.0  0.51373  0.81830  0.67710  1.0000
  O   O3        1.0  0.98629  0.81829  0.82289  1.0000
  O   O4        1.0  0.48627  0.18171  0.32289  1.0000
  O   O5        1.0  0.81585  0.43837  0.10347  1.0000
  O   O6        1.0  0.31584  0.56163  0.60347  1.0000
  O   O7        1.0  0.18414  0.56162  0.89653  1.0000
  O   O8        1.0  0.68414  0.43837  0.39654  1.0000
