data_image0
_chemical_formula_structural       Zn2H16C16O12
_chemical_formula_sum              "Zn2 H16 C16 O12"
_cell_length_a       4.97202
_cell_length_b       7.85699
_cell_length_c       12.1554
_cell_angle_alpha    101.575
_cell_angle_beta     89.853
_cell_angle_gamma    108.677

_space_group_name_H-M_alt    "P 1"
_space_group_IT_number       1

loop_
  _space_group_symop_operation_xyz
  'x, y, z'

loop_
  _atom_site_type_symbol
  _atom_site_label
  _atom_site_symmetry_multiplicity
  _atom_site_fract_x
  _atom_site_fract_y
  _atom_site_fract_z
  _atom_site_occupancy
  Zn  Zn1       1.0  0.95286  0.00084  0.75051  1.0000
  Zn  Zn2       1.0  0.04714  0.99916  0.24948  1.0000
  H   H1        1.0  0.30947  0.83652  0.78980  1.0000
  H   H2        1.0  0.47547  0.16540  0.70975  1.0000
  H   H3        1.0  0.69053  0.16348  0.21020  1.0000
  H   H4        1.0  0.52453  0.83460  0.29025  1.0000
  H   H5        1.0  0.17265  0.87588  0.91211  1.0000
  H   H6        1.0  0.29755  0.12477  0.58774  1.0000
  H   H7        1.0  0.82735  0.12412  0.08789  1.0000
  H   H8        1.0  0.70246  0.87523  0.41225  1.0000
  H   H9        1.0  0.21879  0.76653  0.41196  1.0000
  H   H10       1.0  0.45946  0.23771  0.09066  1.0000
  H   H11       1.0  0.78121  0.23346  0.58804  1.0000
  H   H12       1.0  0.54054  0.76230  0.90934  1.0000
  H   H13       1.0  0.22131  0.47646  0.67730  1.0000
  H   H14       1.0  0.74142  0.52156  0.82132  1.0000
  H   H15       1.0  0.77869  0.52354  0.32270  1.0000
  H   H16       1.0  0.25858  0.47844  0.17867  1.0000
  C   C1        1.0  0.25208  0.63591  0.54895  1.0000
  C   C2        1.0  0.61699  0.36488  0.95138  1.0000
  C   C3        1.0  0.74792  0.36409  0.45105  1.0000
  C   C4        1.0  0.38301  0.63512  0.04862  1.0000
  C   C5        1.0  0.52190  0.77949  0.60036  1.0000
  C   C6        1.0  0.74316  0.22170  0.90006  1.0000
  C   C7        1.0  0.47809  0.22050  0.39964  1.0000
  C   C8        1.0  0.25683  0.77830  0.09994  1.0000
  C   C9        1.0  0.12630  0.64763  0.44893  1.0000
  C   C10       1.0  0.48214  0.35455  0.05233  1.0000
  C   C11       1.0  0.87369  0.35237  0.55107  1.0000
  C   C12       1.0  0.51786  0.64545  0.94766  1.0000
  C   C13       1.0  0.12306  0.48763  0.60033  1.0000
  C   C14       1.0  0.63316  0.51111  0.89883  1.0000
  C   C15       1.0  0.87694  0.51237  0.39967  1.0000
  C   C16       1.0  0.36684  0.48889  0.10116  1.0000
  O   O1        1.0  0.57886  0.79537  0.70710  1.0000
  O   O2        1.0  0.78557  0.20595  0.79333  1.0000
  O   O3        1.0  0.42113  0.20463  0.29291  1.0000
  O   O4        1.0  0.21443  0.79405  0.20667  1.0000
  O   O5        1.0  0.69035  0.88198  0.54486  1.0000
  O   O6        1.0  0.80756  0.11920  0.95545  1.0000
  O   O7        1.0  0.30966  0.11801  0.45514  1.0000
  O   O8        1.0  0.19244  0.88080  0.04455  1.0000
  O   O9        1.0  0.15471  0.87301  0.82884  1.0000
  O   O10       1.0  0.28364  0.12817  0.67117  1.0000
  O   O11       1.0  0.84529  0.12700  0.17116  1.0000
  O   O12       1.0  0.71637  0.87183  0.32883  1.0000
