data_image0
_chemical_formula_structural       Cu2H28C38N4O6
_chemical_formula_sum              "Cu2 H28 C38 N4 O6"
_cell_length_a       8.7232
_cell_length_b       10.3889
_cell_length_c       11.3702
_cell_angle_alpha    79.0441
_cell_angle_beta     87.973
_cell_angle_gamma    81.7629

_space_group_name_H-M_alt    "P 1"
_space_group_IT_number       1

loop_
  _space_group_symop_operation_xyz
  'x, y, z'

loop_
  _atom_site_type_symbol
  _atom_site_label
  _atom_site_symmetry_multiplicity
  _atom_site_fract_x
  _atom_site_fract_y
  _atom_site_fract_z
  _atom_site_occupancy
  Cu  Cu1       1.0  0.43298  0.92495  0.39652  1.0000
  Cu  Cu2       1.0  0.56701  0.07504  0.60347  1.0000
  H   H1        1.0  0.33708  0.75175  0.61264  1.0000
  H   H2        1.0  0.66297  0.24830  0.38730  1.0000
  H   H3        1.0  0.43708  0.53308  0.74337  1.0000
  H   H4        1.0  0.56290  0.46693  0.25665  1.0000
  H   H5        1.0  0.68790  0.41006  0.68931  1.0000
  H   H6        1.0  0.31215  0.58990  0.31069  1.0000
  H   H7        1.0  0.83049  0.50984  0.50323  1.0000
  H   H8        1.0  0.16954  0.49019  0.49670  1.0000
  H   H9        1.0  0.70986  0.72533  0.38103  1.0000
  H   H10       1.0  0.29005  0.27474  0.61896  1.0000
  H   H11       1.0  0.20288  0.97992  0.74770  1.0000
  H   H12       1.0  0.79711  0.02006  0.25231  1.0000
  H   H13       1.0  0.94606  0.11419  0.77735  1.0000
  H   H14       1.0  0.05386  0.88584  0.22273  1.0000
  H   H15       1.0  0.80520  0.25405  0.60576  1.0000
  H   H16       1.0  0.19476  0.74596  0.39425  1.0000
  H   H17       1.0  0.92202  0.26754  0.39957  1.0000
  H   H18       1.0  0.07807  0.73242  0.60045  1.0000
  H   H19       1.0  0.11854  0.22422  0.27206  1.0000
  H   H20       1.0  0.88149  0.77578  0.72789  1.0000
  H   H21       1.0  0.57514  0.17447  0.22286  1.0000
  H   H22       1.0  0.42486  0.82552  0.77718  1.0000
  H   H23       1.0  0.66472  0.22311  0.00761  1.0000
  H   H24       1.0  0.33527  0.77690  0.99242  1.0000
  H   H25       1.0  0.24192  0.12013  0.89521  1.0000
  H   H26       1.0  0.75803  0.87986  0.10480  1.0000
  H   H27       1.0  0.14858  0.07935  0.10792  1.0000
  H   H28       1.0  0.85146  0.92063  0.89211  1.0000
  C   C1        1.0  0.44464  0.69260  0.59235  1.0000
  C   C2        1.0  0.55539  0.30738  0.40766  1.0000
  C   C3        1.0  0.50175  0.57277  0.66422  1.0000
  C   C4        1.0  0.49832  0.42720  0.33581  1.0000
  C   C5        1.0  0.64289  0.50475  0.63384  1.0000
  C   C6        1.0  0.35718  0.49521  0.36617  1.0000
  C   C7        1.0  0.72025  0.55932  0.53112  1.0000
  C   C8        1.0  0.27981  0.44067  0.46888  1.0000
  C   C9        1.0  0.65523  0.67917  0.46271  1.0000
  C   C10       1.0  0.34479  0.32081  0.53730  1.0000
  C   C11       1.0  0.20586  0.04334  0.55605  1.0000
  C   C12       1.0  0.79414  0.95667  0.44393  1.0000
  C   C13       1.0  0.13846  0.04141  0.67202  1.0000
  C   C14       1.0  0.86154  0.95861  0.32799  1.0000
  C   C15       1.0  0.99805  0.11704  0.68828  1.0000
  C   C16       1.0  0.00191  0.88298  0.31176  1.0000
  C   C17       1.0  0.91732  0.19893  0.59024  1.0000
  C   C18       1.0  0.08267  0.80108  0.40979  1.0000
  C   C19       1.0  0.98160  0.20427  0.47710  1.0000
  C   C20       1.0  0.01841  0.79570  0.52291  1.0000
  C   C21       1.0  0.12493  0.12845  0.45678  1.0000
  C   C22       1.0  0.87504  0.87153  0.54319  1.0000
  C   C23       1.0  0.18604  0.14733  0.33762  1.0000
  C   C24       1.0  0.81390  0.85270  0.66234  1.0000
  C   C25       1.0  0.35699  0.12513  0.17749  1.0000
  C   C26       1.0  0.64300  0.87487  0.82249  1.0000
  C   C27       1.0  0.50181  0.16714  0.14965  1.0000
  C   C28       1.0  0.49819  0.83286  0.85035  1.0000
  C   C29       1.0  0.55117  0.19310  0.03124  1.0000
  C   C30       1.0  0.44880  0.80691  0.96876  1.0000
  C   C31       1.0  0.45944  0.17350  0.93906  1.0000
  C   C32       1.0  0.54055  0.82651  0.06092  1.0000
  C   C33       1.0  0.31240  0.13628  0.96686  1.0000
  C   C34       1.0  0.68758  0.86373  0.03312  1.0000
  C   C35       1.0  0.26021  0.11374  0.08529  1.0000
  C   C36       1.0  0.73980  0.88628  0.91467  1.0000
  C   C37       1.0  0.53038  0.17661  0.81640  1.0000
  C   C38       1.0  0.46962  0.82339  0.18361  1.0000
  N   N1        1.0  0.52007  0.74528  0.49346  1.0000
  N   N2        1.0  0.47993  0.25468  0.50653  1.0000
  N   N3        1.0  0.31494  0.08759  0.29981  1.0000
  N   N4        1.0  0.68498  0.91241  0.70015  1.0000
  O   O1        1.0  0.34021  0.97089  0.54534  1.0000
  O   O2        1.0  0.65982  0.02913  0.45468  1.0000
  O   O3        1.0  0.65657  0.21993  0.79183  1.0000
  O   O4        1.0  0.34343  0.78006  0.20816  1.0000
  O   O5        1.0  0.45489  0.12465  0.74488  1.0000
  O   O6        1.0  0.54511  0.87538  0.25513  1.0000
