data_image0
_chemical_formula_structural       K8B4H20C16O28
_chemical_formula_sum              "K8 B4 H20 C16 O28"
_cell_length_a       6.5601
_cell_length_b       10.3287
_cell_length_c       13.2302
_cell_angle_alpha    90
_cell_angle_beta     90.0001
_cell_angle_gamma    90.0001

_space_group_name_H-M_alt    "P 1"
_space_group_IT_number       1

loop_
  _space_group_symop_operation_xyz
  'x, y, z'

loop_
  _atom_site_type_symbol
  _atom_site_label
  _atom_site_symmetry_multiplicity
  _atom_site_fract_x
  _atom_site_fract_y
  _atom_site_fract_z
  _atom_site_occupancy
  K   K1        1.0  0.70580  0.46356  0.80716  1.0000
  K   K2        1.0  0.79421  0.53645  0.30716  1.0000
  K   K3        1.0  0.20579  0.03643  0.19284  1.0000
  K   K4        1.0  0.29421  0.96356  0.69285  1.0000
  K   K5        1.0  0.06462  0.37192  0.58215  1.0000
  K   K6        1.0  0.43538  0.62808  0.08215  1.0000
  K   K7        1.0  0.56462  0.12808  0.41785  1.0000
  K   K8        1.0  0.93538  0.87192  0.91785  1.0000
  B   B1        1.0  0.79807  0.11677  0.71313  1.0000
  B   B2        1.0  0.70193  0.88324  0.21313  1.0000
  B   B3        1.0  0.29807  0.38323  0.28687  1.0000
  B   B4        1.0  0.20193  0.61677  0.78687  1.0000
  H   H1        1.0  0.02608  0.19443  0.78999  1.0000
  H   H2        1.0  0.47392  0.80557  0.28999  1.0000
  H   H3        1.0  0.52608  0.30557  0.21001  1.0000
  H   H4        1.0  0.97392  0.69443  0.71001  1.0000
  H   H5        1.0  0.78055  0.92272  0.70672  1.0000
  H   H6        1.0  0.71945  0.07728  0.20672  1.0000
  H   H7        1.0  0.28055  0.57728  0.29328  1.0000
  H   H8        1.0  0.21945  0.42272  0.79328  1.0000
  H   H9        1.0  0.33472  0.53479  0.45567  1.0000
  H   H10       1.0  0.16528  0.46521  0.95566  1.0000
  H   H11       1.0  0.83472  0.96520  0.54434  1.0000
  H   H12       1.0  0.66529  0.03479  0.04434  1.0000
  H   H13       1.0  0.39864  0.74709  0.51582  1.0000
  H   H14       1.0  0.10136  0.25291  0.01582  1.0000
  H   H15       1.0  0.89864  0.75291  0.48418  1.0000
  H   H16       1.0  0.60137  0.24709  0.98418  1.0000
  H   H17       1.0  0.58646  0.22550  0.64168  1.0000
  H   H18       1.0  0.91354  0.77450  0.14168  1.0000
  H   H19       1.0  0.08646  0.27450  0.35832  1.0000
  H   H20       1.0  0.41354  0.72550  0.85832  1.0000
  C   C1        1.0  0.64949  0.70836  0.61906  1.0000
  C   C2        1.0  0.85050  0.29164  0.11906  1.0000
  C   C3        1.0  0.14949  0.79164  0.38094  1.0000
  C   C4        1.0  0.35051  0.20836  0.88094  1.0000
  C   C5        1.0  0.45604  0.54746  0.51152  1.0000
  C   C6        1.0  0.04396  0.45255  0.01152  1.0000
  C   C7        1.0  0.95604  0.95255  0.48848  1.0000
  C   C8        1.0  0.54396  0.04746  0.98848  1.0000
  C   C9        1.0  0.56461  0.42519  0.53989  1.0000
  C   C10       1.0  0.93540  0.57480  0.03989  1.0000
  C   C11       1.0  0.06460  0.07480  0.46011  1.0000
  C   C12       1.0  0.43539  0.92519  0.96011  1.0000
  C   C13       1.0  0.49152  0.66792  0.54481  1.0000
  C   C14       1.0  0.00847  0.33207  0.04481  1.0000
  C   C15       1.0  0.99153  0.83207  0.45519  1.0000
  C   C16       1.0  0.50848  0.16792  0.95519  1.0000
  O   O1        1.0  0.90491  0.22339  0.74768  1.0000
  O   O2        1.0  0.59509  0.77662  0.24768  1.0000
  O   O3        1.0  0.40491  0.27662  0.25232  1.0000
  O   O4        1.0  0.09509  0.72339  0.75232  1.0000
  O   O5        1.0  0.62847  0.13187  0.65279  1.0000
  O   O6        1.0  0.87152  0.86813  0.15279  1.0000
  O   O7        1.0  0.12847  0.36813  0.34721  1.0000
  O   O8        1.0  0.37153  0.63187  0.84721  1.0000
  O   O9        1.0  0.86697  0.99431  0.73698  1.0000
  O   O10       1.0  0.63303  0.00569  0.23698  1.0000
  O   O11       1.0  0.36697  0.50569  0.26302  1.0000
  O   O12       1.0  0.13303  0.49431  0.76302  1.0000
  O   O13       1.0  0.78762  0.62851  0.64658  1.0000
  O   O14       1.0  0.71238  0.37149  0.14658  1.0000
  O   O15       1.0  0.28762  0.87149  0.35342  1.0000
  O   O16       1.0  0.21238  0.12851  0.85342  1.0000
  O   O17       1.0  0.69707  0.38221  0.47859  1.0000
  O   O18       1.0  0.80293  0.61779  0.97859  1.0000
  O   O19       1.0  0.19707  0.11779  0.52141  1.0000
  O   O20       1.0  0.30292  0.88221  0.02141  1.0000
  O   O21       1.0  0.50350  0.36849  0.62004  1.0000
  O   O22       1.0  0.99650  0.63151  0.12004  1.0000
  O   O23       1.0  0.00350  0.13151  0.37996  1.0000
  O   O24       1.0  0.49650  0.86849  0.87996  1.0000
  O   O25       1.0  0.63420  0.82533  0.64912  1.0000
  O   O26       1.0  0.86580  0.17467  0.14912  1.0000
  O   O27       1.0  0.13420  0.67467  0.35088  1.0000
  O   O28       1.0  0.36580  0.32533  0.85088  1.0000
