data_image0
_chemical_formula_structural       Cu2H28C32S4N8Cl4
_chemical_formula_sum              "Cu2 H28 C32 S4 N8 Cl4"
_cell_length_a       8.75701
_cell_length_b       9.92769
_cell_length_c       10.2641
_cell_angle_alpha    90.0003
_cell_angle_beta     98.7278
_cell_angle_gamma    89.9999

_space_group_name_H-M_alt    "P 1"
_space_group_IT_number       1

loop_
  _space_group_symop_operation_xyz
  'x, y, z'

loop_
  _atom_site_type_symbol
  _atom_site_label
  _atom_site_symmetry_multiplicity
  _atom_site_fract_x
  _atom_site_fract_y
  _atom_site_fract_z
  _atom_site_occupancy
  Cu  Cu1       1.0  0.50000  0.50000  0.50000  1.0000
  Cu  Cu2       1.0  1.00000  0.00000  1.00000  1.0000
  H   H1        1.0  0.38350  0.41140  0.22906  1.0000
  H   H2        1.0  0.11650  0.91140  0.27094  1.0000
  H   H3        1.0  0.61650  0.58860  0.77094  1.0000
  H   H4        1.0  0.88349  0.08860  0.72906  1.0000
  H   H5        1.0  0.14524  0.45514  0.06407  1.0000
  H   H6        1.0  0.35476  0.95514  0.43593  1.0000
  H   H7        1.0  0.85476  0.54486  0.93593  1.0000
  H   H8        1.0  0.64524  0.04486  0.56407  1.0000
  H   H9        1.0  0.94025  0.60814  0.13783  1.0000
  H   H10       1.0  0.55975  0.10814  0.36217  1.0000
  H   H11       1.0  0.05975  0.39186  0.86217  1.0000
  H   H12       1.0  0.44025  0.89186  0.63783  1.0000
  H   H13       1.0  0.92901  0.65933  0.52994  1.0000
  H   H14       1.0  0.57099  0.15933  0.97006  1.0000
  H   H15       1.0  0.07099  0.34067  0.47006  1.0000
  H   H16       1.0  0.42901  0.84067  0.02994  1.0000
  H   H17       1.0  0.01229  0.71446  0.69227  1.0000
  H   H18       1.0  0.48771  0.21446  0.80773  1.0000
  H   H19       1.0  0.98771  0.28554  0.30773  1.0000
  H   H20       1.0  0.51229  0.78554  0.19227  1.0000
  H   H21       1.0  0.83536  0.82546  0.37497  1.0000
  H   H22       1.0  0.66464  0.32546  0.12503  1.0000
  H   H23       1.0  0.16464  0.17453  0.62503  1.0000
  H   H24       1.0  0.33536  0.67453  0.87497  1.0000
  H   H25       1.0  0.18216  0.93540  0.70003  1.0000
  H   H26       1.0  0.31784  0.43540  0.79997  1.0000
  H   H27       1.0  0.81784  0.06460  0.29997  1.0000
  H   H28       1.0  0.68216  0.56460  0.20003  1.0000
  C   C1        1.0  0.28806  0.47199  0.25342  1.0000
  C   C2        1.0  0.21195  0.97199  0.24657  1.0000
  C   C3        1.0  0.71194  0.52802  0.74658  1.0000
  C   C4        1.0  0.78805  0.02801  0.75342  1.0000
  C   C5        1.0  0.15674  0.49681  0.16271  1.0000
  C   C6        1.0  0.34326  0.99681  0.33729  1.0000
  C   C7        1.0  0.84326  0.50319  0.83729  1.0000
  C   C8        1.0  0.65674  0.00319  0.66271  1.0000
  C   C9        1.0  0.04406  0.57846  0.20439  1.0000
  C   C10       1.0  0.45594  0.07846  0.29561  1.0000
  C   C11       1.0  0.95594  0.42154  0.79561  1.0000
  C   C12       1.0  0.54406  0.92154  0.70439  1.0000
  C   C13       1.0  0.18407  0.59469  0.41049  1.0000
  C   C14       1.0  0.31594  0.09469  0.08951  1.0000
  C   C15       1.0  0.81593  0.40532  0.58951  1.0000
  C   C16       1.0  0.68407  0.90531  0.91049  1.0000
  C   C17       1.0  0.01997  0.72082  0.58632  1.0000
  C   C18       1.0  0.48004  0.22082  0.91368  1.0000
  C   C19       1.0  0.98004  0.27918  0.41368  1.0000
  C   C20       1.0  0.51996  0.77918  0.08632  1.0000
  C   C21       1.0  0.01098  0.86456  0.54092  1.0000
  C   C22       1.0  0.48902  0.36456  0.95908  1.0000
  C   C23       1.0  0.98902  0.13544  0.45908  1.0000
  C   C24       1.0  0.51098  0.63544  0.04092  1.0000
  C   C25       1.0  0.90741  0.90243  0.42919  1.0000
  C   C26       1.0  0.59259  0.40243  0.07081  1.0000
  C   C27       1.0  0.09259  0.09756  0.57081  1.0000
  C   C28       1.0  0.40741  0.59757  0.92919  1.0000
  C   C29       1.0  0.10362  0.96344  0.61115  1.0000
  C   C30       1.0  0.39638  0.46344  0.88885  1.0000
  C   C31       1.0  0.89638  0.03655  0.38885  1.0000
  C   C32       1.0  0.60363  0.53656  0.11115  1.0000
  S   S1        1.0  0.20559  0.64073  0.57619  1.0000
  S   S2        1.0  0.29442  0.14073  0.92381  1.0000
  S   S3        1.0  0.79441  0.35927  0.42382  1.0000
  S   S4        1.0  0.70559  0.85928  0.07618  1.0000
  N   N1        1.0  0.30355  0.52305  0.37587  1.0000
  N   N2        1.0  0.19645  0.02305  0.12413  1.0000
  N   N3        1.0  0.69645  0.47695  0.62413  1.0000
  N   N4        1.0  0.80355  0.97695  0.87587  1.0000
  N   N5        1.0  0.05601  0.62572  0.32772  1.0000
  N   N6        1.0  0.44399  0.12572  0.17228  1.0000
  N   N7        1.0  0.94399  0.37428  0.67228  1.0000
  N   N8        1.0  0.55601  0.87428  0.82772  1.0000
  Cl  Cl1       1.0  0.57648  0.70733  0.44433  1.0000
  Cl  Cl2       1.0  0.92352  0.20733  0.05567  1.0000
  Cl  Cl3       1.0  0.42352  0.29267  0.55567  1.0000
  Cl  Cl4       1.0  0.07648  0.79267  0.94433  1.0000
