data_image0
_chemical_formula_structural       Mn6H36C24O36
_chemical_formula_sum              "Mn6 H36 C24 O36"
_cell_length_a       9.58812
_cell_length_b       9.79094
_cell_length_c       13.5445
_cell_angle_alpha    70.9936
_cell_angle_beta     69.3337
_cell_angle_gamma    60.6946

_space_group_name_H-M_alt    "P 1"
_space_group_IT_number       1

loop_
  _space_group_symop_operation_xyz
  'x, y, z'

loop_
  _atom_site_type_symbol
  _atom_site_label
  _atom_site_symmetry_multiplicity
  _atom_site_fract_x
  _atom_site_fract_y
  _atom_site_fract_z
  _atom_site_occupancy
  Mn  Mn1       1.0  0.00444  0.75000  0.24995  1.0000
  Mn  Mn2       1.0  0.99555  0.24999  0.75005  1.0000
  Mn  Mn3       1.0  0.03942  0.66041  0.80006  1.0000
  Mn  Mn4       1.0  0.49995  0.83956  0.69988  1.0000
  Mn  Mn5       1.0  0.96059  0.33960  0.19995  1.0000
  Mn  Mn6       1.0  0.50003  0.16044  0.30014  1.0000
  H   H1        1.0  0.78623  0.89392  0.73097  1.0000
  H   H2        1.0  0.41112  0.60619  0.76896  1.0000
  H   H3        1.0  0.21377  0.10609  0.26903  1.0000
  H   H4        1.0  0.58890  0.39380  0.23104  1.0000
  H   H5        1.0  0.90289  0.99122  0.68985  1.0000
  H   H6        1.0  0.58404  0.50877  0.81011  1.0000
  H   H7        1.0  0.09710  0.00878  0.31015  1.0000
  H   H8        1.0  0.41596  0.49122  0.18989  1.0000
  H   H9        1.0  0.99656  0.88611  0.89945  1.0000
  H   H10       1.0  0.78218  0.61393  0.60056  1.0000
  H   H11       1.0  0.00346  0.11389  0.10055  1.0000
  H   H12       1.0  0.21781  0.38607  0.39943  1.0000
  H   H13       1.0  0.00552  0.74413  0.99423  1.0000
  H   H14       1.0  0.74394  0.75595  0.50579  1.0000
  H   H15       1.0  0.99449  0.25587  0.00577  1.0000
  H   H16       1.0  0.25604  0.24406  0.49421  1.0000
  H   H17       1.0  0.17529  0.34784  0.87590  1.0000
  H   H18       1.0  0.39903  0.15219  0.62404  1.0000
  H   H19       1.0  0.82471  0.65216  0.12409  1.0000
  H   H20       1.0  0.60096  0.84781  0.37597  1.0000
  H   H21       1.0  0.19166  0.42110  0.95772  1.0000
  H   H22       1.0  0.57038  0.07895  0.54232  1.0000
  H   H23       1.0  0.80834  0.57890  0.04228  1.0000
  H   H24       1.0  0.42963  0.92105  0.45768  1.0000
  H   H25       1.0  0.14837  0.91983  0.47896  1.0000
  H   H26       1.0  0.54727  0.58016  0.02101  1.0000
  H   H27       1.0  0.85163  0.08017  0.52104  1.0000
  H   H28       1.0  0.45274  0.41983  0.97899  1.0000
  H   H29       1.0  0.36267  0.42965  0.48582  1.0000
  H   H30       1.0  0.27836  0.07032  0.01424  1.0000
  H   H31       1.0  0.63732  0.57037  0.51417  1.0000
  H   H32       1.0  0.72165  0.92967  0.98576  1.0000
  H   H33       1.0  0.37635  0.48935  0.59174  1.0000
  H   H34       1.0  0.45745  0.01059  0.90837  1.0000
  H   H35       1.0  0.62365  0.51065  0.40825  1.0000
  H   H36       1.0  0.54255  0.98941  0.09163  1.0000
  C   C1        1.0  0.20345  0.79927  0.52386  1.0000
  C   C2        1.0  0.52664  0.70077  0.97620  1.0000
  C   C3        1.0  0.79655  0.20073  0.47614  1.0000
  C   C4        1.0  0.47337  0.29923  0.02381  1.0000
  C   C5        1.0  0.20947  0.67549  0.49643  1.0000
  C   C6        1.0  0.38150  0.82448  0.00363  1.0000
  C   C7        1.0  0.79053  0.32452  0.50356  1.0000
  C   C8        1.0  0.61851  0.17552  0.99637  1.0000
  C   C9        1.0  0.29170  0.50360  0.54783  1.0000
  C   C10       1.0  0.34325  0.99635  0.95223  1.0000
  C   C11       1.0  0.70829  0.49640  0.45216  1.0000
  C   C12       1.0  0.65675  0.00365  0.04777  1.0000
  C   C13       1.0  0.17306  0.43632  0.62993  1.0000
  C   C14       1.0  0.23931  0.06366  0.87009  1.0000
  C   C15       1.0  0.82694  0.56369  0.37007  1.0000
  C   C16       1.0  0.76069  0.93634  0.12991  1.0000
  C   C17       1.0  0.27762  0.78094  0.60954  1.0000
  C   C18       1.0  0.66797  0.71906  0.89054  1.0000
  C   C19       1.0  0.72239  0.21905  0.39046  1.0000
  C   C20       1.0  0.33204  0.28094  0.10947  1.0000
  C   C21       1.0  0.13226  0.70567  0.40843  1.0000
  C   C22       1.0  0.24658  0.79430  0.09159  1.0000
  C   C23       1.0  0.86774  0.29434  0.59156  1.0000
  C   C24       1.0  0.75342  0.20570  0.90841  1.0000
  O   O1        1.0  0.13801  0.58745  0.38364  1.0000
  O   O2        1.0  0.10942  0.91251  0.11626  1.0000
  O   O3        1.0  0.86198  0.41256  0.61636  1.0000
  O   O4        1.0  0.89058  0.08748  0.88375  1.0000
  O   O5        1.0  0.05843  0.84694  0.35820  1.0000
  O   O6        1.0  0.26388  0.65307  0.14187  1.0000
  O   O7        1.0  0.94155  0.15307  0.64180  1.0000
  O   O8        1.0  0.73611  0.34693  0.85813  1.0000
  O   O9        1.0  0.26047  0.68387  0.69753  1.0000
  O   O10       1.0  0.64162  0.81619  0.80254  1.0000
  O   O11       1.0  0.73954  0.31611  0.30246  1.0000
  O   O12       1.0  0.35838  0.18381  0.19746  1.0000
  O   O13       1.0  0.35951  0.86195  0.58975  1.0000
  O   O14       1.0  0.81115  0.63788  0.91025  1.0000
  O   O15       1.0  0.64049  0.13804  0.41025  1.0000
  O   O16       1.0  0.18886  0.36212  0.08975  1.0000
  O   O17       1.0  0.20114  0.29317  0.62950  1.0000
  O   O18       1.0  0.12378  0.20677  0.87059  1.0000
  O   O19       1.0  0.79886  0.70683  0.37050  1.0000
  O   O20       1.0  0.87623  0.79322  0.12941  1.0000
  O   O21       1.0  0.05493  0.51520  0.69752  1.0000
  O   O22       1.0  0.26753  0.98490  0.80240  1.0000
  O   O23       1.0  0.94506  0.48480  0.30248  1.0000
  O   O24       1.0  0.73248  0.01510  0.19760  1.0000
  O   O25       1.0  0.89907  0.88523  0.71435  1.0000
  O   O26       1.0  0.49886  0.61480  0.78546  1.0000
  O   O27       1.0  0.10093  0.11477  0.28565  1.0000
  O   O28       1.0  0.50114  0.38520  0.21454  1.0000
  O   O29       1.0  0.04742  0.76752  0.91594  1.0000
  O   O30       1.0  0.73092  0.73252  0.58411  1.0000
  O   O31       1.0  0.95259  0.23247  0.08406  1.0000
  O   O32       1.0  0.26908  0.26749  0.41589  1.0000
  O   O33       1.0  0.19504  0.43601  0.88038  1.0000
  O   O34       1.0  0.51135  0.06397  0.61960  1.0000
  O   O35       1.0  0.80495  0.56400  0.11962  1.0000
  O   O36       1.0  0.48864  0.93602  0.38040  1.0000
