data_image0
_chemical_formula_structural       Zn4H24C40N48
_chemical_formula_sum              "Zn4 H24 C40 N48"
_cell_length_a       8.35454
_cell_length_b       9.4652
_cell_length_c       17.8056
_cell_angle_alpha    90
_cell_angle_beta     90
_cell_angle_gamma    90

_space_group_name_H-M_alt    "P 1"
_space_group_IT_number       1

loop_
  _space_group_symop_operation_xyz
  'x, y, z'

loop_
  _atom_site_type_symbol
  _atom_site_label
  _atom_site_symmetry_multiplicity
  _atom_site_fract_x
  _atom_site_fract_y
  _atom_site_fract_z
  _atom_site_occupancy
  Zn  Zn1       1.0  0.00000  0.50000  0.00000  1.0000
  Zn  Zn2       1.0  0.50000  0.50000  0.50000  1.0000
  Zn  Zn3       1.0  0.00000  0.00000  0.50000  1.0000
  Zn  Zn4       1.0  0.50000  0.00000  0.00000  1.0000
  H   H1        1.0  0.91403  0.69439  0.31659  1.0000
  H   H2        1.0  0.58596  0.30561  0.81659  1.0000
  H   H3        1.0  0.08597  0.19439  0.18341  1.0000
  H   H4        1.0  0.41404  0.80561  0.68341  1.0000
  H   H5        1.0  0.08596  0.30561  0.68341  1.0000
  H   H6        1.0  0.41404  0.69439  0.18341  1.0000
  H   H7        1.0  0.91404  0.80561  0.81659  1.0000
  H   H8        1.0  0.58596  0.19439  0.31659  1.0000
  H   H9        1.0  0.77401  0.46713  0.28141  1.0000
  H   H10       1.0  0.72599  0.53287  0.78141  1.0000
  H   H11       1.0  0.22599  0.96713  0.21859  1.0000
  H   H12       1.0  0.27401  0.03287  0.71859  1.0000
  H   H13       1.0  0.22599  0.53287  0.71859  1.0000
  H   H14       1.0  0.27401  0.46713  0.21859  1.0000
  H   H15       1.0  0.77401  0.03287  0.78141  1.0000
  H   H16       1.0  0.72599  0.96713  0.28141  1.0000
  H   H17       1.0  0.80530  0.38369  0.14585  1.0000
  H   H18       1.0  0.69470  0.61631  0.64585  1.0000
  H   H19       1.0  0.19470  0.88369  0.35415  1.0000
  H   H20       1.0  0.30530  0.11631  0.85415  1.0000
  H   H21       1.0  0.19470  0.61631  0.85415  1.0000
  H   H22       1.0  0.30530  0.38369  0.35415  1.0000
  H   H23       1.0  0.80530  0.11631  0.64585  1.0000
  H   H24       1.0  0.69470  0.88369  0.14585  1.0000
  C   C1        1.0  0.03368  0.66549  0.14344  1.0000
  C   C2        1.0  0.46632  0.33451  0.64344  1.0000
  C   C3        1.0  0.96632  0.16549  0.35656  1.0000
  C   C4        1.0  0.53368  0.83451  0.85656  1.0000
  C   C5        1.0  0.96632  0.33451  0.85656  1.0000
  C   C6        1.0  0.53368  0.66549  0.35656  1.0000
  C   C7        1.0  0.03368  0.83451  0.64344  1.0000
  C   C8        1.0  0.46632  0.16549  0.14344  1.0000
  C   C9        1.0  0.92566  0.64916  0.26040  1.0000
  C   C10       1.0  0.57434  0.35084  0.76040  1.0000
  C   C11       1.0  0.07434  0.14916  0.23960  1.0000
  C   C12       1.0  0.42566  0.85084  0.73960  1.0000
  C   C13       1.0  0.07434  0.35084  0.73960  1.0000
  C   C14       1.0  0.42566  0.64916  0.23960  1.0000
  C   C15       1.0  0.92566  0.85084  0.76040  1.0000
  C   C16       1.0  0.57434  0.14916  0.26040  1.0000
  C   C17       1.0  0.84530  0.52555  0.24071  1.0000
  C   C18       1.0  0.65470  0.47445  0.74071  1.0000
  C   C19       1.0  0.15470  0.02555  0.25929  1.0000
  C   C20       1.0  0.34530  0.97445  0.75929  1.0000
  C   C21       1.0  0.15470  0.47445  0.75929  1.0000
  C   C22       1.0  0.34530  0.52555  0.25929  1.0000
  C   C23       1.0  0.84530  0.97445  0.74071  1.0000
  C   C24       1.0  0.65470  0.02555  0.24071  1.0000
  C   C25       1.0  0.86473  0.47827  0.16720  1.0000
  C   C26       1.0  0.63527  0.52172  0.66720  1.0000
  C   C27       1.0  0.13527  0.97827  0.33280  1.0000
  C   C28       1.0  0.36473  0.02172  0.83280  1.0000
  C   C29       1.0  0.13527  0.52172  0.83280  1.0000
  C   C30       1.0  0.36473  0.47827  0.33280  1.0000
  C   C31       1.0  0.86473  0.02172  0.66720  1.0000
  C   C32       1.0  0.63527  0.97828  0.16720  1.0000
  C   C33       1.0  0.13711  0.73319  0.08782  1.0000
  C   C34       1.0  0.36289  0.26681  0.58782  1.0000
  C   C35       1.0  0.86289  0.23319  0.41218  1.0000
  C   C36       1.0  0.63711  0.76681  0.91218  1.0000
  C   C37       1.0  0.86289  0.26681  0.91218  1.0000
  C   C38       1.0  0.63711  0.73319  0.41218  1.0000
  C   C39       1.0  0.13711  0.76681  0.58782  1.0000
  C   C40       1.0  0.36289  0.23319  0.08782  1.0000
  N   N1        1.0  0.14607  0.68117  0.01731  1.0000
  N   N2        1.0  0.35393  0.31883  0.51730  1.0000
  N   N3        1.0  0.85393  0.18117  0.48269  1.0000
  N   N4        1.0  0.64607  0.81883  0.98269  1.0000
  N   N5        1.0  0.85392  0.31883  0.98269  1.0000
  N   N6        1.0  0.64607  0.68117  0.48270  1.0000
  N   N7        1.0  0.14607  0.81883  0.51731  1.0000
  N   N8        1.0  0.35393  0.18117  0.01731  1.0000
  N   N9        1.0  0.24993  0.76134  0.98035  1.0000
  N   N10       1.0  0.25007  0.23866  0.48035  1.0000
  N   N11       1.0  0.75007  0.26134  0.51965  1.0000
  N   N12       1.0  0.74993  0.73866  0.01965  1.0000
  N   N13       1.0  0.75007  0.23866  0.01965  1.0000
  N   N14       1.0  0.74993  0.76134  0.51965  1.0000
  N   N15       1.0  0.24993  0.73866  0.48035  1.0000
  N   N16       1.0  0.25007  0.26134  0.98035  1.0000
  N   N17       1.0  0.30236  0.85900  0.02812  1.0000
  N   N18       1.0  0.19764  0.14100  0.52812  1.0000
  N   N19       1.0  0.69764  0.35900  0.47188  1.0000
  N   N20       1.0  0.80236  0.64100  0.97188  1.0000
  N   N21       1.0  0.69764  0.14100  0.97188  1.0000
  N   N22       1.0  0.80236  0.85900  0.47188  1.0000
  N   N23       1.0  0.30236  0.64100  0.52812  1.0000
  N   N24       1.0  0.19764  0.35900  0.02812  1.0000
  N   N25       1.0  0.23463  0.84479  0.09594  1.0000
  N   N26       1.0  0.26537  0.15521  0.59594  1.0000
  N   N27       1.0  0.76537  0.34479  0.40406  1.0000
  N   N28       1.0  0.73463  0.65521  0.90406  1.0000
  N   N29       1.0  0.76537  0.15521  0.90406  1.0000
  N   N30       1.0  0.73463  0.84479  0.40406  1.0000
  N   N31       1.0  0.23463  0.65521  0.59594  1.0000
  N   N32       1.0  0.26537  0.34479  0.09594  1.0000
  N   N33       1.0  0.95859  0.54767  0.11866  1.0000
  N   N34       1.0  0.54141  0.45233  0.61866  1.0000
  N   N35       1.0  0.04141  0.04767  0.38134  1.0000
  N   N36       1.0  0.45859  0.95233  0.88134  1.0000
  N   N37       1.0  0.04141  0.45233  0.88134  1.0000
  N   N38       1.0  0.45859  0.54767  0.38134  1.0000
  N   N39       1.0  0.95859  0.95233  0.61866  1.0000
  N   N40       1.0  0.54141  0.04767  0.11866  1.0000
  N   N41       1.0  0.02033  0.71988  0.21240  1.0000
  N   N42       1.0  0.47967  0.28012  0.71240  1.0000
  N   N43       1.0  0.97967  0.21988  0.28760  1.0000
  N   N44       1.0  0.52033  0.78012  0.78760  1.0000
  N   N45       1.0  0.97967  0.28012  0.78760  1.0000
  N   N46       1.0  0.52033  0.71988  0.28760  1.0000
  N   N47       1.0  0.02033  0.78012  0.71240  1.0000
  N   N48       1.0  0.47967  0.21988  0.21240  1.0000
