data_image0
_chemical_formula_structural       Zn4H8C16S24N16
_chemical_formula_sum              "Zn4 H8 C16 S24 N16"
_cell_length_a       7.53887
_cell_length_b       11.5163
_cell_length_c       12.671
_cell_angle_alpha    90.0007
_cell_angle_beta     90.0002
_cell_angle_gamma    90.0008

_space_group_name_H-M_alt    "P 1"
_space_group_IT_number       1

loop_
  _space_group_symop_operation_xyz
  'x, y, z'

loop_
  _atom_site_type_symbol
  _atom_site_label
  _atom_site_symmetry_multiplicity
  _atom_site_fract_x
  _atom_site_fract_y
  _atom_site_fract_z
  _atom_site_occupancy
  Zn  Zn1       1.0  0.74999  0.84858  0.50000  1.0000
  Zn  Zn2       1.0  0.25000  0.65142  0.00000  1.0000
  Zn  Zn3       1.0  0.25000  0.15141  0.50000  1.0000
  Zn  Zn4       1.0  0.75001  0.34858  0.00000  1.0000
  H   H1        1.0  0.12136  0.85990  0.34488  1.0000
  H   H2        1.0  0.62136  0.64011  0.15512  1.0000
  H   H3        1.0  0.37865  0.85988  0.65511  1.0000
  H   H4        1.0  0.87865  0.64012  0.84488  1.0000
  H   H5        1.0  0.87864  0.14010  0.65513  1.0000
  H   H6        1.0  0.37865  0.35989  0.84488  1.0000
  H   H7        1.0  0.62135  0.14011  0.34488  1.0000
  H   H8        1.0  0.12136  0.35988  0.15512  1.0000
  C   C1        1.0  0.20313  0.61742  0.24381  1.0000
  C   C2        1.0  0.70315  0.88258  0.25619  1.0000
  C   C3        1.0  0.29686  0.61742  0.75619  1.0000
  C   C4        1.0  0.79686  0.88258  0.74381  1.0000
  C   C5        1.0  0.79687  0.38260  0.75619  1.0000
  C   C6        1.0  0.29687  0.11743  0.74380  1.0000
  C   C7        1.0  0.70313  0.38261  0.24381  1.0000
  C   C8        1.0  0.20313  0.11743  0.25619  1.0000
  C   C9        1.0  0.07275  0.69464  0.40786  1.0000
  C   C10       1.0  0.57276  0.80537  0.09214  1.0000
  C   C11       1.0  0.42725  0.69463  0.59214  1.0000
  C   C12       1.0  0.92725  0.80538  0.90786  1.0000
  C   C13       1.0  0.92726  0.30536  0.59214  1.0000
  C   C14       1.0  0.42724  0.19463  0.90786  1.0000
  C   C15       1.0  0.57273  0.30536  0.40786  1.0000
  C   C16       1.0  0.07276  0.19462  0.09214  1.0000
  S   S1        1.0  0.99086  0.72244  0.52983  1.0000
  S   S2        1.0  0.49083  0.77758  0.97016  1.0000
  S   S3        1.0  0.50915  0.72242  0.47017  1.0000
  S   S4        1.0  0.00917  0.77759  0.02983  1.0000
  S   S5        1.0  0.00915  0.27756  0.47018  1.0000
  S   S6        1.0  0.50915  0.22242  0.02983  1.0000
  S   S7        1.0  0.49085  0.27757  0.52982  1.0000
  S   S8        1.0  0.99084  0.22242  0.97017  1.0000
  S   S9        1.0  0.11746  0.55680  0.36028  1.0000
  S   S10       1.0  0.61746  0.94321  0.13971  1.0000
  S   S11       1.0  0.38251  0.55681  0.63974  1.0000
  S   S12       1.0  0.88252  0.94321  0.86027  1.0000
  S   S13       1.0  0.88254  0.44320  0.63972  1.0000
  S   S14       1.0  0.38253  0.05678  0.86029  1.0000
  S   S15       1.0  0.61746  0.44319  0.36027  1.0000
  S   S16       1.0  0.11748  0.05679  0.13973  1.0000
  S   S17       1.0  0.28943  0.53066  0.14603  1.0000
  S   S18       1.0  0.78944  0.96935  0.35398  1.0000
  S   S19       1.0  0.21056  0.53066  0.85398  1.0000
  S   S20       1.0  0.71056  0.96935  0.64602  1.0000
  S   S21       1.0  0.71057  0.46935  0.85397  1.0000
  S   S22       1.0  0.21057  0.03064  0.64602  1.0000
  S   S23       1.0  0.78942  0.46934  0.14603  1.0000
  S   S24       1.0  0.28943  0.03065  0.35398  1.0000
  N   N1        1.0  0.12138  0.77097  0.33340  1.0000
  N   N2        1.0  0.62138  0.72903  0.16660  1.0000
  N   N3        1.0  0.37862  0.77096  0.66659  1.0000
  N   N4        1.0  0.87862  0.72904  0.83340  1.0000
  N   N5        1.0  0.87862  0.22903  0.66661  1.0000
  N   N6        1.0  0.37862  0.27096  0.83340  1.0000
  N   N7        1.0  0.62138  0.22903  0.33339  1.0000
  N   N8        1.0  0.12138  0.27096  0.16660  1.0000
  N   N9        1.0  0.19467  0.73167  0.24245  1.0000
  N   N10       1.0  0.69468  0.76834  0.25756  1.0000
  N   N11       1.0  0.30533  0.73166  0.75755  1.0000
  N   N12       1.0  0.80532  0.76836  0.74244  1.0000
  N   N13       1.0  0.80532  0.26832  0.75756  1.0000
  N   N14       1.0  0.30533  0.23166  0.74243  1.0000
  N   N15       1.0  0.69466  0.26832  0.24245  1.0000
  N   N16       1.0  0.19467  0.23165  0.25756  1.0000
