data_image0
_chemical_formula_structural       Ag4H40C32N12O12
_chemical_formula_sum              "Ag4 H40 C32 N12 O12"
_cell_length_a       5.01166
_cell_length_b       13.585
_cell_length_c       14.0368
_cell_angle_alpha    90.0005
_cell_angle_beta     89.9992
_cell_angle_gamma    89.9984

_space_group_name_H-M_alt    "P 1"
_space_group_IT_number       1

loop_
  _space_group_symop_operation_xyz
  'x, y, z'

loop_
  _atom_site_type_symbol
  _atom_site_label
  _atom_site_symmetry_multiplicity
  _atom_site_fract_x
  _atom_site_fract_y
  _atom_site_fract_z
  _atom_site_occupancy
  Ag  Ag1       1.0  0.70178  0.25180  0.88280  1.0000
  Ag  Ag2       1.0  0.20175  0.24818  0.11719  1.0000
  Ag  Ag3       1.0  0.29823  0.75182  0.61720  1.0000
  Ag  Ag4       1.0  0.79825  0.74820  0.38280  1.0000
  H   H1        1.0  0.24735  0.13372  0.74869  1.0000
  H   H2        1.0  0.74734  0.36628  0.25130  1.0000
  H   H3        1.0  0.75266  0.63372  0.75131  1.0000
  H   H4        1.0  0.25264  0.86629  0.24869  1.0000
  H   H5        1.0  0.58010  0.86355  0.84114  1.0000
  H   H6        1.0  0.08017  0.63644  0.15886  1.0000
  H   H7        1.0  0.41985  0.36356  0.65886  1.0000
  H   H8        1.0  0.91985  0.13645  0.34115  1.0000
  H   H9        1.0  0.01409  0.08563  0.94803  1.0000
  H   H10       1.0  0.51408  0.41434  0.05195  1.0000
  H   H11       1.0  0.98594  0.58567  0.55195  1.0000
  H   H12       1.0  0.48591  0.91436  0.44804  1.0000
  H   H13       1.0  0.01843  0.95512  0.94699  1.0000
  H   H14       1.0  0.51844  0.54484  0.05300  1.0000
  H   H15       1.0  0.98157  0.45516  0.55300  1.0000
  H   H16       1.0  0.48154  0.04487  0.44700  1.0000
  H   H17       1.0  0.95823  0.01794  0.10440  1.0000
  H   H18       1.0  0.45821  0.48204  0.89559  1.0000
  H   H19       1.0  0.04181  0.51797  0.39559  1.0000
  H   H20       1.0  0.54176  0.98206  0.60441  1.0000
  H   H21       1.0  0.38530  0.76651  0.11355  1.0000
  H   H22       1.0  0.88527  0.73347  0.88647  1.0000
  H   H23       1.0  0.61473  0.26654  0.38647  1.0000
  H   H24       1.0  0.11470  0.23348  0.61354  1.0000
  H   H25       1.0  0.63187  0.74350  0.20348  1.0000
  H   H26       1.0  0.13184  0.75649  0.79654  1.0000
  H   H27       1.0  0.36818  0.24351  0.29654  1.0000
  H   H28       1.0  0.86813  0.25650  0.70347  1.0000
  H   H29       1.0  0.66739  0.69004  0.08816  1.0000
  H   H30       1.0  0.16734  0.80994  0.91187  1.0000
  H   H31       1.0  0.33267  0.19006  0.41186  1.0000
  H   H32       1.0  0.83262  0.30996  0.58814  1.0000
  H   H33       1.0  0.43118  0.92900  0.08111  1.0000
  H   H34       1.0  0.93117  0.57099  0.91890  1.0000
  H   H35       1.0  0.56883  0.42901  0.41889  1.0000
  H   H36       1.0  0.06881  0.07099  0.58111  1.0000
  H   H37       1.0  0.24070  0.94810  0.72859  1.0000
  H   H38       1.0  0.74075  0.55190  0.27141  1.0000
  H   H39       1.0  0.75927  0.44809  0.77141  1.0000
  H   H40       1.0  0.25927  0.05191  0.22859  1.0000
  C   C1        1.0  0.62094  0.10967  0.08295  1.0000
  C   C2        1.0  0.12093  0.39031  0.91704  1.0000
  C   C3        1.0  0.37910  0.60969  0.41704  1.0000
  C   C4        1.0  0.87905  0.89033  0.58295  1.0000
  C   C5        1.0  0.37170  0.08264  0.78762  1.0000
  C   C6        1.0  0.87170  0.41735  0.21237  1.0000
  C   C7        1.0  0.62830  0.58265  0.71238  1.0000
  C   C8        1.0  0.12829  0.91737  0.28762  1.0000
  C   C9        1.0  0.67790  0.01981  0.88087  1.0000
  C   C10       1.0  0.17791  0.48016  0.11912  1.0000
  C   C11       1.0  0.32210  0.51984  0.61912  1.0000
  C   C12       1.0  0.82208  0.98018  0.38088  1.0000
  C   C13       1.0  0.55117  0.94244  0.83603  1.0000
  C   C14       1.0  0.05121  0.55754  0.16396  1.0000
  C   C15       1.0  0.44880  0.44246  0.66396  1.0000
  C   C16       1.0  0.94879  0.05756  0.33604  1.0000
  C   C17       1.0  0.88897  0.01960  0.95520  1.0000
  C   C18       1.0  0.38899  0.48037  0.04479  1.0000
  C   C19       1.0  0.11103  0.51963  0.54480  1.0000
  C   C20       1.0  0.61100  0.98039  0.45521  1.0000
  C   C21       1.0  0.78035  0.01708  0.05869  1.0000
  C   C22       1.0  0.28034  0.48290  0.94130  1.0000
  C   C23       1.0  0.21968  0.51710  0.44130  1.0000
  C   C24       1.0  0.71963  0.98291  0.55870  1.0000
  C   C25       1.0  0.76537  0.84214  0.09672  1.0000
  C   C26       1.0  0.26535  0.65784  0.90330  1.0000
  C   C27       1.0  0.23466  0.34216  0.40329  1.0000
  C   C28       1.0  0.73464  0.15786  0.59671  1.0000
  C   C29       1.0  0.59868  0.75546  0.12648  1.0000
  C   C30       1.0  0.09865  0.74453  0.87354  1.0000
  C   C31       1.0  0.40136  0.25548  0.37353  1.0000
  C   C32       1.0  0.90132  0.24454  0.62647  1.0000
  N   N1        1.0  0.63440  0.92745  0.07972  1.0000
  N   N2        1.0  0.13439  0.57254  0.92027  1.0000
  N   N3        1.0  0.36562  0.42747  0.42027  1.0000
  N   N4        1.0  0.86559  0.07255  0.57973  1.0000
  N   N5        1.0  0.35861  0.98376  0.77808  1.0000
  N   N6        1.0  0.85864  0.51624  0.22192  1.0000
  N   N7        1.0  0.64137  0.48377  0.72192  1.0000
  N   N8        1.0  0.14136  0.01625  0.27808  1.0000
  N   N9        1.0  0.56321  0.10705  0.84901  1.0000
  N   N10       1.0  0.06319  0.39294  0.15098  1.0000
  N   N11       1.0  0.43682  0.60706  0.65099  1.0000
  N   N12       1.0  0.93679  0.89295  0.34901  1.0000
  O   O1        1.0  0.38258  0.09884  0.11656  1.0000
  O   O2        1.0  0.88259  0.40114  0.88343  1.0000
  O   O3        1.0  0.61743  0.59886  0.38343  1.0000
  O   O4        1.0  0.11740  0.90115  0.61657  1.0000
  O   O5        1.0  0.72699  0.19187  0.06800  1.0000
  O   O6        1.0  0.22699  0.30811  0.93199  1.0000
  O   O7        1.0  0.27304  0.69190  0.43200  1.0000
  O   O8        1.0  0.77301  0.80812  0.56800  1.0000
  O   O9        1.0  0.01410  0.83688  0.09093  1.0000
  O   O10       1.0  0.51408  0.66310  0.90909  1.0000
  O   O11       1.0  0.98592  0.33691  0.40909  1.0000
  O   O12       1.0  0.48589  0.16312  0.59092  1.0000
