data_image0
_chemical_formula_structural       Sm2Ag2H42C58S4N6O24
_chemical_formula_sum              "Sm2 Ag2 H42 C58 S4 N6 O24"
_cell_length_a       8.7899
_cell_length_b       10.1198
_cell_length_c       18.399
_cell_angle_alpha    92.2522
_cell_angle_beta     99.6582
_cell_angle_gamma    105.465

_space_group_name_H-M_alt    "P 1"
_space_group_IT_number       1

loop_
  _space_group_symop_operation_xyz
  'x, y, z'

loop_
  _atom_site_type_symbol
  _atom_site_label
  _atom_site_symmetry_multiplicity
  _atom_site_fract_x
  _atom_site_fract_y
  _atom_site_fract_z
  _atom_site_occupancy
  Sm  Sm1       1.0  0.18979  0.39157  0.02381  1.0000
  Sm  Sm2       1.0  0.81021  0.60843  0.97619  1.0000
  Ag  Ag1       1.0  0.20745  0.04168  0.42519  1.0000
  Ag  Ag2       1.0  0.79255  0.95832  0.57481  1.0000
  H   H1        1.0  0.47457  0.71984  0.49620  1.0000
  H   H2        1.0  0.52543  0.28016  0.50380  1.0000
  H   H3        1.0  0.24429  0.68767  0.38916  1.0000
  H   H4        1.0  0.75571  0.31232  0.61084  1.0000
  H   H5        1.0  0.26182  0.86791  0.29747  1.0000
  H   H6        1.0  0.73818  0.13209  0.70253  1.0000
  H   H7        1.0  0.50380  0.06772  0.31591  1.0000
  H   H8        1.0  0.49620  0.93227  0.68409  1.0000
  H   H9        1.0  0.74772  0.17322  0.31391  1.0000
  H   H10       1.0  0.25228  0.82678  0.68609  1.0000
  H   H11       1.0  0.18697  0.37630  0.46385  1.0000
  H   H12       1.0  0.81303  0.62370  0.53615  1.0000
  H   H13       1.0  0.29548  0.41277  0.57555  1.0000
  H   H14       1.0  0.70452  0.58723  0.42445  1.0000
  H   H15       1.0  0.43981  0.41495  0.70260  1.0000
  H   H16       1.0  0.56020  0.58505  0.29740  1.0000
  H   H17       1.0  0.32946  0.22739  0.78228  1.0000
  H   H18       1.0  0.67055  0.77262  0.21772  1.0000
  H   H19       1.0  0.07211  0.04787  0.72807  1.0000
  H   H20       1.0  0.92789  0.95213  0.27193  1.0000
  H   H21       1.0  0.31239  0.51520  0.22591  1.0000
  H   H22       1.0  0.68761  0.48480  0.77409  1.0000
  H   H23       1.0  0.84219  0.57559  0.20731  1.0000
  H   H24       1.0  0.15781  0.42441  0.79269  1.0000
  H   H25       1.0  0.78706  0.42079  0.30696  1.0000
  H   H26       1.0  0.21294  0.57921  0.69304  1.0000
  H   H27       1.0  0.51386  0.17267  0.88211  1.0000
  H   H28       1.0  0.48614  0.82733  0.11789  1.0000
  H   H29       1.0  0.58892  0.97358  0.83280  1.0000
  H   H30       1.0  0.41108  0.02642  0.16720  1.0000
  H   H31       1.0  0.44608  0.73515  0.85717  1.0000
  H   H32       1.0  0.55392  0.26485  0.14283  1.0000
  H   H33       1.0  0.13813  0.90127  0.97190  1.0000
  H   H34       1.0  0.86187  0.09873  0.02810  1.0000
  H   H35       1.0  0.29553  0.28369  0.18263  1.0000
  H   H36       1.0  0.70447  0.71631  0.81737  1.0000
  H   H37       1.0  0.19504  0.16567  0.11840  1.0000
  H   H38       1.0  0.80496  0.83433  0.88160  1.0000
  H   H39       1.0  0.51084  0.58262  0.08299  1.0000
  H   H40       1.0  0.48916  0.41738  0.91701  1.0000
  H   H41       1.0  0.54429  0.44041  0.07664  1.0000
  H   H42       1.0  0.45571  0.55959  0.92336  1.0000
  C   C1        1.0  0.47580  0.79378  0.45448  1.0000
  C   C2        1.0  0.52420  0.20622  0.54552  1.0000
  C   C3        1.0  0.34867  0.77688  0.39529  1.0000
  C   C4        1.0  0.65133  0.22312  0.60471  1.0000
  C   C5        1.0  0.35746  0.87722  0.34499  1.0000
  C   C6        1.0  0.64254  0.12278  0.65501  1.0000
  C   C7        1.0  0.49566  0.98803  0.35437  1.0000
  C   C8        1.0  0.50434  0.01197  0.64563  1.0000
  C   C9        1.0  0.62079  0.99613  0.41407  1.0000
  C   C10       1.0  0.37921  0.00386  0.58593  1.0000
  C   C11       1.0  0.77406  0.10839  0.42537  1.0000
  C   C12       1.0  0.22594  0.89160  0.57463  1.0000
  C   C13       1.0  0.82224  0.18917  0.36886  1.0000
  C   C14       1.0  0.17776  0.81082  0.63114  1.0000
  C   C15       1.0  0.97176  0.28842  0.38251  1.0000
  C   C16       1.0  0.02824  0.71158  0.61749  1.0000
  C   C17       1.0  0.06866  0.30252  0.45283  1.0000
  C   C18       1.0  0.93133  0.69748  0.54717  1.0000
  C   C19       1.0  0.01158  0.21930  0.50717  1.0000
  C   C20       1.0  0.98841  0.78070  0.49283  1.0000
  C   C21       1.0  0.10544  0.22791  0.58377  1.0000
  C   C22       1.0  0.89456  0.77209  0.41623  1.0000
  C   C23       1.0  0.24771  0.33235  0.60999  1.0000
  C   C24       1.0  0.75229  0.66765  0.39001  1.0000
  C   C25       1.0  0.33056  0.33280  0.68159  1.0000
  C   C26       1.0  0.66945  0.66720  0.31841  1.0000
  C   C27       1.0  0.26938  0.23013  0.72577  1.0000
  C   C28       1.0  0.73062  0.76987  0.27423  1.0000
  C   C29       1.0  0.12645  0.13035  0.69598  1.0000
  C   C30       1.0  0.87355  0.86965  0.30402  1.0000
  C   C31       1.0  0.01819  0.37959  0.32399  1.0000
  C   C32       1.0  0.98181  0.62042  0.67601  1.0000
  C   C33       1.0  0.16684  0.40635  0.29955  1.0000
  C   C34       1.0  0.83316  0.59365  0.70045  1.0000
  C   C35       1.0  0.19945  0.49798  0.24586  1.0000
  C   C36       1.0  0.80055  0.50202  0.75414  1.0000
  C   C37       1.0  0.08380  0.56010  0.21376  1.0000
  C   C38       1.0  0.91619  0.43990  0.78624  1.0000
  C   C39       1.0  0.93411  0.53115  0.23467  1.0000
  C   C40       1.0  0.06589  0.46885  0.76533  1.0000
  C   C41       1.0  0.90351  0.44256  0.28984  1.0000
  C   C42       1.0  0.09649  0.55744  0.71016  1.0000
  C   C43       1.0  0.27135  0.16632  0.95945  1.0000
  C   C44       1.0  0.72864  0.83368  0.04055  1.0000
  C   C45       1.0  0.31809  0.04837  0.92828  1.0000
  C   C46       1.0  0.68191  0.95163  0.07172  1.0000
  C   C47       1.0  0.44597  0.06872  0.88976  1.0000
  C   C48       1.0  0.55403  0.93128  0.11024  1.0000
  C   C49       1.0  0.48945  0.95575  0.86282  1.0000
  C   C50       1.0  0.51055  0.04425  0.13718  1.0000
  C   C51       1.0  0.40991  0.82313  0.87679  1.0000
  C   C52       1.0  0.59009  0.17688  0.12321  1.0000
  C   C53       1.0  0.28343  0.80280  0.91643  1.0000
  C   C54       1.0  0.71657  0.19721  0.08357  1.0000
  C   C55       1.0  0.23548  0.91519  0.94072  1.0000
  C   C56       1.0  0.76452  0.08481  0.05928  1.0000
  C   C57       1.0  0.20773  0.66500  0.93913  1.0000
  C   C58       1.0  0.79227  0.33500  0.06088  1.0000
  S   S1        1.0  0.31159  0.31169  0.32646  1.0000
  S   S2        1.0  0.68841  0.68831  0.67354  1.0000
  S   S3        1.0  0.13026  0.67123  0.14291  1.0000
  S   S4        1.0  0.86974  0.32877  0.85709  1.0000
  N   N1        1.0  0.60805  0.90075  0.46385  1.0000
  N   N2        1.0  0.39195  0.09924  0.53616  1.0000
  N   N3        1.0  0.86717  0.12635  0.49250  1.0000
  N   N4        1.0  0.13283  0.87364  0.50750  1.0000
  N   N5        1.0  0.04738  0.12866  0.62693  1.0000
  N   N6        1.0  0.95262  0.87134  0.37307  1.0000
  O   O1        1.0  0.40281  0.36957  0.39995  1.0000
  O   O2        1.0  0.59719  0.63043  0.60005  1.0000
  O   O3        1.0  0.21181  0.16773  0.32322  1.0000
  O   O4        1.0  0.78819  0.83227  0.67678  1.0000
  O   O5        1.0  0.41180  0.32976  0.26854  1.0000
  O   O6        1.0  0.58820  0.67024  0.73145  1.0000
  O   O7        1.0  0.22168  0.80619  0.17841  1.0000
  O   O8        1.0  0.77832  0.19382  0.82159  1.0000
  O   O9        1.0  0.22543  0.60554  0.10147  1.0000
  O   O10       1.0  0.77456  0.39446  0.89853  1.0000
  O   O11       1.0  0.97403  0.67028  0.09846  1.0000
  O   O12       1.0  0.02596  0.32972  0.90154  1.0000
  O   O13       1.0  0.15819  0.14429  0.99652  1.0000
  O   O14       1.0  0.84181  0.85571  0.00348  1.0000
  O   O15       1.0  0.34668  0.29027  0.94998  1.0000
  O   O16       1.0  0.65331  0.70973  0.05002  1.0000
  O   O17       1.0  0.29096  0.57908  0.94930  1.0000
  O   O18       1.0  0.70904  0.42092  0.05070  1.0000
  O   O19       1.0  0.06518  0.63757  0.95153  1.0000
  O   O20       1.0  0.93482  0.36243  0.04847  1.0000
  O   O21       1.0  0.22103  0.26355  0.13370  1.0000
  O   O22       1.0  0.77896  0.73645  0.86630  1.0000
  O   O23       1.0  0.46263  0.48469  0.08994  1.0000
  O   O24       1.0  0.53737  0.51531  0.91006  1.0000
