data_image0
_chemical_formula_structural       Zn4H52C40N4O40
_chemical_formula_sum              "Zn4 H52 C40 N4 O40"
_cell_length_a       9.86937
_cell_length_b       9.96276
_cell_length_c       13.3621
_cell_angle_alpha    98.0292
_cell_angle_beta     90
_cell_angle_gamma    90

_space_group_name_H-M_alt    "P 1"
_space_group_IT_number       1

loop_
  _space_group_symop_operation_xyz
  'x, y, z'

loop_
  _atom_site_type_symbol
  _atom_site_label
  _atom_site_symmetry_multiplicity
  _atom_site_fract_x
  _atom_site_fract_y
  _atom_site_fract_z
  _atom_site_occupancy
  Zn  Zn1       1.0  0.25520  0.22226  0.82736  1.0000
  Zn  Zn2       1.0  0.75520  0.27775  0.17264  1.0000
  Zn  Zn3       1.0  0.74480  0.77774  0.17264  1.0000
  Zn  Zn4       1.0  0.24480  0.72226  0.82736  1.0000
  H   H1        1.0  0.12349  0.12007  0.67733  1.0000
  H   H2        1.0  0.62348  0.37993  0.32267  1.0000
  H   H3        1.0  0.87652  0.87993  0.32267  1.0000
  H   H4        1.0  0.37652  0.62007  0.67733  1.0000
  H   H5        1.0  0.14411  0.98979  0.73199  1.0000
  H   H6        1.0  0.64411  0.51021  0.26801  1.0000
  H   H7        1.0  0.85589  0.01021  0.26801  1.0000
  H   H8        1.0  0.35589  0.48979  0.73199  1.0000
  H   H9        1.0  0.09725  0.44297  0.84038  1.0000
  H   H10       1.0  0.59725  0.05704  0.15962  1.0000
  H   H11       1.0  0.90275  0.55703  0.15962  1.0000
  H   H12       1.0  0.40275  0.94297  0.84038  1.0000
  H   H13       1.0  0.01720  0.32528  0.88888  1.0000
  H   H14       1.0  0.51720  0.17472  0.11112  1.0000
  H   H15       1.0  0.98280  0.67472  0.11112  1.0000
  H   H16       1.0  0.48280  0.82528  0.88888  1.0000
  H   H17       1.0  0.36347  0.45666  0.92109  1.0000
  H   H18       1.0  0.86346  0.04334  0.07891  1.0000
  H   H19       1.0  0.63653  0.54334  0.07891  1.0000
  H   H20       1.0  0.13653  0.95666  0.92109  1.0000
  H   H21       1.0  0.40287  0.32345  0.96897  1.0000
  H   H22       1.0  0.90286  0.17655  0.03103  1.0000
  H   H23       1.0  0.59714  0.67655  0.03102  1.0000
  H   H24       1.0  0.09713  0.82345  0.96897  1.0000
  H   H25       1.0  0.62390  0.04645  0.52964  1.0000
  H   H26       1.0  0.12390  0.45355  0.47036  1.0000
  H   H27       1.0  0.37610  0.95355  0.47036  1.0000
  H   H28       1.0  0.87611  0.54645  0.52964  1.0000
  H   H29       1.0  0.58604  0.28047  0.82487  1.0000
  H   H30       1.0  0.08604  0.21952  0.17513  1.0000
  H   H31       1.0  0.41396  0.71953  0.17513  1.0000
  H   H32       1.0  0.91395  0.78047  0.82488  1.0000
  H   H33       1.0  0.92420  0.33149  0.62355  1.0000
  H   H34       1.0  0.42420  0.16851  0.37645  1.0000
  H   H35       1.0  0.07580  0.66851  0.37645  1.0000
  H   H36       1.0  0.57580  0.83149  0.62355  1.0000
  H   H37       1.0  0.83658  0.04495  0.45173  1.0000
  H   H38       1.0  0.33658  0.45506  0.54827  1.0000
  H   H39       1.0  0.16341  0.95506  0.54827  1.0000
  H   H40       1.0  0.66342  0.54494  0.45173  1.0000
  H   H41       1.0  0.94490  0.18952  0.47832  1.0000
  H   H42       1.0  0.44490  0.31048  0.52168  1.0000
  H   H43       1.0  0.05510  0.81047  0.52168  1.0000
  H   H44       1.0  0.55510  0.68952  0.47832  1.0000
  H   H45       1.0  0.64874  0.48426  0.88521  1.0000
  H   H46       1.0  0.14874  0.01574  0.11479  1.0000
  H   H47       1.0  0.35126  0.51574  0.11479  1.0000
  H   H48       1.0  0.85126  0.98426  0.88521  1.0000
  H   H49       1.0  0.80714  0.56246  0.92261  1.0000
  H   H50       1.0  0.30714  0.93754  0.07739  1.0000
  H   H51       1.0  0.19286  0.43754  0.07739  1.0000
  H   H52       1.0  0.69286  0.06246  0.92261  1.0000
  C   C1        1.0  0.66140  0.12015  0.59124  1.0000
  C   C2        1.0  0.16140  0.37985  0.40876  1.0000
  C   C3        1.0  0.33860  0.87985  0.40876  1.0000
  C   C4        1.0  0.83860  0.62015  0.59124  1.0000
  C   C5        1.0  0.59439  0.15199  0.68264  1.0000
  C   C6        1.0  0.09440  0.34801  0.31736  1.0000
  C   C7        1.0  0.40560  0.84801  0.31736  1.0000
  C   C8        1.0  0.90560  0.65199  0.68264  1.0000
  C   C9        1.0  0.64364  0.25450  0.75518  1.0000
  C   C10       1.0  0.14364  0.24550  0.24482  1.0000
  C   C11       1.0  0.35636  0.74550  0.24482  1.0000
  C   C12       1.0  0.85636  0.75450  0.75519  1.0000
  C   C13       1.0  0.76203  0.32264  0.73421  1.0000
  C   C14       1.0  0.26203  0.17736  0.26579  1.0000
  C   C15       1.0  0.23797  0.67736  0.26579  1.0000
  C   C16       1.0  0.73796  0.82264  0.73421  1.0000
  C   C17       1.0  0.82962  0.28424  0.64256  1.0000
  C   C18       1.0  0.32962  0.21576  0.35744  1.0000
  C   C19       1.0  0.17038  0.71576  0.35744  1.0000
  C   C20       1.0  0.67039  0.78424  0.64256  1.0000
  C   C21       1.0  0.46869  0.07211  0.70062  1.0000
  C   C22       1.0  0.96869  0.42789  0.29938  1.0000
  C   C23       1.0  0.53131  0.92789  0.29938  1.0000
  C   C24       1.0  0.03131  0.57211  0.70063  1.0000
  C   C25       1.0  0.83909  0.15513  0.47383  1.0000
  C   C26       1.0  0.33910  0.34487  0.52617  1.0000
  C   C27       1.0  0.16090  0.84487  0.52617  1.0000
  C   C28       1.0  0.66091  0.65513  0.47383  1.0000
  C   C29       1.0  0.76207  0.22356  0.39442  1.0000
  C   C30       1.0  0.26207  0.27644  0.60558  1.0000
  C   C31       1.0  0.23793  0.77644  0.60558  1.0000
  C   C32       1.0  0.73794  0.72356  0.39442  1.0000
  C   C33       1.0  0.75804  0.46650  0.89233  1.0000
  C   C34       1.0  0.25804  0.03350  0.10767  1.0000
  C   C35       1.0  0.24196  0.53350  0.10767  1.0000
  C   C36       1.0  0.74196  0.96650  0.89233  1.0000
  C   C37       1.0  0.78495  0.36476  0.96561  1.0000
  C   C38       1.0  0.28494  0.13524  0.03439  1.0000
  C   C39       1.0  0.21506  0.63523  0.03439  1.0000
  C   C40       1.0  0.71505  0.86476  0.96561  1.0000
  N   N1        1.0  0.77720  0.18569  0.57422  1.0000
  N   N2        1.0  0.27720  0.31431  0.42578  1.0000
  N   N3        1.0  0.22280  0.81431  0.42578  1.0000
  N   N4        1.0  0.72280  0.68569  0.57422  1.0000
  O   O1        1.0  0.11398  0.08569  0.74418  1.0000
  O   O2        1.0  0.61398  0.41431  0.25581  1.0000
  O   O3        1.0  0.88602  0.91431  0.25582  1.0000
  O   O4        1.0  0.38602  0.58569  0.74418  1.0000
  O   O5        1.0  0.87264  0.27340  0.94166  1.0000
  O   O6        1.0  0.37264  0.22660  0.05833  1.0000
  O   O7        1.0  0.12736  0.72660  0.05834  1.0000
  O   O8        1.0  0.62736  0.77340  0.94166  1.0000
  O   O9        1.0  0.10834  0.36239  0.87657  1.0000
  O   O10       1.0  0.60834  0.13761  0.12343  1.0000
  O   O11       1.0  0.89166  0.63760  0.12342  1.0000
  O   O12       1.0  0.39166  0.86240  0.87658  1.0000
  O   O13       1.0  0.71604  0.38264  0.04706  1.0000
  O   O14       1.0  0.21604  0.11736  0.95294  1.0000
  O   O15       1.0  0.28396  0.61736  0.95294  1.0000
  O   O16       1.0  0.78396  0.88264  0.04706  1.0000
  O   O17       1.0  0.40238  0.36408  0.90440  1.0000
  O   O18       1.0  0.90237  0.13592  0.09559  1.0000
  O   O19       1.0  0.59763  0.63592  0.09560  1.0000
  O   O20       1.0  0.09762  0.86408  0.90440  1.0000
  O   O21       1.0  0.66948  0.30711  0.42256  1.0000
  O   O22       1.0  0.16948  0.19289  0.57744  1.0000
  O   O23       1.0  0.33052  0.69289  0.57744  1.0000
  O   O24       1.0  0.83052  0.80711  0.42256  1.0000
  O   O25       1.0  0.80611  0.18836  0.30476  1.0000
  O   O26       1.0  0.30611  0.31164  0.69524  1.0000
  O   O27       1.0  0.19389  0.81164  0.69524  1.0000
  O   O28       1.0  0.69390  0.68836  0.30476  1.0000
  O   O29       1.0  0.42246  0.99397  0.62727  1.0000
  O   O30       1.0  0.92246  0.50603  0.37273  1.0000
  O   O31       1.0  0.57755  0.00603  0.37273  1.0000
  O   O32       1.0  0.07755  0.49397  0.62727  1.0000
  O   O33       1.0  0.42176  0.08899  0.79155  1.0000
  O   O34       1.0  0.92176  0.41101  0.20845  1.0000
  O   O35       1.0  0.57824  0.91101  0.20845  1.0000
  O   O36       1.0  0.07824  0.58899  0.79155  1.0000
  O   O37       1.0  0.81895  0.42675  0.79533  1.0000
  O   O38       1.0  0.31895  0.07325  0.20467  1.0000
  O   O39       1.0  0.18105  0.57325  0.20467  1.0000
  O   O40       1.0  0.68105  0.92675  0.79533  1.0000
