data_image0
_chemical_formula_structural       Cu8H40C36Br8N12
_chemical_formula_sum              "Cu8 H40 C36 Br8 N12"
_cell_length_a       9.82086
_cell_length_b       9.83712
_cell_length_c       12.9395
_cell_angle_alpha    92.9345
_cell_angle_beta     92.9393
_cell_angle_gamma    101.023

_space_group_name_H-M_alt    "P 1"
_space_group_IT_number       1

loop_
  _space_group_symop_operation_xyz
  'x, y, z'

loop_
  _atom_site_type_symbol
  _atom_site_label
  _atom_site_symmetry_multiplicity
  _atom_site_fract_x
  _atom_site_fract_y
  _atom_site_fract_z
  _atom_site_occupancy
  Cu  Cu1       1.0  0.99816  0.86523  0.47540  1.0000
  Cu  Cu2       1.0  0.13477  0.00149  0.02472  1.0000
  Cu  Cu3       1.0  0.00185  0.13477  0.52460  1.0000
  Cu  Cu4       1.0  0.86522  0.99850  0.97528  1.0000
  Cu  Cu5       1.0  0.08546  0.12101  0.32620  1.0000
  Cu  Cu6       1.0  0.87902  0.91450  0.17398  1.0000
  Cu  Cu7       1.0  0.91453  0.87899  0.67380  1.0000
  Cu  Cu8       1.0  0.12098  0.08550  0.82602  1.0000
  H   H1        1.0  0.57615  0.86184  0.27339  1.0000
  H   H2        1.0  0.13807  0.42413  0.22647  1.0000
  H   H3        1.0  0.42386  0.13817  0.72661  1.0000
  H   H4        1.0  0.86193  0.57587  0.77353  1.0000
  H   H5        1.0  0.59537  0.64485  0.35819  1.0000
  H   H6        1.0  0.35535  0.40493  0.14171  1.0000
  H   H7        1.0  0.40465  0.35516  0.64181  1.0000
  H   H8        1.0  0.64464  0.59507  0.85829  1.0000
  H   H9        1.0  0.40579  0.52476  0.45987  1.0000
  H   H10       1.0  0.47571  0.59422  0.04005  1.0000
  H   H11       1.0  0.59422  0.47525  0.54013  1.0000
  H   H12       1.0  0.52428  0.40578  0.95995  1.0000
  H   H13       1.0  0.19591  0.62630  0.48984  1.0000
  H   H14       1.0  0.37407  0.80383  0.01010  1.0000
  H   H15       1.0  0.80411  0.37370  0.51017  1.0000
  H   H16       1.0  0.62592  0.19617  0.98990  1.0000
  H   H17       1.0  0.44226  0.02990  0.17596  1.0000
  H   H18       1.0  0.97014  0.55799  0.32414  1.0000
  H   H19       1.0  0.55774  0.97010  0.82404  1.0000
  H   H20       1.0  0.02986  0.44201  0.67587  1.0000
  H   H21       1.0  0.32199  0.13754  0.20584  1.0000
  H   H22       1.0  0.86209  0.67783  0.29419  1.0000
  H   H23       1.0  0.67800  0.86246  0.79416  1.0000
  H   H24       1.0  0.13791  0.32217  0.70581  1.0000
  H   H25       1.0  0.47631  0.25610  0.35373  1.0000
  H   H26       1.0  0.74369  0.52351  0.14626  1.0000
  H   H27       1.0  0.52368  0.74390  0.64627  1.0000
  H   H28       1.0  0.25631  0.47649  0.85374  1.0000
  H   H29       1.0  0.58676  0.13399  0.34401  1.0000
  H   H30       1.0  0.86630  0.41358  0.15605  1.0000
  H   H31       1.0  0.41323  0.86601  0.65599  1.0000
  H   H32       1.0  0.13370  0.58642  0.84395  1.0000
  H   H33       1.0  0.54140  0.32611  0.17089  1.0000
  H   H34       1.0  0.67367  0.45831  0.32912  1.0000
  H   H35       1.0  0.45860  0.67390  0.82911  1.0000
  H   H36       1.0  0.32633  0.54169  0.67089  1.0000
  H   H37       1.0  0.65714  0.20933  0.17276  1.0000
  H   H38       1.0  0.79087  0.34300  0.32721  1.0000
  H   H39       1.0  0.34285  0.79067  0.82724  1.0000
  H   H40       1.0  0.20912  0.65700  0.67279  1.0000
  C   C1        1.0  0.27083  0.80222  0.39947  1.0000
  C   C2        1.0  0.19795  0.72911  0.10055  1.0000
  C   C3        1.0  0.72918  0.19778  0.60053  1.0000
  C   C4        1.0  0.80204  0.27089  0.89945  1.0000
  C   C5        1.0  0.37662  0.86713  0.33838  1.0000
  C   C6        1.0  0.13291  0.62350  0.16162  1.0000
  C   C7        1.0  0.62339  0.13287  0.66162  1.0000
  C   C8        1.0  0.86708  0.37650  0.83838  1.0000
  C   C9        1.0  0.49520  0.81211  0.32093  1.0000
  C   C10       1.0  0.18787  0.50501  0.17897  1.0000
  C   C11       1.0  0.50481  0.18790  0.67907  1.0000
  C   C12       1.0  0.81212  0.49499  0.82102  1.0000
  C   C13       1.0  0.50354  0.69012  0.36802  1.0000
  C   C14       1.0  0.31006  0.49664  0.13190  1.0000
  C   C15       1.0  0.49647  0.30989  0.63198  1.0000
  C   C16       1.0  0.68994  0.50336  0.86810  1.0000
  C   C17       1.0  0.39702  0.62329  0.42799  1.0000
  C   C18       1.0  0.37704  0.60299  0.07195  1.0000
  C   C19       1.0  0.60300  0.37672  0.57201  1.0000
  C   C20       1.0  0.62296  0.39701  0.92805  1.0000
  C   C21       1.0  0.27933  0.67776  0.44505  1.0000
  C   C22       1.0  0.32255  0.72054  0.05490  1.0000
  C   C23       1.0  0.72068  0.32224  0.55495  1.0000
  C   C24       1.0  0.67745  0.27946  0.94510  1.0000
  C   C25       1.0  0.40230  0.08628  0.23969  1.0000
  C   C26       1.0  0.91359  0.59776  0.26038  1.0000
  C   C27       1.0  0.59770  0.91372  0.76031  1.0000
  C   C28       1.0  0.08640  0.40223  0.73962  1.0000
  C   C29       1.0  0.52034  0.19020  0.29829  1.0000
  C   C30       1.0  0.80978  0.47972  0.20174  1.0000
  C   C31       1.0  0.47965  0.80980  0.70171  1.0000
  C   C32       1.0  0.19021  0.52028  0.79826  1.0000
  C   C33       1.0  0.60869  0.27818  0.22283  1.0000
  C   C34       1.0  0.72181  0.39128  0.27716  1.0000
  C   C35       1.0  0.39131  0.72182  0.77717  1.0000
  C   C36       1.0  0.27819  0.60871  0.72284  1.0000
  Br  Br1       1.0  0.83876  0.96806  0.36085  1.0000
  Br  Br2       1.0  0.03214  0.16104  0.13919  1.0000
  Br  Br3       1.0  0.16125  0.03194  0.63915  1.0000
  Br  Br4       1.0  0.96787  0.83896  0.86080  1.0000
  Br  Br5       1.0  0.90163  0.66867  0.56765  1.0000
  Br  Br6       1.0  0.33141  0.09827  0.93239  1.0000
  Br  Br7       1.0  0.09837  0.33132  0.43235  1.0000
  Br  Br8       1.0  0.66859  0.90173  0.06761  1.0000
  N   N1        1.0  0.33191  0.98197  0.30520  1.0000
  N   N2        1.0  0.01801  0.66821  0.19491  1.0000
  N   N3        1.0  0.66810  0.01803  0.69480  1.0000
  N   N4        1.0  0.98199  0.33179  0.80509  1.0000
  N   N5        1.0  0.20710  0.98816  0.34314  1.0000
  N   N6        1.0  0.01185  0.79286  0.15704  1.0000
  N   N7        1.0  0.79290  0.01184  0.65686  1.0000
  N   N8        1.0  0.98814  0.20713  0.84296  1.0000
  N   N9        1.0  0.16913  0.88056  0.39974  1.0000
  N   N10       1.0  0.11958  0.83074  0.10038  1.0000
  N   N11       1.0  0.83088  0.11945  0.60027  1.0000
  N   N12       1.0  0.88041  0.16926  0.89962  1.0000
