data_image0
_chemical_formula_structural       Cd2H18C20N2O16
_chemical_formula_sum              "Cd2 H18 C20 N2 O16"
_cell_length_a       4.98543
_cell_length_b       11.0498
_cell_length_c       11.8324
_cell_angle_alpha    113.796
_cell_angle_beta     92.55
_cell_angle_gamma    92.0534

_space_group_name_H-M_alt    "P 1"
_space_group_IT_number       1

loop_
  _space_group_symop_operation_xyz
  'x, y, z'

loop_
  _atom_site_type_symbol
  _atom_site_label
  _atom_site_symmetry_multiplicity
  _atom_site_fract_x
  _atom_site_fract_y
  _atom_site_fract_z
  _atom_site_occupancy
  Cd  Cd1       1.0  0.54163  0.12102  0.77926  1.0000
  Cd  Cd2       1.0  0.45837  0.87898  0.22075  1.0000
  H   H1        1.0  0.01629  0.04504  0.63861  1.0000
  H   H2        1.0  0.98371  0.95496  0.36139  1.0000
  H   H3        1.0  0.78777  0.07123  0.55659  1.0000
  H   H4        1.0  0.21223  0.92877  0.44341  1.0000
  H   H5        1.0  0.03271  0.43050  0.05959  1.0000
  H   H6        1.0  0.96729  0.56950  0.94041  1.0000
  H   H7        1.0  0.59395  0.56715  0.39240  1.0000
  H   H8        1.0  0.40605  0.43285  0.60760  1.0000
  H   H9        1.0  0.05279  0.21587  0.27821  1.0000
  H   H10       1.0  0.94721  0.78413  0.72179  1.0000
  H   H11       1.0  0.27648  0.15367  0.11564  1.0000
  H   H12       1.0  0.72351  0.84633  0.88436  1.0000
  H   H13       1.0  0.37656  0.27186  0.05629  1.0000
  H   H14       1.0  0.62344  0.72814  0.94371  1.0000
  H   H15       1.0  0.74395  0.28901  0.57292  1.0000
  H   H16       1.0  0.25606  0.71099  0.42708  1.0000
  H   H17       1.0  0.01427  0.25195  0.47337  1.0000
  H   H18       1.0  0.98573  0.74805  0.52663  1.0000
  C   C1        1.0  0.96492  0.42449  0.14368  1.0000
  C   C2        1.0  0.03508  0.57551  0.85632  1.0000
  C   C3        1.0  0.79905  0.51477  0.22357  1.0000
  C   C4        1.0  0.20094  0.48523  0.77643  1.0000
  C   C5        1.0  0.72348  0.49828  0.32843  1.0000
  C   C6        1.0  0.27652  0.50172  0.67157  1.0000
  C   C7        1.0  0.81319  0.39194  0.35245  1.0000
  C   C8        1.0  0.18681  0.60806  0.64755  1.0000
  C   C9        1.0  0.97482  0.30213  0.26887  1.0000
  C   C10       1.0  0.02518  0.69787  0.73113  1.0000
  C   C11       1.0  0.20331  0.22170  0.07632  1.0000
  C   C12       1.0  0.79669  0.77830  0.92368  1.0000
  C   C13       1.0  0.03528  0.14475  0.95402  1.0000
  C   C14       1.0  0.96473  0.85525  0.04598  1.0000
  C   C15       1.0  0.69929  0.62709  0.19356  1.0000
  C   C16       1.0  0.30071  0.37291  0.80643  1.0000
  C   C17       1.0  0.79786  0.26899  0.47823  1.0000
  C   C18       1.0  0.20215  0.73101  0.52177  1.0000
  C   C19       1.0  0.63660  0.14471  0.38842  1.0000
  C   C20       1.0  0.36340  0.85529  0.61159  1.0000
  N   N1        1.0  0.04688  0.32180  0.16826  1.0000
  N   N2        1.0  0.95312  0.67821  0.83174  1.0000
  O   O1        1.0  0.86594  0.10220  0.64294  1.0000
  O   O2        1.0  0.13405  0.89780  0.35706  1.0000
  O   O3        1.0  0.15629  0.06656  0.86453  1.0000
  O   O4        1.0  0.84371  0.93344  0.13547  1.0000
  O   O5        1.0  0.78578  0.16550  0.95442  1.0000
  O   O6        1.0  0.21422  0.83450  0.04558  1.0000
  O   O7        1.0  0.55909  0.70939  0.27528  1.0000
  O   O8        1.0  0.44091  0.29061  0.72471  1.0000
  O   O9        1.0  0.75583  0.63160  0.09324  1.0000
  O   O10       1.0  0.24417  0.36839  0.90675  1.0000
  O   O11       1.0  0.73873  0.38502  0.45838  1.0000
  O   O12       1.0  0.26128  0.61498  0.54162  1.0000
  O   O13       1.0  0.69386  0.03831  0.40245  1.0000
  O   O14       1.0  0.30614  0.96169  0.59755  1.0000
  O   O15       1.0  0.46685  0.14832  0.30924  1.0000
  O   O16       1.0  0.53315  0.85168  0.69076  1.0000
