data_image0
_chemical_formula_structural       Cd4H52C40N4O40
_chemical_formula_sum              "Cd4 H52 C40 N4 O40"
_cell_length_a       9.93368
_cell_length_b       10.2404
_cell_length_c       13.5585
_cell_angle_alpha    98.1017
_cell_angle_beta     90
_cell_angle_gamma    90

_space_group_name_H-M_alt    "P 1"
_space_group_IT_number       1

loop_
  _space_group_symop_operation_xyz
  'x, y, z'

loop_
  _atom_site_type_symbol
  _atom_site_label
  _atom_site_symmetry_multiplicity
  _atom_site_fract_x
  _atom_site_fract_y
  _atom_site_fract_z
  _atom_site_occupancy
  Cd  Cd1       1.0  0.24595  0.22029  0.82888  1.0000
  Cd  Cd2       1.0  0.74595  0.27972  0.17112  1.0000
  Cd  Cd3       1.0  0.75405  0.77972  0.17112  1.0000
  Cd  Cd4       1.0  0.25405  0.72029  0.82888  1.0000
  H   H1        1.0  0.12121  0.11342  0.66748  1.0000
  H   H2        1.0  0.62121  0.38658  0.33252  1.0000
  H   H3        1.0  0.87879  0.88657  0.33252  1.0000
  H   H4        1.0  0.37879  0.61342  0.66748  1.0000
  H   H5        1.0  0.13072  0.98394  0.72004  1.0000
  H   H6        1.0  0.63072  0.51606  0.27996  1.0000
  H   H7        1.0  0.86928  0.01606  0.27996  1.0000
  H   H8        1.0  0.36928  0.48394  0.72004  1.0000
  H   H9        1.0  0.08506  0.45006  0.84746  1.0000
  H   H10       1.0  0.58506  0.04994  0.15254  1.0000
  H   H11       1.0  0.91494  0.54994  0.15254  1.0000
  H   H12       1.0  0.41494  0.95006  0.84746  1.0000
  H   H13       1.0  0.00280  0.34026  0.89744  1.0000
  H   H14       1.0  0.50280  0.15974  0.10255  1.0000
  H   H15       1.0  0.99720  0.65973  0.10255  1.0000
  H   H16       1.0  0.49720  0.84026  0.89744  1.0000
  H   H17       1.0  0.37464  0.45227  0.93222  1.0000
  H   H18       1.0  0.87464  0.04773  0.06778  1.0000
  H   H19       1.0  0.62536  0.54772  0.06778  1.0000
  H   H20       1.0  0.12536  0.95227  0.93222  1.0000
  H   H21       1.0  0.40454  0.31789  0.97518  1.0000
  H   H22       1.0  0.90454  0.18211  0.02482  1.0000
  H   H23       1.0  0.59546  0.68211  0.02482  1.0000
  H   H24       1.0  0.09546  0.81789  0.97518  1.0000
  H   H25       1.0  0.62950  0.04268  0.53110  1.0000
  H   H26       1.0  0.12949  0.45732  0.46890  1.0000
  H   H27       1.0  0.37051  0.95732  0.46890  1.0000
  H   H28       1.0  0.87050  0.54268  0.53110  1.0000
  H   H29       1.0  0.58057  0.27562  0.81964  1.0000
  H   H30       1.0  0.08057  0.22438  0.18036  1.0000
  H   H31       1.0  0.41943  0.72438  0.18036  1.0000
  H   H32       1.0  0.91943  0.77562  0.81964  1.0000
  H   H33       1.0  0.91641  0.33256  0.62332  1.0000
  H   H34       1.0  0.41641  0.16744  0.37668  1.0000
  H   H35       1.0  0.08359  0.66745  0.37669  1.0000
  H   H36       1.0  0.58359  0.83256  0.62332  1.0000
  H   H37       1.0  0.83685  0.04744  0.45510  1.0000
  H   H38       1.0  0.33685  0.45257  0.54490  1.0000
  H   H39       1.0  0.16315  0.95256  0.54490  1.0000
  H   H40       1.0  0.66315  0.54744  0.45510  1.0000
  H   H41       1.0  0.94679  0.18600  0.48383  1.0000
  H   H42       1.0  0.44678  0.31400  0.51617  1.0000
  H   H43       1.0  0.05321  0.81400  0.51617  1.0000
  H   H44       1.0  0.55321  0.68600  0.48383  1.0000
  H   H45       1.0  0.63323  0.48141  0.87481  1.0000
  H   H46       1.0  0.13323  0.01859  0.12519  1.0000
  H   H47       1.0  0.36677  0.51859  0.12519  1.0000
  H   H48       1.0  0.86677  0.98141  0.87482  1.0000
  H   H49       1.0  0.78804  0.56289  0.91186  1.0000
  H   H50       1.0  0.28804  0.93711  0.08814  1.0000
  H   H51       1.0  0.21196  0.43711  0.08814  1.0000
  H   H52       1.0  0.71196  0.06289  0.91186  1.0000
  C   C1        1.0  0.66333  0.11716  0.59129  1.0000
  C   C2        1.0  0.16333  0.38284  0.40871  1.0000
  C   C3        1.0  0.33667  0.88284  0.40871  1.0000
  C   C4        1.0  0.83667  0.61716  0.59129  1.0000
  C   C5        1.0  0.59450  0.14780  0.68048  1.0000
  C   C6        1.0  0.09450  0.35220  0.31952  1.0000
  C   C7        1.0  0.40551  0.85220  0.31952  1.0000
  C   C8        1.0  0.90550  0.64780  0.68048  1.0000
  C   C9        1.0  0.63859  0.25122  0.75118  1.0000
  C   C10       1.0  0.13859  0.24878  0.24882  1.0000
  C   C11       1.0  0.36141  0.74878  0.24882  1.0000
  C   C12       1.0  0.86142  0.75122  0.75118  1.0000
  C   C13       1.0  0.75376  0.32137  0.73060  1.0000
  C   C14       1.0  0.25377  0.17863  0.26940  1.0000
  C   C15       1.0  0.24623  0.67863  0.26939  1.0000
  C   C16       1.0  0.74623  0.82137  0.73060  1.0000
  C   C17       1.0  0.82384  0.28374  0.64162  1.0000
  C   C18       1.0  0.32383  0.21626  0.35838  1.0000
  C   C19       1.0  0.17617  0.71626  0.35838  1.0000
  C   C20       1.0  0.67616  0.78374  0.64162  1.0000
  C   C21       1.0  0.47364  0.06432  0.69888  1.0000
  C   C22       1.0  0.97364  0.43567  0.30112  1.0000
  C   C23       1.0  0.52636  0.93567  0.30112  1.0000
  C   C24       1.0  0.02636  0.56433  0.69888  1.0000
  C   C25       1.0  0.84108  0.15444  0.47746  1.0000
  C   C26       1.0  0.34108  0.34556  0.52254  1.0000
  C   C27       1.0  0.15892  0.84556  0.52254  1.0000
  C   C28       1.0  0.65892  0.65444  0.47746  1.0000
  C   C29       1.0  0.76913  0.22337  0.39825  1.0000
  C   C30       1.0  0.26912  0.27663  0.60175  1.0000
  C   C31       1.0  0.23088  0.77663  0.60175  1.0000
  C   C32       1.0  0.73087  0.72337  0.39825  1.0000
  C   C33       1.0  0.74208  0.46740  0.88378  1.0000
  C   C34       1.0  0.24208  0.03260  0.11622  1.0000
  C   C35       1.0  0.25792  0.53260  0.11622  1.0000
  C   C36       1.0  0.75792  0.96740  0.88378  1.0000
  C   C37       1.0  0.76851  0.37314  0.95960  1.0000
  C   C38       1.0  0.26851  0.12687  0.04040  1.0000
  C   C39       1.0  0.23149  0.62686  0.04040  1.0000
  C   C40       1.0  0.73149  0.87314  0.95960  1.0000
  N   N1        1.0  0.77642  0.18435  0.57512  1.0000
  N   N2        1.0  0.27642  0.31565  0.42488  1.0000
  N   N3        1.0  0.22358  0.81565  0.42488  1.0000
  N   N4        1.0  0.72358  0.68435  0.57512  1.0000
  O   O1        1.0  0.09851  0.07680  0.73034  1.0000
  O   O2        1.0  0.59851  0.42320  0.26966  1.0000
  O   O3        1.0  0.90149  0.92320  0.26967  1.0000
  O   O4        1.0  0.40149  0.57680  0.73034  1.0000
  O   O5        1.0  0.85556  0.28338  0.93942  1.0000
  O   O6        1.0  0.35556  0.21662  0.06058  1.0000
  O   O7        1.0  0.14444  0.71662  0.06058  1.0000
  O   O8        1.0  0.64444  0.78338  0.93942  1.0000
  O   O9        1.0  0.09422  0.37640  0.88838  1.0000
  O   O10       1.0  0.59422  0.12360  0.11162  1.0000
  O   O11       1.0  0.90578  0.62360  0.11162  1.0000
  O   O12       1.0  0.40578  0.87640  0.88838  1.0000
  O   O13       1.0  0.69926  0.39520  0.03939  1.0000
  O   O14       1.0  0.19926  0.10480  0.96060  1.0000
  O   O15       1.0  0.30075  0.60480  0.96060  1.0000
  O   O16       1.0  0.80074  0.89520  0.03939  1.0000
  O   O17       1.0  0.41102  0.36120  0.91399  1.0000
  O   O18       1.0  0.91102  0.13880  0.08601  1.0000
  O   O19       1.0  0.58898  0.63880  0.08601  1.0000
  O   O20       1.0  0.08898  0.86120  0.91399  1.0000
  O   O21       1.0  0.68086  0.30890  0.42527  1.0000
  O   O22       1.0  0.18086  0.19110  0.57473  1.0000
  O   O23       1.0  0.31914  0.69110  0.57473  1.0000
  O   O24       1.0  0.81914  0.80890  0.42527  1.0000
  O   O25       1.0  0.81274  0.18565  0.31029  1.0000
  O   O26       1.0  0.31274  0.31435  0.68971  1.0000
  O   O27       1.0  0.18726  0.81435  0.68971  1.0000
  O   O28       1.0  0.68726  0.68565  0.31029  1.0000
  O   O29       1.0  0.43113  0.98431  0.62749  1.0000
  O   O30       1.0  0.93113  0.51569  0.37251  1.0000
  O   O31       1.0  0.56887  0.01569  0.37251  1.0000
  O   O32       1.0  0.06887  0.48431  0.62749  1.0000
  O   O33       1.0  0.42783  0.08104  0.78868  1.0000
  O   O34       1.0  0.92783  0.41896  0.21132  1.0000
  O   O35       1.0  0.57217  0.91896  0.21132  1.0000
  O   O36       1.0  0.07217  0.58104  0.78868  1.0000
  O   O37       1.0  0.80580  0.42635  0.78970  1.0000
  O   O38       1.0  0.30580  0.07365  0.21030  1.0000
  O   O39       1.0  0.19420  0.57365  0.21030  1.0000
  O   O40       1.0  0.69420  0.92635  0.78970  1.0000
