data_image0
_chemical_formula_structural       Zn4H52C48N4O20
_chemical_formula_sum              "Zn4 H52 C48 N4 O20"
_cell_length_a       7.16083
_cell_length_b       7.52098
_cell_length_c       24.1618
_cell_angle_alpha    90
_cell_angle_beta     90
_cell_angle_gamma    91.1406

_space_group_name_H-M_alt    "P 1"
_space_group_IT_number       1

loop_
  _space_group_symop_operation_xyz
  'x, y, z'

loop_
  _atom_site_type_symbol
  _atom_site_label
  _atom_site_symmetry_multiplicity
  _atom_site_fract_x
  _atom_site_fract_y
  _atom_site_fract_z
  _atom_site_occupancy
  Zn  Zn1       1.0  0.13119  0.55314  0.22088  1.0000
  Zn  Zn2       1.0  0.36881  0.94686  0.72088  1.0000
  Zn  Zn3       1.0  0.86881  0.44686  0.77912  1.0000
  Zn  Zn4       1.0  0.63119  0.05314  0.27912  1.0000
  H   H1        1.0  0.02140  0.81673  0.27447  1.0000
  H   H2        1.0  0.47860  0.68328  0.77447  1.0000
  H   H3        1.0  0.97860  0.18328  0.72553  1.0000
  H   H4        1.0  0.52140  0.31672  0.22553  1.0000
  H   H5        1.0  0.24389  0.82162  0.27245  1.0000
  H   H6        1.0  0.25611  0.67839  0.77245  1.0000
  H   H7        1.0  0.75610  0.17839  0.72755  1.0000
  H   H8        1.0  0.74390  0.32161  0.22755  1.0000
  H   H9        1.0  0.13927  0.49010  0.34762  1.0000
  H   H10       1.0  0.36073  0.00990  0.84762  1.0000
  H   H11       1.0  0.86073  0.50990  0.65237  1.0000
  H   H12       1.0  0.63927  0.99009  0.15237  1.0000
  H   H13       1.0  0.10792  0.10334  0.39019  1.0000
  H   H14       1.0  0.39208  0.39666  0.89019  1.0000
  H   H15       1.0  0.89208  0.89666  0.60981  1.0000
  H   H16       1.0  0.60792  0.60334  0.10981  1.0000
  H   H17       1.0  0.28492  0.25389  0.41168  1.0000
  H   H18       1.0  0.21507  0.24612  0.91168  1.0000
  H   H19       1.0  0.71508  0.74612  0.58832  1.0000
  H   H20       1.0  0.78492  0.75388  0.08832  1.0000
  H   H21       1.0  0.02096  0.46296  0.44659  1.0000
  H   H22       1.0  0.47904  0.03705  0.94659  1.0000
  H   H23       1.0  0.97905  0.53705  0.55341  1.0000
  H   H24       1.0  0.52096  0.96295  0.05341  1.0000
  H   H25       1.0  0.90418  0.07425  0.47138  1.0000
  H   H26       1.0  0.59582  0.42575  0.97138  1.0000
  H   H27       1.0  0.09583  0.92576  0.52862  1.0000
  H   H28       1.0  0.40417  0.57425  0.02862  1.0000
  H   H29       1.0  0.83445  0.27725  0.50959  1.0000
  H   H30       1.0  0.66554  0.22274  0.00959  1.0000
  H   H31       1.0  0.16555  0.72275  0.49041  1.0000
  H   H32       1.0  0.33445  0.77725  0.99041  1.0000
  H   H33       1.0  0.15836  0.14665  0.20653  1.0000
  H   H34       1.0  0.34164  0.35334  0.70653  1.0000
  H   H35       1.0  0.84164  0.85334  0.79347  1.0000
  H   H36       1.0  0.65836  0.64666  0.29347  1.0000
  H   H37       1.0  0.11621  0.92122  0.13227  1.0000
  H   H38       1.0  0.38379  0.57878  0.63227  1.0000
  H   H39       1.0  0.88379  0.07878  0.86773  1.0000
  H   H40       1.0  0.61621  0.42122  0.36773  1.0000
  H   H41       1.0  0.03271  0.35530  0.01790  1.0000
  H   H42       1.0  0.46729  0.14470  0.51790  1.0000
  H   H43       1.0  0.96728  0.64469  0.98210  1.0000
  H   H44       1.0  0.53272  0.85531  0.48210  1.0000
  H   H45       1.0  0.08221  0.56186  0.09724  1.0000
  H   H46       1.0  0.41779  0.93813  0.59724  1.0000
  H   H47       1.0  0.91779  0.43813  0.90276  1.0000
  H   H48       1.0  0.58221  0.06187  0.40276  1.0000
  H   H49       1.0  0.04967  0.84743  0.03966  1.0000
  H   H50       1.0  0.45033  0.65256  0.53967  1.0000
  H   H51       1.0  0.95033  0.15256  0.96034  1.0000
  H   H52       1.0  0.54967  0.34744  0.46034  1.0000
  C   C1        1.0  0.30483  0.30343  0.30533  1.0000
  C   C2        1.0  0.19517  0.19657  0.80533  1.0000
  C   C3        1.0  0.69517  0.69657  0.69467  1.0000
  C   C4        1.0  0.80483  0.80343  0.19467  1.0000
  C   C5        1.0  0.13394  0.34455  0.34163  1.0000
  C   C6        1.0  0.36606  0.15545  0.84163  1.0000
  C   C7        1.0  0.86606  0.65545  0.65837  1.0000
  C   C8        1.0  0.63394  0.84455  0.15837  1.0000
  C   C9        1.0  0.95499  0.30622  0.30816  1.0000
  C   C10       1.0  0.54502  0.19378  0.80816  1.0000
  C   C11       1.0  0.04501  0.69378  0.69184  1.0000
  C   C12       1.0  0.45498  0.80622  0.19184  1.0000
  C   C13       1.0  0.13944  0.24519  0.39690  1.0000
  C   C14       1.0  0.36056  0.25481  0.89690  1.0000
  C   C15       1.0  0.86057  0.75481  0.60310  1.0000
  C   C16       1.0  0.63944  0.74518  0.10310  1.0000
  C   C17       1.0  0.01671  0.31819  0.44123  1.0000
  C   C18       1.0  0.48329  0.18181  0.94123  1.0000
  C   C19       1.0  0.98330  0.68181  0.55877  1.0000
  C   C20       1.0  0.51671  0.81818  0.05877  1.0000
  C   C21       1.0  0.91250  0.21869  0.47566  1.0000
  C   C22       1.0  0.58750  0.28131  0.97566  1.0000
  C   C23       1.0  0.08750  0.78132  0.52434  1.0000
  C   C24       1.0  0.41250  0.71868  0.02434  1.0000
  C   C25       1.0  0.12925  0.18763  0.16427  1.0000
  C   C26       1.0  0.37075  0.31236  0.66427  1.0000
  C   C27       1.0  0.87075  0.81236  0.83573  1.0000
  C   C28       1.0  0.62925  0.68764  0.33573  1.0000
  C   C29       1.0  0.10507  0.06208  0.12262  1.0000
  C   C30       1.0  0.39493  0.43792  0.62262  1.0000
  C   C31       1.0  0.89492  0.93792  0.87738  1.0000
  C   C32       1.0  0.60507  0.56208  0.37738  1.0000
  C   C33       1.0  0.06412  0.11762  0.06851  1.0000
  C   C34       1.0  0.43588  0.38238  0.56851  1.0000
  C   C35       1.0  0.93587  0.88237  0.93149  1.0000
  C   C36       1.0  0.56413  0.61763  0.43149  1.0000
  C   C37       1.0  0.05834  0.30215  0.05906  1.0000
  C   C38       1.0  0.44166  0.19785  0.55906  1.0000
  C   C39       1.0  0.94166  0.69784  0.94094  1.0000
  C   C40       1.0  0.55834  0.80216  0.44094  1.0000
  C   C41       1.0  0.08613  0.41840  0.10290  1.0000
  C   C42       1.0  0.41387  0.08160  0.60290  1.0000
  C   C43       1.0  0.91386  0.58160  0.89710  1.0000
  C   C44       1.0  0.58613  0.91840  0.39710  1.0000
  C   C45       1.0  0.02838  0.98404  0.02615  1.0000
  C   C46       1.0  0.47162  0.51596  0.52615  1.0000
  C   C47       1.0  0.97162  0.01596  0.97385  1.0000
  C   C48       1.0  0.52838  0.48405  0.47385  1.0000
  N   N1        1.0  0.11826  0.36320  0.15500  1.0000
  N   N2        1.0  0.38174  0.13680  0.65500  1.0000
  N   N3        1.0  0.88174  0.63680  0.84500  1.0000
  N   N4        1.0  0.61826  0.86320  0.34500  1.0000
  O   O1        1.0  0.33159  0.39419  0.26106  1.0000
  O   O2        1.0  0.16841  0.10581  0.76106  1.0000
  O   O3        1.0  0.66841  0.60581  0.73894  1.0000
  O   O4        1.0  0.83159  0.89419  0.23894  1.0000
  O   O5        1.0  0.41127  0.18224  0.32162  1.0000
  O   O6        1.0  0.08873  0.31776  0.82162  1.0000
  O   O7        1.0  0.58873  0.81776  0.67838  1.0000
  O   O8        1.0  0.91127  0.68224  0.17838  1.0000
  O   O9        1.0  0.92657  0.39976  0.26470  1.0000
  O   O10       1.0  0.57343  0.10024  0.76470  1.0000
  O   O11       1.0  0.07343  0.60024  0.73530  1.0000
  O   O12       1.0  0.42657  0.89976  0.23530  1.0000
  O   O13       1.0  0.84547  0.18428  0.32508  1.0000
  O   O14       1.0  0.65453  0.31571  0.82508  1.0000
  O   O15       1.0  0.15454  0.81571  0.67492  1.0000
  O   O16       1.0  0.34546  0.68429  0.17492  1.0000
  O   O17       1.0  0.13389  0.74845  0.28536  1.0000
  O   O18       1.0  0.36611  0.75156  0.78537  1.0000
  O   O19       1.0  0.86611  0.25156  0.71463  1.0000
  O   O20       1.0  0.63389  0.24844  0.21463  1.0000
