data_image0
_chemical_formula_structural       Sm4Zn4H36C48N16O36
_chemical_formula_sum              "Sm4 Zn4 H36 C48 N16 O36"
_cell_length_a       11.4555
_cell_length_b       12.8016
_cell_length_c       13.35
_cell_angle_alpha    116.077
_cell_angle_beta     90
_cell_angle_gamma    90

_space_group_name_H-M_alt    "P 1"
_space_group_IT_number       1

loop_
  _space_group_symop_operation_xyz
  'x, y, z'

loop_
  _atom_site_type_symbol
  _atom_site_label
  _atom_site_symmetry_multiplicity
  _atom_site_fract_x
  _atom_site_fract_y
  _atom_site_fract_z
  _atom_site_occupancy
  Sm  Sm1       1.0  0.70854  0.38833  0.68125  1.0000
  Sm  Sm2       1.0  0.20854  0.61167  0.81876  1.0000
  Sm  Sm3       1.0  0.29146  0.61166  0.31875  1.0000
  Sm  Sm4       1.0  0.79146  0.38834  0.18125  1.0000
  Zn  Zn1       1.0  0.44778  0.06757  0.84403  1.0000
  Zn  Zn2       1.0  0.94778  0.93243  0.65597  1.0000
  Zn  Zn3       1.0  0.55222  0.93244  0.15597  1.0000
  Zn  Zn4       1.0  0.05222  0.06756  0.34403  1.0000
  H   H1        1.0  0.48997  0.25390  0.02264  1.0000
  H   H2        1.0  0.98997  0.74610  0.47737  1.0000
  H   H3        1.0  0.51002  0.74610  0.97737  1.0000
  H   H4        1.0  0.01002  0.25389  0.52263  1.0000
  H   H5        1.0  0.49393  0.14451  0.04935  1.0000
  H   H6        1.0  0.99392  0.85549  0.45065  1.0000
  H   H7        1.0  0.50608  0.85549  0.95065  1.0000
  H   H8        1.0  0.00607  0.14451  0.54935  1.0000
  H   H9        1.0  0.33920  0.33969  0.36868  1.0000
  H   H10       1.0  0.83921  0.66031  0.13132  1.0000
  H   H11       1.0  0.66079  0.66031  0.63132  1.0000
  H   H12       1.0  0.16079  0.33969  0.86868  1.0000
  H   H13       1.0  0.72933  0.93297  0.90950  1.0000
  H   H14       1.0  0.22933  0.06703  0.59051  1.0000
  H   H15       1.0  0.27067  0.06703  0.09051  1.0000
  H   H16       1.0  0.77067  0.93297  0.40949  1.0000
  H   H17       1.0  0.78250  0.82581  0.78019  1.0000
  H   H18       1.0  0.28250  0.17419  0.71982  1.0000
  H   H19       1.0  0.21750  0.17419  0.21982  1.0000
  H   H20       1.0  0.71750  0.82581  0.28018  1.0000
  H   H21       1.0  0.62815  0.84264  0.80994  1.0000
  H   H22       1.0  0.12816  0.15736  0.69007  1.0000
  H   H23       1.0  0.37184  0.15736  0.19006  1.0000
  H   H24       1.0  0.87184  0.84264  0.30994  1.0000
  H   H25       1.0  0.27801  0.31890  0.55279  1.0000
  H   H26       1.0  0.77801  0.68111  0.94721  1.0000
  H   H27       1.0  0.72199  0.68110  0.44721  1.0000
  H   H28       1.0  0.22199  0.31890  0.05280  1.0000
  H   H29       1.0  0.39545  0.28762  0.62450  1.0000
  H   H30       1.0  0.89546  0.71238  0.87551  1.0000
  H   H31       1.0  0.60454  0.71238  0.37550  1.0000
  H   H32       1.0  0.10454  0.28762  0.12450  1.0000
  H   H33       1.0  0.34682  0.18046  0.49266  1.0000
  H   H34       1.0  0.84683  0.81954  0.00735  1.0000
  H   H35       1.0  0.65318  0.81954  0.50734  1.0000
  H   H36       1.0  0.15317  0.18046  0.99266  1.0000
  C   C1        1.0  0.63886  0.11382  0.73530  1.0000
  C   C2        1.0  0.13886  0.88618  0.76470  1.0000
  C   C3        1.0  0.36114  0.88617  0.26470  1.0000
  C   C4        1.0  0.86114  0.11383  0.23530  1.0000
  C   C5        1.0  0.75229  0.08586  0.69352  1.0000
  C   C6        1.0  0.25228  0.91414  0.80648  1.0000
  C   C7        1.0  0.24772  0.91414  0.30649  1.0000
  C   C8        1.0  0.74772  0.08586  0.19352  1.0000
  C   C9        1.0  0.70423  0.97302  0.77219  1.0000
  C   C10       1.0  0.20423  0.02698  0.72781  1.0000
  C   C11       1.0  0.29577  0.02698  0.22781  1.0000
  C   C12       1.0  0.79576  0.97302  0.27219  1.0000
  C   C13       1.0  0.54965  0.20064  0.74135  1.0000
  C   C14       1.0  0.04965  0.79936  0.75865  1.0000
  C   C15       1.0  0.45034  0.79936  0.25864  1.0000
  C   C16       1.0  0.95034  0.20065  0.24136  1.0000
  C   C17       1.0  0.83256  0.12822  0.63347  1.0000
  C   C18       1.0  0.33255  0.87178  0.86653  1.0000
  C   C19       1.0  0.16745  0.87178  0.36653  1.0000
  C   C20       1.0  0.66745  0.12823  0.13347  1.0000
  C   C21       1.0  0.71147  0.88779  0.81940  1.0000
  C   C22       1.0  0.21148  0.11222  0.68060  1.0000
  C   C23       1.0  0.28852  0.11222  0.18060  1.0000
  C   C24       1.0  0.78852  0.88779  0.31940  1.0000
  C   C25       1.0  0.60755  0.37269  0.43302  1.0000
  C   C26       1.0  0.10756  0.62730  0.06697  1.0000
  C   C27       1.0  0.39244  0.62731  0.56697  1.0000
  C   C28       1.0  0.89244  0.37269  0.93302  1.0000
  C   C29       1.0  0.51845  0.37600  0.36340  1.0000
  C   C30       1.0  0.01846  0.62398  0.13658  1.0000
  C   C31       1.0  0.48154  0.62400  0.63660  1.0000
  C   C32       1.0  0.98154  0.37600  0.86341  1.0000
  C   C33       1.0  0.44846  0.31721  0.48712  1.0000
  C   C34       1.0  0.94847  0.68278  0.01287  1.0000
  C   C35       1.0  0.55154  0.68279  0.51287  1.0000
  C   C36       1.0  0.05154  0.31721  0.98713  1.0000
  C   C37       1.0  0.73195  0.40989  0.44430  1.0000
  C   C38       1.0  0.23195  0.59010  0.05570  1.0000
  C   C39       1.0  0.26805  0.59011  0.55569  1.0000
  C   C40       1.0  0.76806  0.40989  0.94431  1.0000
  C   C41       1.0  0.50536  0.42124  0.27909  1.0000
  C   C42       1.0  0.00535  0.57875  0.22090  1.0000
  C   C43       1.0  0.49465  0.57876  0.72091  1.0000
  C   C44       1.0  0.99465  0.42124  0.77909  1.0000
  C   C45       1.0  0.36210  0.27420  0.54293  1.0000
  C   C46       1.0  0.86210  0.72580  0.95707  1.0000
  C   C47       1.0  0.63790  0.72580  0.45706  1.0000
  C   C48       1.0  0.13790  0.27420  0.04293  1.0000
  N   N1        1.0  0.61063  0.04133  0.78304  1.0000
  N   N2        1.0  0.11064  0.95866  0.71695  1.0000
  N   N3        1.0  0.38936  0.95866  0.21695  1.0000
  N   N4        1.0  0.88936  0.04134  0.28305  1.0000
  N   N5        1.0  0.79123  0.99730  0.71753  1.0000
  N   N6        1.0  0.29123  0.00270  0.78248  1.0000
  N   N7        1.0  0.20878  0.00270  0.28247  1.0000
  N   N8        1.0  0.70877  0.99730  0.21752  1.0000
  N   N9        1.0  0.56255  0.33758  0.50955  1.0000
  N   N10       1.0  0.06256  0.66242  0.99044  1.0000
  N   N11       1.0  0.43744  0.66243  0.49045  1.0000
  N   N12       1.0  0.93744  0.33758  0.00956  1.0000
  N   N13       1.0  0.42029  0.34095  0.40038  1.0000
  N   N14       1.0  0.92030  0.65905  0.09961  1.0000
  N   N15       1.0  0.57970  0.65906  0.59962  1.0000
  N   N16       1.0  0.07970  0.34095  0.90038  1.0000
  O   O1        1.0  0.45525  0.20176  0.79220  1.0000
  O   O2        1.0  0.95526  0.79825  0.70780  1.0000
  O   O3        1.0  0.54474  0.79825  0.20779  1.0000
  O   O4        1.0  0.04474  0.20175  0.29221  1.0000
  O   O5        1.0  0.56859  0.26816  0.69638  1.0000
  O   O6        1.0  0.06859  0.73184  0.80362  1.0000
  O   O7        1.0  0.43141  0.73184  0.30362  1.0000
  O   O8        1.0  0.93141  0.26817  0.19639  1.0000
  O   O9        1.0  0.80439  0.20946  0.60822  1.0000
  O   O10       1.0  0.30440  0.79054  0.89179  1.0000
  O   O11       1.0  0.19560  0.79053  0.39178  1.0000
  O   O12       1.0  0.69561  0.20946  0.10821  1.0000
  O   O13       1.0  0.93292  0.07811  0.60795  1.0000
  O   O14       1.0  0.43292  0.92190  0.89205  1.0000
  O   O15       1.0  0.06709  0.92189  0.39205  1.0000
  O   O16       1.0  0.56709  0.07811  0.10795  1.0000
  O   O17       1.0  0.78393  0.42074  0.53270  1.0000
  O   O18       1.0  0.28392  0.57926  0.96730  1.0000
  O   O19       1.0  0.21607  0.57926  0.46729  1.0000
  O   O20       1.0  0.71608  0.42074  0.03271  1.0000
  O   O21       1.0  0.77940  0.43054  0.36938  1.0000
  O   O22       1.0  0.27940  0.56945  0.13062  1.0000
  O   O23       1.0  0.22060  0.56947  0.63062  1.0000
  O   O24       1.0  0.72061  0.43054  0.86938  1.0000
  O   O25       1.0  0.59280  0.44105  0.23288  1.0000
  O   O26       1.0  0.09281  0.55894  0.26711  1.0000
  O   O27       1.0  0.40720  0.55895  0.76712  1.0000
  O   O28       1.0  0.90719  0.44104  0.73288  1.0000
  O   O29       1.0  0.39922  0.43996  0.26032  1.0000
  O   O30       1.0  0.89923  0.56004  0.23967  1.0000
  O   O31       1.0  0.60078  0.56004  0.73967  1.0000
  O   O32       1.0  0.10078  0.43995  0.76032  1.0000
  O   O33       1.0  0.44792  0.18260  0.00920  1.0000
  O   O34       1.0  0.94792  0.81740  0.49080  1.0000
  O   O35       1.0  0.55207  0.81740  0.99080  1.0000
  O   O36       1.0  0.05207  0.18259  0.50920  1.0000
