data_image0
_chemical_formula_structural       Cu2H16C24S4N4O8
_chemical_formula_sum              "Cu2 H16 C24 S4 N4 O8"
_cell_length_a       9.31573
_cell_length_b       9.95207
_cell_length_c       13.0357
_cell_angle_alpha    67.685
_cell_angle_beta     82.3395
_cell_angle_gamma    69.34

_space_group_name_H-M_alt    "P 1"
_space_group_IT_number       1

loop_
  _space_group_symop_operation_xyz
  'x, y, z'

loop_
  _atom_site_type_symbol
  _atom_site_label
  _atom_site_symmetry_multiplicity
  _atom_site_fract_x
  _atom_site_fract_y
  _atom_site_fract_z
  _atom_site_occupancy
  Cu  Cu1       1.0  0.25022  0.44063  0.11848  1.0000
  Cu  Cu2       1.0  0.74972  0.55932  0.88152  1.0000
  H   H1        1.0  0.03631  0.31434  0.28634  1.0000
  H   H2        1.0  0.46491  0.39880  0.28645  1.0000
  H   H3        1.0  0.96366  0.68565  0.71372  1.0000
  H   H4        1.0  0.53505  0.60123  0.71352  1.0000
  H   H5        1.0  0.83837  0.39521  0.42087  1.0000
  H   H6        1.0  0.66244  0.18333  0.42115  1.0000
  H   H7        1.0  0.16165  0.60483  0.57921  1.0000
  H   H8        1.0  0.33758  0.81674  0.57880  1.0000
  H   H9        1.0  0.95145  0.81441  0.31645  1.0000
  H   H10       1.0  0.54771  0.86927  0.31623  1.0000
  H   H11       1.0  0.04859  0.18565  0.68350  1.0000
  H   H12       1.0  0.45239  0.13073  0.68375  1.0000
  H   H13       1.0  0.14723  0.71197  0.18848  1.0000
  H   H14       1.0  0.35247  0.09974  0.18803  1.0000
  H   H15       1.0  0.85277  0.28800  0.81147  1.0000
  H   H16       1.0  0.64758  0.90022  0.81196  1.0000
  C   C1        1.0  0.01504  0.42272  0.29788  1.0000
  C   C2        1.0  0.48569  0.27906  0.29791  1.0000
  C   C3        1.0  0.98495  0.57728  0.70217  1.0000
  C   C4        1.0  0.51430  0.72097  0.70206  1.0000
  C   C5        1.0  0.90403  0.46945  0.37102  1.0000
  C   C6        1.0  0.59644  0.15912  0.37115  1.0000
  C   C7        1.0  0.09600  0.53057  0.62903  1.0000
  C   C8        1.0  0.40358  0.84094  0.62880  1.0000
  C   C9        1.0  0.88087  0.61173  0.37989  1.0000
  C   C10       1.0  0.61902  0.00815  0.37995  1.0000
  C   C11       1.0  0.11917  0.38830  0.62012  1.0000
  C   C12       1.0  0.38104  0.99190  0.62002  1.0000
  C   C13       1.0  0.96771  0.70214  0.31329  1.0000
  C   C14       1.0  0.53186  0.98453  0.31318  1.0000
  C   C15       1.0  0.03232  0.29788  0.68668  1.0000
  C   C16       1.0  0.46821  0.01547  0.68680  1.0000
  C   C17       1.0  0.07657  0.64588  0.24244  1.0000
  C   C18       1.0  0.42329  0.11171  0.24220  1.0000
  C   C19       1.0  0.92343  0.35413  0.75754  1.0000
  C   C20       1.0  0.57675  0.88827  0.75779  1.0000
  C   C21       1.0  0.00074  0.58488  0.97051  1.0000
  C   C22       1.0  0.49911  0.44474  0.97024  1.0000
  C   C23       1.0  0.99917  0.41504  0.02952  1.0000
  C   C24       1.0  0.50083  0.55522  0.02976  1.0000
  S   S1        1.0  0.74353  0.66109  0.47871  1.0000
  S   S2        1.0  0.75602  0.86006  0.47899  1.0000
  S   S3        1.0  0.25654  0.33898  0.52131  1.0000
  S   S4        1.0  0.24407  0.14002  0.52097  1.0000
  N   N1        1.0  0.10121  0.50816  0.23562  1.0000
  N   N2        1.0  0.39925  0.25608  0.23545  1.0000
  N   N3        1.0  0.89878  0.49182  0.76439  1.0000
  N   N4        1.0  0.60074  0.74392  0.76454  1.0000
  O   O1        1.0  0.10444  0.61869  0.99936  1.0000
  O   O2        1.0  0.39573  0.38189  0.99901  1.0000
  O   O3        1.0  0.89548  0.38122  0.00069  1.0000
  O   O4        1.0  0.60420  0.61806  0.00101  1.0000
  O   O5        1.0  0.89998  0.67812  0.89780  1.0000
  O   O6        1.0  0.59943  0.42467  0.89718  1.0000
  O   O7        1.0  0.09993  0.32180  0.10227  1.0000
  O   O8        1.0  0.40046  0.57531  0.10282  1.0000
