data_image0
_chemical_formula_structural       Mn2Ag4H16C28N12
_chemical_formula_sum              "Mn2 Ag4 H16 C28 N12"
_cell_length_a       10.4692
_cell_length_b       10.4692
_cell_length_c       12.1968
_cell_angle_alpha    90
_cell_angle_beta     90
_cell_angle_gamma    112.331

_space_group_name_H-M_alt    "P 1"
_space_group_IT_number       1

loop_
  _space_group_symop_operation_xyz
  'x, y, z'

loop_
  _atom_site_type_symbol
  _atom_site_label
  _atom_site_symmetry_multiplicity
  _atom_site_fract_x
  _atom_site_fract_y
  _atom_site_fract_z
  _atom_site_occupancy
  Mn  Mn1       1.0  0.50000  0.50000  1.00000  1.0000
  Mn  Mn2       1.0  0.00000  1.00000  0.50000  1.0000
  Ag  Ag1       1.0  0.75422  0.24578  0.75687  1.0000
  Ag  Ag2       1.0  0.74578  0.25422  0.25687  1.0000
  Ag  Ag3       1.0  0.25422  0.74578  0.74313  1.0000
  Ag  Ag4       1.0  0.24578  0.75423  0.24313  1.0000
  H   H1        1.0  0.71137  0.69505  0.83148  1.0000
  H   H2        1.0  0.78863  0.80495  0.33148  1.0000
  H   H3        1.0  0.80495  0.78863  0.66853  1.0000
  H   H4        1.0  0.69505  0.71137  0.16852  1.0000
  H   H5        1.0  0.28863  0.30495  0.16852  1.0000
  H   H6        1.0  0.21137  0.19505  0.66853  1.0000
  H   H7        1.0  0.19505  0.21137  0.33148  1.0000
  H   H8        1.0  0.30495  0.28863  0.83147  1.0000
  H   H9        1.0  0.92335  0.90776  0.82252  1.0000
  H   H10       1.0  0.57665  0.59224  0.32252  1.0000
  H   H11       1.0  0.59224  0.57665  0.67748  1.0000
  H   H12       1.0  0.90776  0.92335  0.17748  1.0000
  H   H13       1.0  0.07665  0.09224  0.17748  1.0000
  H   H14       1.0  0.42335  0.40776  0.67748  1.0000
  H   H15       1.0  0.40776  0.42335  0.32252  1.0000
  H   H16       1.0  0.09224  0.07665  0.82252  1.0000
  C   C1        1.0  0.65058  0.34942  0.83191  1.0000
  C   C2        1.0  0.84942  0.15058  0.33191  1.0000
  C   C3        1.0  0.15058  0.84942  0.66809  1.0000
  C   C4        1.0  0.34942  0.65058  0.16809  1.0000
  C   C5        1.0  0.85727  0.14273  0.68022  1.0000
  C   C6        1.0  0.64273  0.35727  0.18022  1.0000
  C   C7        1.0  0.35726  0.64273  0.81978  1.0000
  C   C8        1.0  0.14273  0.85727  0.31978  1.0000
  C   C9        1.0  0.75877  0.74993  0.90603  1.0000
  C   C10       1.0  0.74124  0.75007  0.40603  1.0000
  C   C11       1.0  0.75007  0.74123  0.59397  1.0000
  C   C12       1.0  0.74993  0.75877  0.09397  1.0000
  C   C13       1.0  0.24123  0.25007  0.09397  1.0000
  C   C14       1.0  0.25876  0.24993  0.59397  1.0000
  C   C15       1.0  0.24993  0.25876  0.40603  1.0000
  C   C16       1.0  0.25007  0.24123  0.90604  1.0000
  C   C17       1.0  0.87784  0.86898  0.90204  1.0000
  C   C18       1.0  0.62216  0.63102  0.40204  1.0000
  C   C19       1.0  0.63102  0.62216  0.59796  1.0000
  C   C20       1.0  0.86898  0.87784  0.09796  1.0000
  C   C21       1.0  0.12216  0.13102  0.09796  1.0000
  C   C22       1.0  0.37784  0.36898  0.59796  1.0000
  C   C23       1.0  0.36898  0.37784  0.40204  1.0000
  C   C24       1.0  0.13102  0.12216  0.90204  1.0000
  C   C25       1.0  0.93652  0.93652  1.00000  1.0000
  C   C26       1.0  0.56348  0.56348  0.50000  1.0000
  C   C27       1.0  0.06348  0.06348  1.00000  1.0000
  C   C28       1.0  0.43652  0.43652  0.50000  1.0000
  N   N1        1.0  0.59111  0.40889  0.87699  1.0000
  N   N2        1.0  0.90889  0.09111  0.37699  1.0000
  N   N3        1.0  0.09111  0.90889  0.62301  1.0000
  N   N4        1.0  0.40889  0.59111  0.12301  1.0000
  N   N5        1.0  0.91571  0.08429  0.63251  1.0000
  N   N6        1.0  0.58429  0.41571  0.13251  1.0000
  N   N7        1.0  0.41571  0.58429  0.86749  1.0000
  N   N8        1.0  0.08429  0.91571  0.36749  1.0000
  N   N9        1.0  0.69472  0.69472  0.00000  1.0000
  N   N10       1.0  0.80528  0.80528  0.50000  1.0000
  N   N11       1.0  0.30528  0.30528  1.00000  1.0000
  N   N12       1.0  0.19472  0.19472  0.50000  1.0000
