data_image0
_chemical_formula_structural       H36Pb2C44S4N4O16
_chemical_formula_sum              "H36 Pb2 C44 S4 N4 O16"
_cell_length_a       7.29741
_cell_length_b       12.5356
_cell_length_c       13.249
_cell_angle_alpha    96.8767
_cell_angle_beta     97.1286
_cell_angle_gamma    95.4667

_space_group_name_H-M_alt    "P 1"
_space_group_IT_number       1

loop_
  _space_group_symop_operation_xyz
  'x, y, z'

loop_
  _atom_site_type_symbol
  _atom_site_label
  _atom_site_symmetry_multiplicity
  _atom_site_fract_x
  _atom_site_fract_y
  _atom_site_fract_z
  _atom_site_occupancy
  H   H1        1.0  0.49760  0.28859  0.71864  1.0000
  H   H2        1.0  0.50242  0.71143  0.28137  1.0000
  H   H3        1.0  0.54791  0.25485  0.60696  1.0000
  H   H4        1.0  0.45211  0.74516  0.39304  1.0000
  H   H5        1.0  0.90948  0.26395  0.61099  1.0000
  H   H6        1.0  0.09052  0.73605  0.38901  1.0000
  H   H7        1.0  0.07450  0.24720  0.69580  1.0000
  H   H8        1.0  0.92551  0.75280  0.30420  1.0000
  H   H9        1.0  0.71267  0.10217  0.37178  1.0000
  H   H10       1.0  0.28735  0.89783  0.62822  1.0000
  H   H11       1.0  0.69253  0.99657  0.19692  1.0000
  H   H12       1.0  0.30746  0.00343  0.80307  1.0000
  H   H13       1.0  0.66688  0.08937  0.04390  1.0000
  H   H14       1.0  0.33311  0.91062  0.95609  1.0000
  H   H15       1.0  0.63247  0.45697  0.98194  1.0000
  H   H16       1.0  0.36755  0.54303  0.01807  1.0000
  H   H17       1.0  0.63566  0.56182  0.15501  1.0000
  H   H18       1.0  0.36435  0.43817  0.84501  1.0000
  H   H19       1.0  0.66055  0.46955  0.30861  1.0000
  H   H20       1.0  0.33948  0.53044  0.69141  1.0000
  H   H21       1.0  0.14993  0.53190  0.31279  1.0000
  H   H22       1.0  0.85009  0.46810  0.68720  1.0000
  H   H23       1.0  0.11755  0.52379  0.12357  1.0000
  H   H24       1.0  0.88246  0.47621  0.87642  1.0000
  H   H25       1.0  0.11988  0.34300  0.01528  1.0000
  H   H26       1.0  0.88012  0.65699  0.98471  1.0000
  H   H27       1.0  0.15459  0.14804  0.00792  1.0000
  H   H28       1.0  0.84541  0.85197  0.99207  1.0000
  H   H29       1.0  0.18900  0.98573  0.09918  1.0000
  H   H30       1.0  0.81096  0.01428  0.90081  1.0000
  H   H31       1.0  0.22179  0.90616  0.25835  1.0000
  H   H32       1.0  0.77818  0.09385  0.74164  1.0000
  H   H33       1.0  0.24937  0.93013  0.45260  1.0000
  H   H34       1.0  0.75059  0.06987  0.54740  1.0000
  H   H35       1.0  0.24261  0.11615  0.54547  1.0000
  H   H36       1.0  0.75734  0.88385  0.45453  1.0000
  Pb  Pb1       1.0  0.23546  0.37510  0.51406  1.0000
  Pb  Pb2       1.0  0.76454  0.62489  0.48596  1.0000
  C   C1        1.0  0.69259  0.25338  0.31405  1.0000
  C   C2        1.0  0.30743  0.74662  0.68596  1.0000
  C   C3        1.0  0.70116  0.14304  0.30366  1.0000
  C   C4        1.0  0.29886  0.85695  0.69633  1.0000
  C   C5        1.0  0.69261  0.08405  0.20554  1.0000
  C   C6        1.0  0.30739  0.91594  0.79446  1.0000
  C   C7        1.0  0.67676  0.13607  0.11942  1.0000
  C   C8        1.0  0.32323  0.86393  0.88059  1.0000
  C   C9        1.0  0.66796  0.24940  0.12671  1.0000
  C   C10       1.0  0.33204  0.75060  0.87329  1.0000
  C   C11       1.0  0.65061  0.30609  0.03886  1.0000
  C   C12       1.0  0.34940  0.69392  0.96114  1.0000
  C   C13       1.0  0.64420  0.41640  0.05017  1.0000
  C   C14       1.0  0.35581  0.58361  0.94984  1.0000
  C   C15       1.0  0.64891  0.47551  0.14800  1.0000
  C   C16       1.0  0.35110  0.52450  0.85201  1.0000
  C   C17       1.0  0.66276  0.42369  0.23398  1.0000
  C   C18       1.0  0.33726  0.57630  0.76602  1.0000
  C   C19       1.0  0.67515  0.31088  0.22676  1.0000
  C   C20       1.0  0.32487  0.68912  0.77325  1.0000
  C   C21       1.0  0.15341  0.45508  0.26510  1.0000
  C   C22       1.0  0.84659  0.54493  0.73489  1.0000
  C   C23       1.0  0.13325  0.44986  0.15762  1.0000
  C   C24       1.0  0.86675  0.55014  0.84238  1.0000
  C   C25       1.0  0.13686  0.35155  0.09895  1.0000
  C   C26       1.0  0.86314  0.64845  0.90105  1.0000
  C   C27       1.0  0.15965  0.25846  0.14778  1.0000
  C   C28       1.0  0.84035  0.74155  0.85221  1.0000
  C   C29       1.0  0.16528  0.15437  0.09128  1.0000
  C   C30       1.0  0.83471  0.84562  0.90871  1.0000
  C   C31       1.0  0.18437  0.06578  0.14068  1.0000
  C   C32       1.0  0.81560  0.93421  0.85931  1.0000
  C   C33       1.0  0.19855  0.07506  0.25017  1.0000
  C   C34       1.0  0.80143  0.92494  0.74983  1.0000
  C   C35       1.0  0.21790  0.98470  0.30333  1.0000
  C   C36       1.0  0.78206  0.01530  0.69667  1.0000
  C   C37       1.0  0.23233  0.99794  0.40932  1.0000
  C   C38       1.0  0.76763  0.00205  0.59068  1.0000
  C   C39       1.0  0.22753  0.10152  0.46180  1.0000
  C   C40       1.0  0.77243  0.89848  0.53820  1.0000
  C   C41       1.0  0.19533  0.17742  0.30916  1.0000
  C   C42       1.0  0.80466  0.82257  0.69083  1.0000
  C   C43       1.0  0.17666  0.27121  0.25687  1.0000
  C   C44       1.0  0.82333  0.72879  0.74313  1.0000
  S   S1        1.0  0.71050  0.32286  0.44045  1.0000
  S   S2        1.0  0.28951  0.67713  0.55956  1.0000
  S   S3        1.0  0.63714  0.23639  0.91054  1.0000
  S   S4        1.0  0.36287  0.76362  0.08947  1.0000
  N   N1        1.0  0.17460  0.36891  0.31320  1.0000
  N   N2        1.0  0.82541  0.63110  0.68680  1.0000
  N   N3        1.0  0.20963  0.18820  0.41349  1.0000
  N   N4        1.0  0.79036  0.81182  0.58651  1.0000
  O   O1        1.0  0.55167  0.38698  0.44523  1.0000
  O   O2        1.0  0.44833  0.61300  0.55477  1.0000
  O   O3        1.0  0.71094  0.23976  0.51100  1.0000
  O   O4        1.0  0.28907  0.76024  0.48900  1.0000
  O   O5        1.0  0.88416  0.39736  0.45934  1.0000
  O   O6        1.0  0.11585  0.60264  0.54067  1.0000
  O   O7        1.0  0.48349  0.14998  0.89921  1.0000
  O   O8        1.0  0.51650  0.85003  0.10079  1.0000
  O   O9        1.0  0.60046  0.31979  0.84224  1.0000
  O   O10       1.0  0.39957  0.68022  0.15776  1.0000
  O   O11       1.0  0.82067  0.19860  0.90464  1.0000
  O   O12       1.0  0.17934  0.80140  0.09536  1.0000
  O   O13       1.0  0.44335  0.26978  0.64462  1.0000
  O   O14       1.0  0.55667  0.73023  0.35539  1.0000
  O   O15       1.0  0.02939  0.29712  0.65015  1.0000
  O   O16       1.0  0.97062  0.70288  0.34985  1.0000
