data_image0
_chemical_formula_structural       Zn4H28C58N8O18
_chemical_formula_sum              "Zn4 H28 C58 N8 O18"
_cell_length_a       10.3455
_cell_length_b       11.8373
_cell_length_c       12.35
_cell_angle_alpha    92.3725
_cell_angle_beta     106.747
_cell_angle_gamma    99.4487

_space_group_name_H-M_alt    "P 1"
_space_group_IT_number       1

loop_
  _space_group_symop_operation_xyz
  'x, y, z'

loop_
  _atom_site_type_symbol
  _atom_site_label
  _atom_site_symmetry_multiplicity
  _atom_site_fract_x
  _atom_site_fract_y
  _atom_site_fract_z
  _atom_site_occupancy
  Zn  Zn1       1.0  0.87769  0.91752  0.59608  1.0000
  Zn  Zn2       1.0  0.12231  0.08248  0.40392  1.0000
  Zn  Zn3       1.0  0.10985  0.53859  0.44551  1.0000
  Zn  Zn4       1.0  0.89015  0.46141  0.55449  1.0000
  H   H1        1.0  0.18536  0.85396  0.20733  1.0000
  H   H2        1.0  0.81464  0.14604  0.79267  1.0000
  H   H3        1.0  0.04469  0.66864  0.23485  1.0000
  H   H4        1.0  0.95531  0.33136  0.76515  1.0000
  H   H5        1.0  0.39353  0.55203  0.55810  1.0000
  H   H6        1.0  0.60647  0.44797  0.44190  1.0000
  H   H7        1.0  0.61350  0.55589  0.71255  1.0000
  H   H8        1.0  0.38650  0.44411  0.28745  1.0000
  H   H9        1.0  0.81153  0.71774  0.73438  1.0000
  H   H10       1.0  0.18847  0.28226  0.26562  1.0000
  H   H11       1.0  0.38618  0.01735  0.23061  1.0000
  H   H12       1.0  0.61382  0.98265  0.76939  1.0000
  H   H13       1.0  0.60435  0.16146  0.28152  1.0000
  H   H14       1.0  0.39565  0.83854  0.71848  1.0000
  H   H15       1.0  0.80904  0.12574  0.43428  1.0000
  H   H16       1.0  0.19096  0.87426  0.56572  1.0000
  H   H17       1.0  0.73124  0.07656  0.01043  1.0000
  H   H18       1.0  0.26877  0.92345  0.98957  1.0000
  H   H19       1.0  0.45490  0.30175  0.04615  1.0000
  H   H20       1.0  0.54510  0.69825  0.95385  1.0000
  H   H21       1.0  0.63549  0.40713  0.21667  1.0000
  H   H22       1.0  0.36451  0.59287  0.78333  1.0000
  H   H23       1.0  0.22680  0.05216  0.81237  1.0000
  H   H24       1.0  0.77320  0.94784  0.18763  1.0000
  H   H25       1.0  0.43998  0.42329  0.70918  1.0000
  H   H26       1.0  0.56002  0.57672  0.29083  1.0000
  H   H27       1.0  0.57926  0.32157  0.86079  1.0000
  H   H28       1.0  0.42074  0.67843  0.13922  1.0000
  C   C1        1.0  0.15156  0.70020  0.28159  1.0000
  C   C2        1.0  0.84844  0.29980  0.71841  1.0000
  C   C3        1.0  0.35281  0.72247  0.40715  1.0000
  C   C4        1.0  0.64719  0.27753  0.59284  1.0000
  C   C5        1.0  0.35416  0.81592  0.34138  1.0000
  C   C6        1.0  0.64584  0.18408  0.65862  1.0000
  C   C7        1.0  0.46952  0.90674  0.35955  1.0000
  C   C8        1.0  0.53048  0.09326  0.64045  1.0000
  C   C9        1.0  0.58886  0.89600  0.44803  1.0000
  C   C10       1.0  0.41114  0.10400  0.55197  1.0000
  C   C11       1.0  0.58923  0.79938  0.51687  1.0000
  C   C12       1.0  0.41077  0.20062  0.48313  1.0000
  C   C13       1.0  0.47152  0.71154  0.49814  1.0000
  C   C14       1.0  0.52848  0.28846  0.50186  1.0000
  C   C15       1.0  0.48080  0.62196  0.57013  1.0000
  C   C16       1.0  0.51921  0.37804  0.42987  1.0000
  C   C17       1.0  0.60208  0.62392  0.65570  1.0000
  C   C18       1.0  0.39792  0.37608  0.34430  1.0000
  C   C19       1.0  0.71397  0.71335  0.66875  1.0000
  C   C20       1.0  0.28603  0.28665  0.33125  1.0000
  C   C21       1.0  0.47530  0.00479  0.29884  1.0000
  C   C22       1.0  0.52469  0.99521  0.70116  1.0000
  C   C23       1.0  0.59594  0.08481  0.32649  1.0000
  C   C24       1.0  0.40406  0.91519  0.67351  1.0000
  C   C25       1.0  0.71076  0.06652  0.41336  1.0000
  C   C26       1.0  0.28924  0.93348  0.58664  1.0000
  C   C27       1.0  0.05909  0.12679  0.63321  1.0000
  C   C28       1.0  0.94091  0.87321  0.36679  1.0000
  C   C29       1.0  0.94431  0.16354  0.19678  1.0000
  C   C30       1.0  0.05569  0.83646  0.80322  1.0000
  C   C31       1.0  0.88130  0.36533  0.31717  1.0000
  C   C32       1.0  0.11870  0.63467  0.68283  1.0000
  C   C33       1.0  0.78344  0.30071  0.21002  1.0000
  C   C34       1.0  0.21655  0.69928  0.78998  1.0000
  C   C35       1.0  0.81137  0.20762  0.15193  1.0000
  C   C36       1.0  0.18863  0.79238  0.84807  1.0000
  C   C37       1.0  0.71083  0.14977  0.05525  1.0000
  C   C38       1.0  0.28917  0.85023  0.94475  1.0000
  C   C39       1.0  0.58378  0.18351  0.01907  1.0000
  C   C40       1.0  0.41622  0.81649  0.98093  1.0000
  C   C41       1.0  0.55491  0.27639  0.07592  1.0000
  C   C42       1.0  0.44509  0.72361  0.92408  1.0000
  C   C43       1.0  0.65586  0.33485  0.17063  1.0000
  C   C44       1.0  0.34414  0.66515  0.82937  1.0000
  C   C45       1.0  0.41012  0.18207  0.84650  1.0000
  C   C46       1.0  0.58988  0.81793  0.15350  1.0000
  C   C47       1.0  0.27323  0.13409  0.79069  1.0000
  C   C48       1.0  0.72677  0.86591  0.20931  1.0000
  C   C49       1.0  0.19698  0.19027  0.70446  1.0000
  C   C50       1.0  0.80302  0.80973  0.29554  1.0000
  C   C51       1.0  0.25621  0.29644  0.67638  1.0000
  C   C52       1.0  0.74379  0.70356  0.32362  1.0000
  C   C53       1.0  0.39391  0.34222  0.73267  1.0000
  C   C54       1.0  0.60609  0.65778  0.26733  1.0000
  C   C55       1.0  0.47179  0.28584  0.81725  1.0000
  C   C56       1.0  0.52821  0.71416  0.18275  1.0000
  C   C57       1.0  0.17047  0.36656  0.59728  1.0000
  C   C58       1.0  0.82953  0.63344  0.40272  1.0000
  N   N1        1.0  0.22449  0.65149  0.36840  1.0000
  N   N2        1.0  0.77551  0.34851  0.63160  1.0000
  N   N3        1.0  0.22602  0.79822  0.26205  1.0000
  N   N4        1.0  0.77397  0.20178  0.73795  1.0000
  N   N5        1.0  0.70644  0.97475  0.47228  1.0000
  N   N6        1.0  0.29356  0.02525  0.52772  1.0000
  N   N7        1.0  0.70680  0.79806  0.60074  1.0000
  N   N8        1.0  0.29320  0.20194  0.39926  1.0000
  O   O1        1.0  0.97713  0.07484  0.68286  1.0000
  O   O2        1.0  0.02288  0.92516  0.31714  1.0000
  O   O3        1.0  0.03378  0.12192  0.52628  1.0000
  O   O4        1.0  0.96622  0.87808  0.47372  1.0000
  O   O5        1.0  0.97643  0.15778  0.30543  1.0000
  O   O6        1.0  0.02357  0.84223  0.69457  1.0000
  O   O7        1.0  0.00795  0.13673  0.13102  1.0000
  O   O8        1.0  0.99205  0.86327  0.86897  1.0000
  O   O9        1.0  0.99730  0.41925  0.31480  1.0000
  O   O10       1.0  0.00270  0.58075  0.68520  1.0000
  O   O11       1.0  0.83224  0.36594  0.40061  1.0000
  O   O12       1.0  0.16776  0.63406  0.59939  1.0000
  O   O13       1.0  0.48364  0.11998  0.92664  1.0000
  O   O14       1.0  0.51635  0.88002  0.07336  1.0000
  O   O15       1.0  0.22289  0.42207  0.52885  1.0000
  O   O16       1.0  0.77711  0.57793  0.47115  1.0000
  O   O17       1.0  0.05368  0.36960  0.60948  1.0000
  O   O18       1.0  0.94632  0.63040  0.39052  1.0000
