data_image0
_chemical_formula_structural       P8H32Pb12C24O40
_chemical_formula_sum              "P8 H32 Pb12 C24 O40"
_cell_length_a       9.1214
_cell_length_b       10.7266
_cell_length_c       14.5584
_cell_angle_alpha    90
_cell_angle_beta     90
_cell_angle_gamma    111.329

_space_group_name_H-M_alt    "P 1"
_space_group_IT_number       1

loop_
  _space_group_symop_operation_xyz
  'x, y, z'

loop_
  _atom_site_type_symbol
  _atom_site_label
  _atom_site_symmetry_multiplicity
  _atom_site_fract_x
  _atom_site_fract_y
  _atom_site_fract_z
  _atom_site_occupancy
  P   P1        1.0  0.41809  0.56212  0.66579  1.0000
  P   P2        1.0  0.41809  0.06213  0.83421  1.0000
  P   P3        1.0  0.58191  0.43787  0.33422  1.0000
  P   P4        1.0  0.58190  0.93788  0.16578  1.0000
  P   P5        1.0  0.75143  0.09318  0.64905  1.0000
  P   P6        1.0  0.75143  0.59318  0.85095  1.0000
  P   P7        1.0  0.24857  0.90682  0.35095  1.0000
  P   P8        1.0  0.24858  0.40682  0.14905  1.0000
  H   H1        1.0  0.28583  0.59368  0.53085  1.0000
  H   H2        1.0  0.28583  0.09369  0.96914  1.0000
  H   H3        1.0  0.71418  0.40632  0.46915  1.0000
  H   H4        1.0  0.71417  0.90632  0.03086  1.0000
  H   H5        1.0  0.27738  0.42869  0.54583  1.0000
  H   H6        1.0  0.27738  0.92869  0.95418  1.0000
  H   H7        1.0  0.72263  0.57131  0.45418  1.0000
  H   H8        1.0  0.72262  0.07131  0.04582  1.0000
  H   H9        1.0  0.08755  0.44586  0.69189  1.0000
  H   H10       1.0  0.08755  0.94586  0.80811  1.0000
  H   H11       1.0  0.91245  0.55414  0.30810  1.0000
  H   H12       1.0  0.91245  0.05414  0.19190  1.0000
  H   H13       1.0  0.01381  0.38488  0.58396  1.0000
  H   H14       1.0  0.01381  0.88489  0.91604  1.0000
  H   H15       1.0  0.98619  0.61511  0.41604  1.0000
  H   H16       1.0  0.98619  0.11512  0.08396  1.0000
  H   H17       1.0  0.91522  0.03350  0.54667  1.0000
  H   H18       1.0  0.91522  0.53350  0.95333  1.0000
  H   H19       1.0  0.08477  0.96650  0.45333  1.0000
  H   H20       1.0  0.08478  0.46649  0.04667  1.0000
  H   H21       1.0  0.95558  0.20566  0.54085  1.0000
  H   H22       1.0  0.95558  0.70566  0.95915  1.0000
  H   H23       1.0  0.04442  0.79434  0.45915  1.0000
  H   H24       1.0  0.04443  0.29434  0.04085  1.0000
  H   H25       1.0  0.12474  0.25060  0.67749  1.0000
  H   H26       1.0  0.12474  0.75060  0.82251  1.0000
  H   H27       1.0  0.87526  0.74940  0.32251  1.0000
  H   H28       1.0  0.87526  0.24940  0.17749  1.0000
  H   H29       1.0  0.03256  0.08356  0.71679  1.0000
  H   H30       1.0  0.03256  0.58356  0.78321  1.0000
  H   H31       1.0  0.96744  0.91643  0.28320  1.0000
  H   H32       1.0  0.96744  0.41643  0.21679  1.0000
  Pb  Pb1       1.0  0.81747  0.75525  0.62207  1.0000
  Pb  Pb2       1.0  0.81747  0.25526  0.87792  1.0000
  Pb  Pb3       1.0  0.18253  0.24475  0.37793  1.0000
  Pb  Pb4       1.0  0.18253  0.74474  0.12207  1.0000
  Pb  Pb5       1.0  0.37854  0.38395  0.89382  1.0000
  Pb  Pb6       1.0  0.37854  0.88395  0.60618  1.0000
  Pb  Pb7       1.0  0.62146  0.61605  0.10619  1.0000
  Pb  Pb8       1.0  0.62146  0.11605  0.39381  1.0000
  Pb  Pb9       1.0  0.58009  0.83603  0.83435  1.0000
  Pb  Pb10      1.0  0.58010  0.33602  0.66566  1.0000
  Pb  Pb11      1.0  0.41991  0.16398  0.16566  1.0000
  Pb  Pb12      1.0  0.41991  0.66398  0.33434  1.0000
  C   C1        1.0  0.26159  0.51302  0.58170  1.0000
  C   C2        1.0  0.26159  0.01302  0.91830  1.0000
  C   C3        1.0  0.73841  0.48698  0.41830  1.0000
  C   C4        1.0  0.73841  0.98699  0.08170  1.0000
  C   C5        1.0  0.09433  0.47397  0.61877  1.0000
  C   C6        1.0  0.09432  0.97397  0.88123  1.0000
  C   C7        1.0  0.90568  0.52603  0.38123  1.0000
  C   C8        1.0  0.90567  0.02603  0.11877  1.0000
  C   C9        1.0  0.02032  0.57866  0.60981  1.0000
  C   C10       1.0  0.02032  0.07867  0.89019  1.0000
  C   C11       1.0  0.97968  0.42134  0.39019  1.0000
  C   C12       1.0  0.97967  0.92134  0.10981  1.0000
  C   C13       1.0  0.93565  0.12283  0.58942  1.0000
  C   C14       1.0  0.93564  0.62283  0.91058  1.0000
  C   C15       1.0  0.06435  0.87717  0.41058  1.0000
  C   C16       1.0  0.06435  0.37716  0.08942  1.0000
  C   C17       1.0  0.07414  0.14592  0.65565  1.0000
  C   C18       1.0  0.07414  0.64592  0.84435  1.0000
  C   C19       1.0  0.92586  0.85408  0.34435  1.0000
  C   C20       1.0  0.92586  0.35408  0.15565  1.0000
  C   C21       1.0  0.20052  0.10558  0.61072  1.0000
  C   C22       1.0  0.20052  0.60558  0.88928  1.0000
  C   C23       1.0  0.79948  0.89443  0.38928  1.0000
  C   C24       1.0  0.79949  0.39443  0.11072  1.0000
  O   O1        1.0  0.41721  0.68705  0.71748  1.0000
  O   O2        1.0  0.41721  0.18704  0.78252  1.0000
  O   O3        1.0  0.58279  0.31296  0.28252  1.0000
  O   O4        1.0  0.58278  0.81295  0.21748  1.0000
  O   O5        1.0  0.57026  0.58630  0.60913  1.0000
  O   O6        1.0  0.57026  0.08630  0.89087  1.0000
  O   O7        1.0  0.42975  0.41371  0.39088  1.0000
  O   O8        1.0  0.42973  0.91370  0.10913  1.0000
  O   O9        1.0  0.39133  0.43907  0.72878  1.0000
  O   O10       1.0  0.39133  0.93907  0.77122  1.0000
  O   O11       1.0  0.60867  0.56093  0.27122  1.0000
  O   O12       1.0  0.60866  0.06093  0.22878  1.0000
  O   O13       1.0  0.70597  0.95223  0.69240  1.0000
  O   O14       1.0  0.70596  0.45223  0.80760  1.0000
  O   O15       1.0  0.29403  0.04777  0.30760  1.0000
  O   O16       1.0  0.29403  0.54778  0.19240  1.0000
  O   O17       1.0  0.62604  0.09793  0.57863  1.0000
  O   O18       1.0  0.62604  0.59794  0.92137  1.0000
  O   O19       1.0  0.37396  0.90207  0.42137  1.0000
  O   O20       1.0  0.37396  0.40206  0.07863  1.0000
  O   O21       1.0  0.77858  0.20909  0.71895  1.0000
  O   O22       1.0  0.77858  0.70909  0.78105  1.0000
  O   O23       1.0  0.22142  0.79091  0.28104  1.0000
  O   O24       1.0  0.22143  0.29092  0.21896  1.0000
  O   O25       1.0  0.10172  0.69941  0.58997  1.0000
  O   O26       1.0  0.10172  0.19941  0.91003  1.0000
  O   O27       1.0  0.89827  0.30059  0.41003  1.0000
  O   O28       1.0  0.89827  0.80059  0.08997  1.0000
  O   O29       1.0  0.87142  0.54017  0.62261  1.0000
  O   O30       1.0  0.87142  0.04017  0.87739  1.0000
  O   O31       1.0  0.12858  0.45983  0.37739  1.0000
  O   O32       1.0  0.12858  0.95983  0.12261  1.0000
  O   O33       1.0  0.18335  0.98239  0.62264  1.0000
  O   O34       1.0  0.18336  0.48239  0.87735  1.0000
  O   O35       1.0  0.81664  0.01761  0.37735  1.0000
  O   O36       1.0  0.81664  0.51761  0.12264  1.0000
  O   O37       1.0  0.30716  0.18873  0.56215  1.0000
  O   O38       1.0  0.30716  0.68873  0.93785  1.0000
  O   O39       1.0  0.69284  0.81127  0.43785  1.0000
  O   O40       1.0  0.69284  0.31127  0.06215  1.0000
