data_image0
_chemical_formula_structural       Fe2H24C16S4N12O4
_chemical_formula_sum              "Fe2 H24 C16 S4 N12 O4"
_cell_length_a       8.10734
_cell_length_b       8.90765
_cell_length_c       10.087
_cell_angle_alpha    89.5698
_cell_angle_beta     90.8888
_cell_angle_gamma    95.4996

_space_group_name_H-M_alt    "P 1"
_space_group_IT_number       1

loop_
  _space_group_symop_operation_xyz
  'x, y, z'

loop_
  _atom_site_type_symbol
  _atom_site_label
  _atom_site_symmetry_multiplicity
  _atom_site_fract_x
  _atom_site_fract_y
  _atom_site_fract_z
  _atom_site_occupancy
  Fe  Fe1       1.0  1.00000  0.50000  0.50000  1.0000
  Fe  Fe2       1.0  0.50000  0.00000  1.00000  1.0000
  H   H1        1.0  0.73806  0.43945  0.20859  1.0000
  H   H2        1.0  0.75906  0.05683  0.71054  1.0000
  H   H3        1.0  0.26194  0.56055  0.79141  1.0000
  H   H4        1.0  0.24094  0.94318  0.28947  1.0000
  H   H5        1.0  0.59248  0.55884  0.13981  1.0000
  H   H6        1.0  0.90864  0.94319  0.64408  1.0000
  H   H7        1.0  0.40752  0.44117  0.86019  1.0000
  H   H8        1.0  0.09137  0.05682  0.35593  1.0000
  H   H9        1.0  0.52975  0.42809  0.27245  1.0000
  H   H10       1.0  0.96798  0.07224  0.77843  1.0000
  H   H11       1.0  0.47025  0.57191  0.72755  1.0000
  H   H12       1.0  0.03202  0.92776  0.22158  1.0000
  H   H13       1.0  0.53588  0.79848  0.46311  1.0000
  H   H14       1.0  0.98001  0.69595  0.96055  1.0000
  H   H15       1.0  0.46412  0.20152  0.53689  1.0000
  H   H16       1.0  0.01999  0.30405  0.03945  1.0000
  H   H17       1.0  0.42500  0.61752  0.42343  1.0000
  H   H18       1.0  0.08301  0.88114  0.92468  1.0000
  H   H19       1.0  0.57499  0.38247  0.57657  1.0000
  H   H20       1.0  0.91699  0.11886  0.07532  1.0000
  H   H21       1.0  0.46384  0.76273  0.29699  1.0000
  H   H22       1.0  0.04618  0.73974  0.79493  1.0000
  H   H23       1.0  0.53616  0.23727  0.70301  1.0000
  H   H24       1.0  0.95382  0.26026  0.20507  1.0000
  C   C1        1.0  0.86369  0.44401  0.79348  1.0000
  C   C2        1.0  0.62952  0.06009  0.28211  1.0000
  C   C3        1.0  0.13632  0.55599  0.20652  1.0000
  C   C4        1.0  0.37048  0.93991  0.71789  1.0000
  C   C5        1.0  0.68131  0.30849  0.92718  1.0000
  C   C6        1.0  0.80835  0.18076  0.43196  1.0000
  C   C7        1.0  0.31870  0.69150  0.07282  1.0000
  C   C8        1.0  0.19165  0.81923  0.56804  1.0000
  C   C9        1.0  0.63189  0.50205  0.23018  1.0000
  C   C10       1.0  0.86758  0.99672  0.73399  1.0000
  C   C11       1.0  0.36811  0.49796  0.76982  1.0000
  C   C12       1.0  0.13242  0.00328  0.26601  1.0000
  C   C13       1.0  0.51091  0.71131  0.38739  1.0000
  C   C14       1.0  0.00018  0.78596  0.88625  1.0000
  C   C15       1.0  0.48909  0.28868  0.61261  1.0000
  C   C16       1.0  0.99982  0.21404  0.11375  1.0000
  S   S1        1.0  0.70574  0.64500  0.34792  1.0000
  S   S2        1.0  0.80081  0.84884  0.85008  1.0000
  S   S3        1.0  0.29426  0.35500  0.65208  1.0000
  S   S4        1.0  0.19919  0.15117  0.14992  1.0000
  N   N1        1.0  0.95087  0.46936  0.70190  1.0000
  N   N2        1.0  0.56064  0.03522  0.17996  1.0000
  N   N3        1.0  0.04913  0.53063  0.29810  1.0000
  N   N4        1.0  0.43936  0.96478  0.82003  1.0000
  N   N5        1.0  0.77629  0.42981  0.90049  1.0000
  N   N6        1.0  0.69335  0.07524  0.40080  1.0000
  N   N7        1.0  0.22371  0.57019  0.09950  1.0000
  N   N8        1.0  0.30665  0.92476  0.59920  1.0000
  N   N9        1.0  0.58942  0.20432  0.95841  1.0000
  N   N10       1.0  0.91434  0.27176  0.46906  1.0000
  N   N11       1.0  0.41058  0.79568  0.04159  1.0000
  N   N12       1.0  0.08566  0.72824  0.53093  1.0000
  O   O1        1.0  0.75240  0.55857  0.47345  1.0000
  O   O2        1.0  0.75728  0.92600  0.97805  1.0000
  O   O3        1.0  0.24760  0.44143  0.52655  1.0000
  O   O4        1.0  0.24272  0.07400  0.02195  1.0000
