data_image0
_chemical_formula_structural       Cu2H6C10I2N6
_chemical_formula_sum              "Cu2 H6 C10 I2 N6"
_cell_length_a       3.99279
_cell_length_b       7.22267
_cell_length_c       12.427
_cell_angle_alpha    97.3013
_cell_angle_beta     90.0001
_cell_angle_gamma    90.0001

_space_group_name_H-M_alt    "P 1"
_space_group_IT_number       1

loop_
  _space_group_symop_operation_xyz
  'x, y, z'

loop_
  _atom_site_type_symbol
  _atom_site_label
  _atom_site_symmetry_multiplicity
  _atom_site_fract_x
  _atom_site_fract_y
  _atom_site_fract_z
  _atom_site_occupancy
  Cu  Cu1       1.0  0.75000  0.98023  0.42847  1.0000
  Cu  Cu2       1.0  0.25000  0.01977  0.57153  1.0000
  H   H1        1.0  0.75001  0.99901  0.18972  1.0000
  H   H2        1.0  0.25000  0.00099  0.81029  1.0000
  H   H3        1.0  0.75001  0.55982  0.37668  1.0000
  H   H4        1.0  0.25001  0.44017  0.62332  1.0000
  H   H5        1.0  0.74999  0.32981  0.20621  1.0000
  H   H6        1.0  0.25000  0.67019  0.79379  1.0000
  C   C1        1.0  0.75000  0.71969  0.10008  1.0000
  C   C2        1.0  0.25001  0.28032  0.89992  1.0000
  C   C3        1.0  0.75000  0.84958  0.19398  1.0000
  C   C4        1.0  0.25001  0.15043  0.80602  1.0000
  C   C5        1.0  0.75000  0.60629  0.29647  1.0000
  C   C6        1.0  0.24999  0.39370  0.70353  1.0000
  C   C7        1.0  0.75000  0.78658  0.99626  1.0000
  C   C8        1.0  0.25000  0.21343  0.00373  1.0000
  C   C9        1.0  0.75000  0.47965  0.20171  1.0000
  C   C10       1.0  0.25000  0.52035  0.79829  1.0000
  I   I1        1.0  0.75000  0.78570  0.59265  1.0000
  I   I2        1.0  0.25001  0.21429  0.40735  1.0000
  N   N1        1.0  0.75000  0.79191  0.29286  1.0000
  N   N2        1.0  0.25001  0.20809  0.70714  1.0000
  N   N3        1.0  0.74999  0.53374  0.10293  1.0000
  N   N4        1.0  0.25000  0.46627  0.89707  1.0000
  N   N5        1.0  0.75000  0.85223  0.91523  1.0000
  N   N6        1.0  0.25000  0.14778  0.08478  1.0000
