data_image0
_chemical_formula_structural       Cu6H12C20Br6N12
_chemical_formula_sum              "Cu6 H12 C20 Br6 N12"
_cell_length_a       6.5866
_cell_length_b       8.19044
_cell_length_c       13.9991
_cell_angle_alpha    97.389
_cell_angle_beta     90
_cell_angle_gamma    89.9987

_space_group_name_H-M_alt    "P 1"
_space_group_IT_number       1

loop_
  _space_group_symop_operation_xyz
  'x, y, z'

loop_
  _atom_site_type_symbol
  _atom_site_label
  _atom_site_symmetry_multiplicity
  _atom_site_fract_x
  _atom_site_fract_y
  _atom_site_fract_z
  _atom_site_occupancy
  Cu  Cu1       1.0  0.75550  1.00000  0.25000  1.0000
  Cu  Cu2       1.0  0.24447  0.00000  0.75000  1.0000
  Cu  Cu3       1.0  0.71624  0.59303  0.37518  1.0000
  Cu  Cu4       1.0  0.28376  0.59305  0.87516  1.0000
  Cu  Cu5       1.0  0.28375  0.40697  0.62482  1.0000
  Cu  Cu6       1.0  0.71626  0.40696  0.12484  1.0000
  H   H1        1.0  0.83752  0.83549  0.72373  1.0000
  H   H2        1.0  0.16247  0.83546  0.22373  1.0000
  H   H3        1.0  0.16248  0.16451  0.27627  1.0000
  H   H4        1.0  0.83754  0.16455  0.77626  1.0000
  H   H5        1.0  0.31504  0.91458  0.53858  1.0000
  H   H6        1.0  0.68495  0.91458  0.03858  1.0000
  H   H7        1.0  0.68494  0.08542  0.46141  1.0000
  H   H8        1.0  0.31505  0.08541  0.96141  1.0000
  H   H9        1.0  0.13388  0.74624  0.40220  1.0000
  H   H10       1.0  0.86613  0.74625  0.90220  1.0000
  H   H11       1.0  0.86611  0.25376  0.59779  1.0000
  H   H12       1.0  0.13388  0.25373  0.09780  1.0000
  C   C1        1.0  0.80662  0.72259  0.57643  1.0000
  C   C2        1.0  0.19338  0.72256  0.07643  1.0000
  C   C3        1.0  0.19338  0.27740  0.42357  1.0000
  C   C4        1.0  0.80664  0.27745  0.92357  1.0000
  C   C5        1.0  0.90748  0.81649  0.65268  1.0000
  C   C6        1.0  0.09251  0.81646  0.15268  1.0000
  C   C7        1.0  0.09253  0.18351  0.34732  1.0000
  C   C8        1.0  0.90750  0.18355  0.84732  1.0000
  C   C9        1.0  0.16815  0.85853  0.54956  1.0000
  C   C10       1.0  0.83184  0.85853  0.04956  1.0000
  C   C11       1.0  0.83184  0.14147  0.45044  1.0000
  C   C12       1.0  0.16817  0.14147  0.95044  1.0000
  C   C13       1.0  0.06715  0.76630  0.47406  1.0000
  C   C14       1.0  0.93285  0.76629  0.97406  1.0000
  C   C15       1.0  0.93283  0.23369  0.52594  1.0000
  C   C16       1.0  0.06717  0.23369  0.02594  1.0000
  C   C17       1.0  0.37747  0.35815  0.40636  1.0000
  C   C18       1.0  0.62256  0.35818  0.90636  1.0000
  C   C19       1.0  0.62253  0.64184  0.59364  1.0000
  C   C20       1.0  0.37748  0.64182  0.09365  1.0000
  Br  Br1       1.0  0.97165  0.49998  0.25001  1.0000
  Br  Br2       1.0  0.02837  0.50005  0.74999  1.0000
  Br  Br3       1.0  0.51718  0.83283  0.33433  1.0000
  Br  Br4       1.0  0.48282  0.83285  0.83433  1.0000
  Br  Br5       1.0  0.48279  0.16718  0.66568  1.0000
  Br  Br6       1.0  0.51717  0.16716  0.16566  1.0000
  N   N1        1.0  0.88479  0.69693  0.48575  1.0000
  N   N2        1.0  0.11521  0.69692  0.98575  1.0000
  N   N3        1.0  0.11520  0.30305  0.51425  1.0000
  N   N4        1.0  0.88481  0.30307  0.01426  1.0000
  N   N5        1.0  0.08945  0.88479  0.63971  1.0000
  N   N6        1.0  0.91053  0.88476  0.13972  1.0000
  N   N7        1.0  0.91054  0.11521  0.36028  1.0000
  N   N8        1.0  0.08947  0.11523  0.86028  1.0000
  N   N9        1.0  0.52296  0.43169  0.39030  1.0000
  N   N10       1.0  0.47702  0.43171  0.89029  1.0000
  N   N11       1.0  0.47704  0.56830  0.60970  1.0000
  N   N12       1.0  0.52297  0.56832  0.10971  1.0000
