data_image0
_chemical_formula_structural       Cu6H12C20N12Cl6
_chemical_formula_sum              "Cu6 H12 C20 N12 Cl6"
_cell_length_a       6.51699
_cell_length_b       7.96833
_cell_length_c       13.6369
_cell_angle_alpha    96.0777
_cell_angle_beta     90.0012
_cell_angle_gamma    90.0001

_space_group_name_H-M_alt    "P 1"
_space_group_IT_number       1

loop_
  _space_group_symop_operation_xyz
  'x, y, z'

loop_
  _atom_site_type_symbol
  _atom_site_label
  _atom_site_symmetry_multiplicity
  _atom_site_fract_x
  _atom_site_fract_y
  _atom_site_fract_z
  _atom_site_occupancy
  Cu  Cu1       1.0  0.75950  0.00001  0.75000  1.0000
  Cu  Cu2       1.0  0.24049  1.00000  0.25000  1.0000
  Cu  Cu3       1.0  0.78263  0.40285  0.63015  1.0000
  Cu  Cu4       1.0  0.21738  0.40284  0.13015  1.0000
  Cu  Cu5       1.0  0.21737  0.59715  0.36985  1.0000
  Cu  Cu6       1.0  0.78262  0.59715  0.86985  1.0000
  H   H1        1.0  0.65476  0.16396  0.27529  1.0000
  H   H2        1.0  0.34522  0.16397  0.77529  1.0000
  H   H3        1.0  0.34523  0.83603  0.72470  1.0000
  H   H4        1.0  0.65477  0.83603  0.22471  1.0000
  H   H5        1.0  0.16996  0.08510  0.46563  1.0000
  H   H6        1.0  0.83004  0.08510  0.96562  1.0000
  H   H7        1.0  0.83005  0.91491  0.53438  1.0000
  H   H8        1.0  0.16997  0.91490  0.03437  1.0000
  H   H9        1.0  0.35429  0.25471  0.60393  1.0000
  H   H10       1.0  0.64572  0.25469  0.10392  1.0000
  H   H11       1.0  0.64572  0.74530  0.39607  1.0000
  H   H12       1.0  0.35429  0.74531  0.89607  1.0000
  C   C1        1.0  0.68742  0.27627  0.42541  1.0000
  C   C2        1.0  0.31258  0.27625  0.92541  1.0000
  C   C3        1.0  0.31258  0.72374  0.57459  1.0000
  C   C4        1.0  0.68741  0.72373  0.07459  1.0000
  C   C5        1.0  0.58456  0.18198  0.34813  1.0000
  C   C6        1.0  0.41542  0.18198  0.84812  1.0000
  C   C7        1.0  0.41544  0.81803  0.65188  1.0000
  C   C8        1.0  0.58459  0.81801  0.15188  1.0000
  C   C9        1.0  0.31975  0.14037  0.45409  1.0000
  C   C10       1.0  0.68025  0.14038  0.95408  1.0000
  C   C11       1.0  0.68025  0.85963  0.54592  1.0000
  C   C12       1.0  0.31975  0.85962  0.04591  1.0000
  C   C13       1.0  0.42278  0.23296  0.53077  1.0000
  C   C14       1.0  0.57722  0.23294  0.03076  1.0000
  C   C15       1.0  0.57722  0.76705  0.46924  1.0000
  C   C16       1.0  0.42278  0.76704  0.96923  1.0000
  C   C17       1.0  0.12633  0.64170  0.59368  1.0000
  C   C18       1.0  0.87367  0.64168  0.09368  1.0000
  C   C19       1.0  0.87368  0.35831  0.40633  1.0000
  C   C20       1.0  0.12632  0.35831  0.90632  1.0000
  N   N1        1.0  0.60854  0.30194  0.51825  1.0000
  N   N2        1.0  0.39146  0.30193  0.01825  1.0000
  N   N3        1.0  0.39146  0.69807  0.48175  1.0000
  N   N4        1.0  0.60854  0.69806  0.98175  1.0000
  N   N5        1.0  0.39959  0.11364  0.36195  1.0000
  N   N6        1.0  0.60040  0.11364  0.86193  1.0000
  N   N7        1.0  0.60041  0.88636  0.63806  1.0000
  N   N8        1.0  0.39960  0.88636  0.13806  1.0000
  N   N9        1.0  0.97894  0.56777  0.61237  1.0000
  N   N10       1.0  0.02106  0.56775  0.11237  1.0000
  N   N11       1.0  0.02106  0.43223  0.38763  1.0000
  N   N12       1.0  0.97894  0.43224  0.88763  1.0000
  Cl  Cl1       1.0  0.53882  0.50000  0.75000  1.0000
  Cl  Cl2       1.0  0.46117  0.50000  0.25000  1.0000
  Cl  Cl3       1.0  0.97879  0.16977  0.66798  1.0000
  Cl  Cl4       1.0  0.02123  0.16977  0.16798  1.0000
  Cl  Cl5       1.0  0.02122  0.83023  0.33202  1.0000
  Cl  Cl6       1.0  0.97877  0.83023  0.83202  1.0000
