data_image0
_chemical_formula_structural       K4H28C28N8O20
_chemical_formula_sum              "K4 H28 C28 N8 O20"
_cell_length_a       7.42295
_cell_length_b       11.1119
_cell_length_c       11.7152
_cell_angle_alpha    109.839
_cell_angle_beta     90.0001
_cell_angle_gamma    89.9997

_space_group_name_H-M_alt    "P 1"
_space_group_IT_number       1

loop_
  _space_group_symop_operation_xyz
  'x, y, z'

loop_
  _atom_site_type_symbol
  _atom_site_label
  _atom_site_symmetry_multiplicity
  _atom_site_fract_x
  _atom_site_fract_y
  _atom_site_fract_z
  _atom_site_occupancy
  K   K1        1.0  0.97023  0.54629  0.20515  1.0000
  K   K2        1.0  0.47023  0.45371  0.29485  1.0000
  K   K3        1.0  0.02977  0.45371  0.79485  1.0000
  K   K4        1.0  0.52977  0.54629  0.70515  1.0000
  H   H1        1.0  0.70506  0.27522  0.11792  1.0000
  H   H2        1.0  0.20506  0.72478  0.38208  1.0000
  H   H3        1.0  0.29494  0.72478  0.88208  1.0000
  H   H4        1.0  0.79494  0.27522  0.61792  1.0000
  H   H5        1.0  0.61977  0.16548  0.98282  1.0000
  H   H6        1.0  0.11977  0.83452  0.51718  1.0000
  H   H7        1.0  0.38023  0.83452  0.01718  1.0000
  H   H8        1.0  0.88023  0.16549  0.48282  1.0000
  H   H9        1.0  0.68655  0.93346  0.93658  1.0000
  H   H10       1.0  0.18655  0.06654  0.56342  1.0000
  H   H11       1.0  0.31345  0.06654  0.06342  1.0000
  H   H12       1.0  0.81345  0.93346  0.43658  1.0000
  H   H13       1.0  0.03258  0.82874  0.18309  1.0000
  H   H14       1.0  0.53258  0.17126  0.31692  1.0000
  H   H15       1.0  0.96742  0.17126  0.81691  1.0000
  H   H16       1.0  0.46742  0.82874  0.68309  1.0000
  H   H17       1.0  0.04943  0.05889  0.31506  1.0000
  H   H18       1.0  0.54943  0.94111  0.18494  1.0000
  H   H19       1.0  0.95057  0.94111  0.68494  1.0000
  H   H20       1.0  0.45057  0.05889  0.81506  1.0000
  H   H21       1.0  0.09215  0.43881  0.40814  1.0000
  H   H22       1.0  0.59215  0.56119  0.09186  1.0000
  H   H23       1.0  0.90785  0.56119  0.59186  1.0000
  H   H24       1.0  0.40785  0.43881  0.90814  1.0000
  H   H25       1.0  0.11208  0.58486  0.48650  1.0000
  H   H26       1.0  0.61208  0.41514  0.01351  1.0000
  H   H27       1.0  0.88792  0.41514  0.51350  1.0000
  H   H28       1.0  0.38792  0.58486  0.98649  1.0000
  C   C1        1.0  0.87474  0.12629  0.20517  1.0000
  C   C2        1.0  0.37474  0.87371  0.29482  1.0000
  C   C3        1.0  0.12526  0.87371  0.79483  1.0000
  C   C4        1.0  0.62526  0.12630  0.70517  1.0000
  C   C5        1.0  0.76994  0.09293  0.09571  1.0000
  C   C6        1.0  0.26994  0.90707  0.40428  1.0000
  C   C7        1.0  0.23005  0.90707  0.90428  1.0000
  C   C8        1.0  0.73006  0.09293  0.59572  1.0000
  C   C9        1.0  0.76319  0.96270  0.02081  1.0000
  C   C10       1.0  0.26319  0.03730  0.47919  1.0000
  C   C11       1.0  0.23682  0.03730  0.97919  1.0000
  C   C12       1.0  0.73682  0.96270  0.52081  1.0000
  C   C13       1.0  0.85581  0.87182  0.05489  1.0000
  C   C14       1.0  0.35581  0.12817  0.44511  1.0000
  C   C15       1.0  0.14419  0.12818  0.94510  1.0000
  C   C16       1.0  0.64419  0.87182  0.55490  1.0000
  C   C17       1.0  0.95897  0.90223  0.16092  1.0000
  C   C18       1.0  0.45897  0.09777  0.33908  1.0000
  C   C19       1.0  0.04104  0.09777  0.83908  1.0000
  C   C20       1.0  0.54104  0.90223  0.66092  1.0000
  C   C21       1.0  0.96673  0.02991  0.23343  1.0000
  C   C22       1.0  0.46673  0.97009  0.26657  1.0000
  C   C23       1.0  0.03327  0.97009  0.76657  1.0000
  C   C24       1.0  0.53327  0.02991  0.73343  1.0000
  C   C25       1.0  0.89080  0.26204  0.29089  1.0000
  C   C26       1.0  0.39080  0.73796  0.20911  1.0000
  C   C27       1.0  0.10920  0.73796  0.70911  1.0000
  C   C28       1.0  0.60920  0.26204  0.79089  1.0000
  N   N1        1.0  0.67751  0.18272  0.06548  1.0000
  N   N2        1.0  0.17751  0.81728  0.43452  1.0000
  N   N3        1.0  0.32249  0.81728  0.93452  1.0000
  N   N4        1.0  0.82249  0.18273  0.56548  1.0000
  N   N5        1.0  0.84925  0.73877  0.97516  1.0000
  N   N6        1.0  0.34926  0.26124  0.52483  1.0000
  N   N7        1.0  0.15075  0.26123  0.02484  1.0000
  N   N8        1.0  0.65075  0.73877  0.47516  1.0000
  O   O1        1.0  0.81076  0.35035  0.26410  1.0000
  O   O2        1.0  0.31076  0.64965  0.23590  1.0000
  O   O3        1.0  0.18924  0.64965  0.73590  1.0000
  O   O4        1.0  0.68924  0.35035  0.76410  1.0000
  O   O5        1.0  0.98409  0.28241  0.38766  1.0000
  O   O6        1.0  0.48410  0.71759  0.11234  1.0000
  O   O7        1.0  0.01591  0.71759  0.61234  1.0000
  O   O8        1.0  0.51590  0.28241  0.88766  1.0000
  O   O9        1.0  0.76788  0.71190  0.87677  1.0000
  O   O10       1.0  0.26788  0.28810  0.62323  1.0000
  O   O11       1.0  0.23211  0.28810  0.12322  1.0000
  O   O12       1.0  0.73211  0.71190  0.37678  1.0000
  O   O13       1.0  0.92920  0.65702  0.00757  1.0000
  O   O14       1.0  0.42921  0.34298  0.49244  1.0000
  O   O15       1.0  0.07080  0.34298  0.99243  1.0000
  O   O16       1.0  0.57080  0.65702  0.50757  1.0000
  O   O17       1.0  0.14894  0.51963  0.40881  1.0000
  O   O18       1.0  0.64894  0.48037  0.09119  1.0000
  O   O19       1.0  0.85106  0.48037  0.59119  1.0000
  O   O20       1.0  0.35106  0.51963  0.90881  1.0000
