data_image0
_chemical_formula_structural       Cu4H24C20I4N8
_chemical_formula_sum              "Cu4 H24 C20 I4 N8"
_cell_length_a       4.05787
_cell_length_b       10.0434
_cell_length_c       17.4824
_cell_angle_alpha    90.0011
_cell_angle_beta     87.4951
_cell_angle_gamma    89.9988

_space_group_name_H-M_alt    "P 1"
_space_group_IT_number       1

loop_
  _space_group_symop_operation_xyz
  'x, y, z'

loop_
  _atom_site_type_symbol
  _atom_site_label
  _atom_site_symmetry_multiplicity
  _atom_site_fract_x
  _atom_site_fract_y
  _atom_site_fract_z
  _atom_site_occupancy
  Cu  Cu1       1.0  0.74868  0.08260  0.50191  1.0000
  Cu  Cu2       1.0  0.24866  0.41741  0.00193  1.0000
  Cu  Cu3       1.0  0.25130  0.91741  0.49807  1.0000
  Cu  Cu4       1.0  0.75131  0.58260  0.99810  1.0000
  H   H1        1.0  0.60058  0.37665  0.50430  1.0000
  H   H2        1.0  0.10054  0.12337  0.00431  1.0000
  H   H3        1.0  0.39937  0.62334  0.49569  1.0000
  H   H4        1.0  0.89944  0.87664  0.99571  1.0000
  H   H5        1.0  0.78876  0.57422  0.58233  1.0000
  H   H6        1.0  0.28875  0.92579  0.08232  1.0000
  H   H7        1.0  0.21122  0.42578  0.41766  1.0000
  H   H8        1.0  0.71128  0.07422  0.91769  1.0000
  H   H9        1.0  0.07781  0.12070  0.64755  1.0000
  H   H10       1.0  0.57783  0.37934  0.14755  1.0000
  H   H11       1.0  0.92220  0.87931  0.35245  1.0000
  H   H12       1.0  0.42211  0.62066  0.85248  1.0000
  H   H13       1.0  0.20151  0.64858  0.67911  1.0000
  H   H14       1.0  0.70161  0.85145  0.17908  1.0000
  H   H15       1.0  0.79843  0.35143  0.32088  1.0000
  H   H16       1.0  0.29851  0.14854  0.82091  1.0000
  H   H17       1.0  0.39242  0.52308  0.73589  1.0000
  H   H18       1.0  0.89245  0.97695  0.23587  1.0000
  H   H19       1.0  0.60758  0.47693  0.26409  1.0000
  H   H20       1.0  0.10759  0.02305  0.76413  1.0000
  H   H21       1.0  0.98252  0.57414  0.75770  1.0000
  H   H22       1.0  0.48258  0.92587  0.25767  1.0000
  H   H23       1.0  0.01746  0.42585  0.24230  1.0000
  H   H24       1.0  0.51748  0.07410  0.74232  1.0000
  C   C1        1.0  0.74809  0.36496  0.55460  1.0000
  C   C2        1.0  0.24806  0.13506  0.05460  1.0000
  C   C3        1.0  0.25189  0.63504  0.44539  1.0000
  C   C4        1.0  0.75196  0.86494  0.94541  1.0000
  C   C5        1.0  0.85148  0.47212  0.59729  1.0000
  C   C6        1.0  0.35149  0.02789  0.09728  1.0000
  C   C7        1.0  0.14846  0.52786  0.40270  1.0000
  C   C8        1.0  0.64856  0.97211  0.90273  1.0000
  C   C9        1.0  0.04161  0.44605  0.66073  1.0000
  C   C10       1.0  0.54157  0.05398  0.16072  1.0000
  C   C11       1.0  0.95844  0.55396  0.33925  1.0000
  C   C12       1.0  0.45841  0.94603  0.83930  1.0000
  C   C13       1.0  0.01064  0.22314  0.63426  1.0000
  C   C14       1.0  0.51069  0.27688  0.13426  1.0000
  C   C15       1.0  0.98932  0.77684  0.36574  1.0000
  C   C16       1.0  0.48937  0.72312  0.86576  1.0000
  C   C17       1.0  0.16361  0.55465  0.71025  1.0000
  C   C18       1.0  0.66364  0.94540  0.21022  1.0000
  C   C19       1.0  0.83637  0.44537  0.28974  1.0000
  C   C20       1.0  0.33639  0.05462  0.78976  1.0000
  I   I1        1.0  0.71481  0.87524  0.59471  1.0000
  I   I2        1.0  0.21485  0.62478  0.09472  1.0000
  I   I3        1.0  0.28515  0.12476  0.40528  1.0000
  I   I4        1.0  0.78513  0.37523  0.90529  1.0000
  N   N1        1.0  0.82719  0.23880  0.57242  1.0000
  N   N2        1.0  0.32715  0.26122  0.07243  1.0000
  N   N3        1.0  0.17284  0.76120  0.42757  1.0000
  N   N4        1.0  0.67278  0.73878  0.92759  1.0000
  N   N5        1.0  0.11963  0.31949  0.67881  1.0000
  N   N6        1.0  0.61963  0.18055  0.17880  1.0000
  N   N7        1.0  0.88039  0.68052  0.32118  1.0000
  N   N8        1.0  0.38038  0.81945  0.82122  1.0000
