data_image0
_chemical_formula_structural       Cu4H24C20N8Cl4
_chemical_formula_sum              "Cu4 H24 C20 N8 Cl4"
_cell_length_a       7.55491
_cell_length_b       8.07449
_cell_length_c       11.0723
_cell_angle_alpha    89.9994
_cell_angle_beta     90.0005
_cell_angle_gamma    109.759

_space_group_name_H-M_alt    "P 1"
_space_group_IT_number       1

loop_
  _space_group_symop_operation_xyz
  'x, y, z'

loop_
  _atom_site_type_symbol
  _atom_site_label
  _atom_site_symmetry_multiplicity
  _atom_site_fract_x
  _atom_site_fract_y
  _atom_site_fract_z
  _atom_site_occupancy
  Cu  Cu1       1.0  0.17618  0.99554  0.03196  1.0000
  Cu  Cu2       1.0  0.67618  0.99554  0.46804  1.0000
  Cu  Cu3       1.0  0.82383  0.00446  0.96804  1.0000
  Cu  Cu4       1.0  0.32382  0.00446  0.53196  1.0000
  H   H1        1.0  0.83775  0.54619  0.53789  1.0000
  H   H2        1.0  0.33776  0.54618  0.96212  1.0000
  H   H3        1.0  0.16224  0.45382  0.46212  1.0000
  H   H4        1.0  0.66224  0.45382  0.03788  1.0000
  H   H5        1.0  0.84577  0.76420  0.56877  1.0000
  H   H6        1.0  0.34577  0.76418  0.93122  1.0000
  H   H7        1.0  0.15422  0.23582  0.43122  1.0000
  H   H8        1.0  0.65422  0.23580  0.06878  1.0000
  H   H9        1.0  0.04547  0.70314  0.60235  1.0000
  H   H10       1.0  0.54548  0.70313  0.89765  1.0000
  H   H11       1.0  0.95452  0.29689  0.39765  1.0000
  H   H12       1.0  0.45452  0.29688  0.10234  1.0000
  H   H13       1.0  0.31443  0.07614  0.27898  1.0000
  H   H14       1.0  0.81442  0.07613  0.22102  1.0000
  H   H15       1.0  0.68559  0.92385  0.72102  1.0000
  H   H16       1.0  0.18559  0.92385  0.77898  1.0000
  H   H17       1.0  0.80678  0.51694  0.32189  1.0000
  H   H18       1.0  0.30678  0.51694  0.17812  1.0000
  H   H19       1.0  0.19322  0.48307  0.67812  1.0000
  H   H20       1.0  0.69322  0.48307  0.82188  1.0000
  H   H21       1.0  0.93058  0.63848  0.11509  1.0000
  H   H22       1.0  0.43056  0.63848  0.38492  1.0000
  H   H23       1.0  0.06943  0.36150  0.88492  1.0000
  H   H24       1.0  0.56944  0.36152  0.61509  1.0000
  C   C1        1.0  0.00167  0.74027  0.41422  1.0000
  C   C2        1.0  0.50168  0.74028  0.08578  1.0000
  C   C3        1.0  0.99831  0.25973  0.58578  1.0000
  C   C4        1.0  0.49832  0.25973  0.91422  1.0000
  C   C5        1.0  0.92977  0.68409  0.53799  1.0000
  C   C6        1.0  0.42978  0.68409  0.96200  1.0000
  C   C7        1.0  0.07022  0.31592  0.46201  1.0000
  C   C8        1.0  0.57022  0.31591  0.03799  1.0000
  C   C9        1.0  0.19945  0.95108  0.28725  1.0000
  C   C10       1.0  0.69945  0.95108  0.21275  1.0000
  C   C11       1.0  0.80054  0.04892  0.71275  1.0000
  C   C12       1.0  0.30055  0.04893  0.78725  1.0000
  C   C13       1.0  0.92102  0.64242  0.31184  1.0000
  C   C14       1.0  0.42101  0.64242  0.18815  1.0000
  C   C15       1.0  0.07899  0.35759  0.68815  1.0000
  C   C16       1.0  0.57899  0.35758  0.81184  1.0000
  C   C17       1.0  0.98682  0.70736  0.19872  1.0000
  C   C18       1.0  0.48681  0.70738  0.30128  1.0000
  C   C19       1.0  0.01318  0.29262  0.80128  1.0000
  C   C20       1.0  0.51318  0.29263  0.69872  1.0000
  N   N1        1.0  0.12337  0.86644  0.18559  1.0000
  N   N2        1.0  0.62338  0.86645  0.31440  1.0000
  N   N3        1.0  0.87662  0.13354  0.81440  1.0000
  N   N4        1.0  0.37664  0.13355  0.68559  1.0000
  N   N5        1.0  0.14896  0.89367  0.40043  1.0000
  N   N6        1.0  0.64896  0.89366  0.09959  1.0000
  N   N7        1.0  0.85104  0.10633  0.59958  1.0000
  N   N8        1.0  0.35106  0.10632  0.90043  1.0000
  Cl  Cl1       1.0  0.07271  0.23721  0.09229  1.0000
  Cl  Cl2       1.0  0.57270  0.23721  0.40771  1.0000
  Cl  Cl3       1.0  0.92731  0.76279  0.90771  1.0000
  Cl  Cl4       1.0  0.42730  0.76279  0.59229  1.0000
