data_image0
_chemical_formula_structural       Ca2H24C24N4O12
_chemical_formula_sum              "Ca2 H24 C24 N4 O12"
_cell_length_a       7.44616
_cell_length_b       10.4419
_cell_length_c       10.4421
_cell_angle_alpha    69.2061
_cell_angle_beta     88.3883
_cell_angle_gamma    88.3919

_space_group_name_H-M_alt    "P 1"
_space_group_IT_number       1

loop_
  _space_group_symop_operation_xyz
  'x, y, z'

loop_
  _atom_site_type_symbol
  _atom_site_label
  _atom_site_symmetry_multiplicity
  _atom_site_fract_x
  _atom_site_fract_y
  _atom_site_fract_z
  _atom_site_occupancy
  Ca  Ca1       1.0  0.24999  0.44853  0.55147  1.0000
  Ca  Ca2       1.0  0.75001  0.55146  0.44854  1.0000
  H   H1        1.0  0.82540  0.05798  0.48039  1.0000
  H   H2        1.0  0.67460  0.51961  0.94200  1.0000
  H   H3        1.0  0.17463  0.94201  0.51962  1.0000
  H   H4        1.0  0.32538  0.48040  0.05799  1.0000
  H   H5        1.0  0.55830  0.72359  0.74833  1.0000
  H   H6        1.0  0.94171  0.25171  0.27639  1.0000
  H   H7        1.0  0.44172  0.27640  0.25167  1.0000
  H   H8        1.0  0.05827  0.74831  0.72361  1.0000
  H   H9        1.0  0.37485  0.87266  0.84815  1.0000
  H   H10       1.0  0.12515  0.15188  0.12733  1.0000
  H   H11       1.0  0.62516  0.12734  0.15184  1.0000
  H   H12       1.0  0.87486  0.84814  0.87267  1.0000
  H   H13       1.0  0.41790  0.12901  0.74885  1.0000
  H   H14       1.0  0.08210  0.25114  0.87098  1.0000
  H   H15       1.0  0.58211  0.87098  0.25115  1.0000
  H   H16       1.0  0.91790  0.74888  0.12902  1.0000
  H   H17       1.0  0.20095  0.19720  0.49260  1.0000
  H   H18       1.0  0.29904  0.50739  0.80280  1.0000
  H   H19       1.0  0.79906  0.80280  0.50740  1.0000
  H   H20       1.0  0.70096  0.49262  0.19720  1.0000
  H   H21       1.0  0.01337  0.24776  0.53503  1.0000
  H   H22       1.0  0.48662  0.46496  0.75224  1.0000
  H   H23       1.0  0.98664  0.75224  0.46497  1.0000
  H   H24       1.0  0.51337  0.53505  0.24776  1.0000
  C   C1        1.0  0.62718  0.11189  0.60876  1.0000
  C   C2        1.0  0.87281  0.39123  0.88811  1.0000
  C   C3        1.0  0.37282  0.88810  0.39125  1.0000
  C   C4        1.0  0.12717  0.60878  0.11188  1.0000
  C   C5        1.0  0.72508  0.01985  0.56270  1.0000
  C   C6        1.0  0.77492  0.43730  0.98015  1.0000
  C   C7        1.0  0.27494  0.98014  0.43731  1.0000
  C   C8        1.0  0.22506  0.56271  0.01984  1.0000
  C   C9        1.0  0.57579  0.83430  0.71254  1.0000
  C   C10       1.0  0.92421  0.28749  0.16569  1.0000
  C   C11       1.0  0.42422  0.16569  0.28747  1.0000
  C   C12       1.0  0.07577  0.71253  0.83431  1.0000
  C   C13       1.0  0.47392  0.91787  0.76687  1.0000
  C   C14       1.0  0.02607  0.23314  0.08213  1.0000
  C   C15       1.0  0.52609  0.08211  0.23313  1.0000
  C   C16       1.0  0.97391  0.76688  0.91786  1.0000
  C   C17       1.0  0.49836  0.05909  0.71311  1.0000
  C   C18       1.0  0.00164  0.28689  0.94091  1.0000
  C   C19       1.0  0.50164  0.94089  0.28690  1.0000
  C   C20       1.0  0.99835  0.71313  0.05908  1.0000
  C   C21       1.0  0.65792  0.26250  0.54279  1.0000
  C   C22       1.0  0.84207  0.45720  0.73749  1.0000
  C   C23       1.0  0.34209  0.73750  0.45721  1.0000
  C   C24       1.0  0.15792  0.54280  0.26252  1.0000
  N   N1        1.0  0.69939  0.88446  0.61172  1.0000
  N   N2        1.0  0.80063  0.38829  0.11553  1.0000
  N   N3        1.0  0.30063  0.11553  0.38829  1.0000
  N   N4        1.0  0.19935  0.61173  0.88446  1.0000
  O   O1        1.0  0.54035  0.34608  0.55986  1.0000
  O   O2        1.0  0.95966  0.44011  0.65392  1.0000
  O   O3        1.0  0.45966  0.65391  0.44016  1.0000
  O   O4        1.0  0.04033  0.55989  0.34608  1.0000
  O   O5        1.0  0.80141  0.30216  0.47218  1.0000
  O   O6        1.0  0.69859  0.52781  0.69786  1.0000
  O   O7        1.0  0.19861  0.69784  0.52781  1.0000
  O   O8        1.0  0.30140  0.47219  0.30214  1.0000
  O   O9        1.0  0.14147  0.23262  0.56148  1.0000
  O   O10       1.0  0.35852  0.43851  0.76738  1.0000
  O   O11       1.0  0.85854  0.76738  0.43852  1.0000
  O   O12       1.0  0.64148  0.56149  0.23263  1.0000
