data_image0
_chemical_formula_structural       Ni2H42C42N4O8
_chemical_formula_sum              "Ni2 H42 C42 N4 O8"
_cell_length_a       7.47218
_cell_length_b       11.3608
_cell_length_c       12.2058
_cell_angle_alpha    96.527
_cell_angle_beta     106.767
_cell_angle_gamma    104.507

_space_group_name_H-M_alt    "P 1"
_space_group_IT_number       1

loop_
  _space_group_symop_operation_xyz
  'x, y, z'

loop_
  _atom_site_type_symbol
  _atom_site_label
  _atom_site_symmetry_multiplicity
  _atom_site_fract_x
  _atom_site_fract_y
  _atom_site_fract_z
  _atom_site_occupancy
  Ni  Ni1       1.0  0.34904  0.93067  0.00980  1.0000
  Ni  Ni2       1.0  0.65096  0.06933  0.99021  1.0000
  H   H1        1.0  0.91199  0.85317  0.01169  1.0000
  H   H2        1.0  0.08801  0.14684  0.98830  1.0000
  H   H3        1.0  0.37416  0.70396  0.14437  1.0000
  H   H4        1.0  0.62584  0.29605  0.85564  1.0000
  H   H5        1.0  0.03483  0.55632  0.17063  1.0000
  H   H6        1.0  0.96516  0.44368  0.82937  1.0000
  H   H7        1.0  0.63945  0.71542  0.05395  1.0000
  H   H8        1.0  0.36054  0.28459  0.94604  1.0000
  H   H9        1.0  0.70904  0.64539  0.17503  1.0000
  H   H10       1.0  0.29095  0.35463  0.82496  1.0000
  H   H11       1.0  0.67607  0.45071  0.04282  1.0000
  H   H12       1.0  0.32392  0.54929  0.95718  1.0000
  H   H13       1.0  0.62767  0.52301  0.92108  1.0000
  H   H14       1.0  0.37232  0.47698  0.07892  1.0000
  H   H15       1.0  0.84757  0.79986  0.80074  1.0000
  H   H16       1.0  0.15244  0.20014  0.19926  1.0000
  H   H17       1.0  0.88297  0.61626  0.68912  1.0000
  H   H18       1.0  0.11704  0.38374  0.31088  1.0000
  H   H19       1.0  0.28563  0.41406  0.63952  1.0000
  H   H20       1.0  0.71437  0.58595  0.36048  1.0000
  H   H21       1.0  0.25321  0.59806  0.75624  1.0000
  H   H22       1.0  0.74680  0.40195  0.24376  1.0000
  H   H23       1.0  0.74421  0.41278  0.56763  1.0000
  H   H24       1.0  0.25578  0.58721  0.43237  1.0000
  H   H25       1.0  0.48629  0.34543  0.51325  1.0000
  H   H26       1.0  0.51371  0.65457  0.48675  1.0000
  H   H27       1.0  0.62610  0.31801  0.64700  1.0000
  H   H28       1.0  0.37390  0.68199  0.35300  1.0000
  H   H29       1.0  0.65878  0.85184  0.33718  1.0000
  H   H30       1.0  0.34121  0.14817  0.66282  1.0000
  H   H31       1.0  0.86547  0.79044  0.50758  1.0000
  H   H32       1.0  0.13453  0.20956  0.49243  1.0000
  H   H33       1.0  0.37236  0.93905  0.40907  1.0000
  H   H34       1.0  0.62763  0.06093  0.59092  1.0000
  H   H35       1.0  0.16871  0.00656  0.24379  1.0000
  H   H36       1.0  0.83128  0.99343  0.75621  1.0000
  H   H37       1.0  0.40074  0.82366  0.56509  1.0000
  H   H38       1.0  0.59925  0.17634  0.43491  1.0000
  H   H39       1.0  0.18642  0.73170  0.58503  1.0000
  H   H40       1.0  0.81358  0.26829  0.41496  1.0000
  H   H41       1.0  0.28768  0.88960  0.65448  1.0000
  H   H42       1.0  0.71232  0.11040  0.34552  1.0000
  C   C1        1.0  0.99300  0.79273  0.05043  1.0000
  C   C2        1.0  0.00700  0.20727  0.94957  1.0000
  C   C3        1.0  0.22723  0.71179  0.12048  1.0000
  C   C4        1.0  0.77276  0.28821  0.87952  1.0000
  C   C5        1.0  0.06148  0.63955  0.13492  1.0000
  C   C6        1.0  0.93852  0.36046  0.86508  1.0000
  C   C7        1.0  0.71201  0.64718  0.08570  1.0000
  C   C8        1.0  0.28798  0.35282  0.91430  1.0000
  C   C9        1.0  0.60839  0.51969  0.00683  1.0000
  C   C10       1.0  0.39161  0.48032  0.99317  1.0000
  C   C11       1.0  0.52896  0.81666  0.86225  1.0000
  C   C12       1.0  0.47105  0.18334  0.13775  1.0000
  C   C13       1.0  0.54784  0.70987  0.78716  1.0000
  C   C14       1.0  0.45217  0.29014  0.21285  1.0000
  C   C15       1.0  0.72447  0.71520  0.76637  1.0000
  C   C16       1.0  0.27554  0.28481  0.23364  1.0000
  C   C17       1.0  0.74371  0.61123  0.70351  1.0000
  C   C18       1.0  0.25629  0.38878  0.29649  1.0000
  C   C19       1.0  0.58842  0.50077  0.65824  1.0000
  C   C20       1.0  0.41158  0.49923  0.34176  1.0000
  C   C21       1.0  0.40984  0.49814  0.67611  1.0000
  C   C22       1.0  0.59017  0.50187  0.32389  1.0000
  C   C23       1.0  0.39035  0.60069  0.74037  1.0000
  C   C24       1.0  0.60966  0.39931  0.25963  1.0000
  C   C25       1.0  0.61223  0.38864  0.59298  1.0000
  C   C26       1.0  0.38777  0.61136  0.40702  1.0000
  C   C27       1.0  0.77402  0.96837  0.17772  1.0000
  C   C28       1.0  0.22598  0.03163  0.82228  1.0000
  C   C29       1.0  0.90010  0.93385  0.28034  1.0000
  C   C30       1.0  0.09989  0.06615  0.71966  1.0000
  C   C31       1.0  0.81586  0.87111  0.35433  1.0000
  C   C32       1.0  0.18413  0.12888  0.64568  1.0000
  C   C33       1.0  0.93163  0.83590  0.44853  1.0000
  C   C34       1.0  0.06837  0.16410  0.55147  1.0000
  C   C35       1.0  0.13378  0.85998  0.47024  1.0000
  C   C36       1.0  0.86622  0.14001  0.52976  1.0000
  C   C37       1.0  0.21598  0.92122  0.39471  1.0000
  C   C38       1.0  0.78401  0.07877  0.60528  1.0000
  C   C39       1.0  0.10223  0.95960  0.30180  1.0000
  C   C40       1.0  0.89777  0.04039  0.69820  1.0000
  C   C41       1.0  0.25859  0.82403  0.57333  1.0000
  C   C42       1.0  0.74141  0.17596  0.42667  1.0000
  N   N1        1.0  0.18164  0.80604  0.06743  1.0000
  N   N2        1.0  0.81836  0.19397  0.93257  1.0000
  N   N3        1.0  0.91518  0.69234  0.09053  1.0000
  N   N4        1.0  0.08482  0.30766  0.90946  1.0000
  O   O1        1.0  0.38165  0.79634  0.89805  1.0000
  O   O2        1.0  0.61836  0.20367  0.10195  1.0000
  O   O3        1.0  0.66451  0.91979  0.88851  1.0000
  O   O4        1.0  0.33550  0.08022  0.11149  1.0000
  O   O5        1.0  0.58887  0.91826  0.14701  1.0000
  O   O6        1.0  0.41113  0.08174  0.85300  1.0000
  O   O7        1.0  0.85737  0.04411  0.12474  1.0000
  O   O8        1.0  0.14264  0.95589  0.87526  1.0000
