data_image0
_chemical_formula_structural       Na4B4H64C32S8N16O8
_chemical_formula_sum              "Na4 B4 H64 C32 S8 N16 O8"
_cell_length_a       6.23329
_cell_length_b       10.1067
_cell_length_c       22.8989
_cell_angle_alpha    90
_cell_angle_beta     90
_cell_angle_gamma    93.2613

_space_group_name_H-M_alt    "P 1"
_space_group_IT_number       1

loop_
  _space_group_symop_operation_xyz
  'x, y, z'

loop_
  _atom_site_type_symbol
  _atom_site_label
  _atom_site_symmetry_multiplicity
  _atom_site_fract_x
  _atom_site_fract_y
  _atom_site_fract_z
  _atom_site_occupancy
  Na  Na1       1.0  0.82518  0.27329  0.21102  1.0000
  Na  Na2       1.0  0.67482  0.72671  0.71103  1.0000
  Na  Na3       1.0  0.17483  0.72671  0.78898  1.0000
  Na  Na4       1.0  0.32518  0.27329  0.28898  1.0000
  B   B1        1.0  0.50807  0.37314  0.11584  1.0000
  B   B2        1.0  0.99191  0.62685  0.61585  1.0000
  B   B3        1.0  0.49194  0.62687  0.88415  1.0000
  B   B4        1.0  0.00807  0.37314  0.38416  1.0000
  H   H1        1.0  0.66222  0.00759  0.93020  1.0000
  H   H2        1.0  0.83779  0.99241  0.43020  1.0000
  H   H3        1.0  0.33778  0.99242  0.06980  1.0000
  H   H4        1.0  0.16221  0.00758  0.56980  1.0000
  H   H5        1.0  0.77405  0.96316  0.99891  1.0000
  H   H6        1.0  0.72595  0.03683  0.49892  1.0000
  H   H7        1.0  0.22595  0.03685  0.00108  1.0000
  H   H8        1.0  0.27404  0.96315  0.50108  1.0000
  H   H9        1.0  0.91919  0.07795  0.95276  1.0000
  H   H10       1.0  0.58081  0.92205  0.45276  1.0000
  H   H11       1.0  0.08082  0.92206  0.04724  1.0000
  H   H12       1.0  0.41918  0.07794  0.54724  1.0000
  H   H13       1.0  0.48445  0.22319  0.91979  1.0000
  H   H14       1.0  0.01556  0.77681  0.41979  1.0000
  H   H15       1.0  0.51556  0.77682  0.08021  1.0000
  H   H16       1.0  0.98443  0.22317  0.58021  1.0000
  H   H17       1.0  0.33805  0.39972  0.00208  1.0000
  H   H18       1.0  0.16194  0.60028  0.50209  1.0000
  H   H19       1.0  0.66196  0.60030  0.99792  1.0000
  H   H20       1.0  0.83804  0.39971  0.49792  1.0000
  H   H21       1.0  0.16952  0.62616  0.08312  1.0000
  H   H22       1.0  0.33046  0.37382  0.58312  1.0000
  H   H23       1.0  0.83048  0.37385  0.91688  1.0000
  H   H24       1.0  0.66953  0.62616  0.41688  1.0000
  H   H25       1.0  0.85356  0.86817  0.14948  1.0000
  H   H26       1.0  0.64643  0.13182  0.64948  1.0000
  H   H27       1.0  0.14644  0.13184  0.85053  1.0000
  H   H28       1.0  0.35356  0.86817  0.35052  1.0000
  H   H29       1.0  0.12528  0.81738  0.14534  1.0000
  H   H30       1.0  0.37470  0.18261  0.64534  1.0000
  H   H31       1.0  0.87472  0.18263  0.85466  1.0000
  H   H32       1.0  0.62528  0.81738  0.35466  1.0000
  H   H33       1.0  0.96946  0.78018  0.20921  1.0000
  H   H34       1.0  0.53053  0.21981  0.70922  1.0000
  H   H35       1.0  0.03054  0.21982  0.79079  1.0000
  H   H36       1.0  0.46946  0.78018  0.29079  1.0000
  H   H37       1.0  0.92785  0.39398  0.05943  1.0000
  H   H38       1.0  0.57214  0.60601  0.55943  1.0000
  H   H39       1.0  0.07216  0.60604  0.94056  1.0000
  H   H40       1.0  0.42786  0.39398  0.44057  1.0000
  H   H41       1.0  0.50978  0.30257  0.15918  1.0000
  H   H42       1.0  0.99021  0.69742  0.65919  1.0000
  H   H43       1.0  0.49025  0.69744  0.84081  1.0000
  H   H44       1.0  0.00978  0.30257  0.34082  1.0000
  H   H45       1.0  0.34072  0.42750  0.11292  1.0000
  H   H46       1.0  0.15927  0.57249  0.61292  1.0000
  H   H47       1.0  0.65929  0.57251  0.88708  1.0000
  H   H48       1.0  0.84072  0.42750  0.38708  1.0000
  H   H49       1.0  0.08004  0.49606  0.24983  1.0000
  H   H50       1.0  0.41996  0.50393  0.74983  1.0000
  H   H51       1.0  0.91996  0.50393  0.75017  1.0000
  H   H52       1.0  0.58004  0.49606  0.25017  1.0000
  H   H53       1.0  0.22647  0.46110  0.19761  1.0000
  H   H54       1.0  0.27353  0.53891  0.69761  1.0000
  H   H55       1.0  0.77353  0.53891  0.80239  1.0000
  H   H56       1.0  0.72647  0.46109  0.30239  1.0000
  H   H57       1.0  0.66811  0.11701  0.32097  1.0000
  H   H58       1.0  0.83189  0.88300  0.82097  1.0000
  H   H59       1.0  0.33191  0.88299  0.67903  1.0000
  H   H60       1.0  0.16811  0.11701  0.17903  1.0000
  H   H61       1.0  0.59472  0.02705  0.26869  1.0000
  H   H62       1.0  0.90529  0.97295  0.76869  1.0000
  H   H63       1.0  0.40529  0.97295  0.73132  1.0000
  H   H64       1.0  0.09472  0.02705  0.23131  1.0000
  C   C1        1.0  0.69974  0.59755  0.14746  1.0000
  C   C2        1.0  0.80024  0.40244  0.64746  1.0000
  C   C3        1.0  0.30026  0.40246  0.85254  1.0000
  C   C4        1.0  0.19974  0.59755  0.35254  1.0000
  C   C5        1.0  0.65992  0.18384  0.05353  1.0000
  C   C6        1.0  0.84008  0.81616  0.55353  1.0000
  C   C7        1.0  0.34009  0.81617  0.94646  1.0000
  C   C8        1.0  0.15992  0.18383  0.44647  1.0000
  C   C9        1.0  0.75814  0.04394  0.96765  1.0000
  C   C10       1.0  0.74186  0.95606  0.46765  1.0000
  C   C11       1.0  0.24186  0.95607  0.03235  1.0000
  C   C12       1.0  0.25813  0.04393  0.53235  1.0000
  C   C13       1.0  0.51506  0.23317  0.96625  1.0000
  C   C14       1.0  0.98494  0.76682  0.46626  1.0000
  C   C15       1.0  0.48495  0.76683  0.03374  1.0000
  C   C16       1.0  0.01505  0.23317  0.53375  1.0000
  C   C17       1.0  0.44423  0.31926  0.00683  1.0000
  C   C18       1.0  0.05577  0.68074  0.50683  1.0000
  C   C19       1.0  0.55579  0.68075  0.99317  1.0000
  C   C20       1.0  0.94422  0.31925  0.49317  1.0000
  C   C21       1.0  0.00969  0.59261  0.09710  1.0000
  C   C22       1.0  0.49030  0.40738  0.59710  1.0000
  C   C23       1.0  0.99032  0.40740  0.90290  1.0000
  C   C24       1.0  0.50969  0.59261  0.40290  1.0000
  C   C25       1.0  0.96299  0.79111  0.16146  1.0000
  C   C26       1.0  0.53700  0.20888  0.66146  1.0000
  C   C27       1.0  0.03701  0.20890  0.83855  1.0000
  C   C28       1.0  0.46299  0.79111  0.33854  1.0000
  C   C29       1.0  0.88972  0.47832  0.08585  1.0000
  C   C30       1.0  0.61027  0.52167  0.58585  1.0000
  C   C31       1.0  0.11029  0.52170  0.91415  1.0000
  C   C32       1.0  0.38972  0.47832  0.41415  1.0000
  S   S1        1.0  0.80079  0.10649  0.10563  1.0000
  S   S2        1.0  0.69920  0.89351  0.60564  1.0000
  S   S3        1.0  0.19922  0.89352  0.89436  1.0000
  S   S4        1.0  0.30080  0.10649  0.39437  1.0000
  S   S5        1.0  0.50244  0.65286  0.19097  1.0000
  S   S6        1.0  0.99754  0.34713  0.69097  1.0000
  S   S7        1.0  0.49755  0.34714  0.80903  1.0000
  S   S8        1.0  0.00245  0.65286  0.30903  1.0000
  N   N1        1.0  0.64794  0.14977  0.99539  1.0000
  N   N2        1.0  0.85206  0.85022  0.49539  1.0000
  N   N3        1.0  0.35207  0.85024  0.00460  1.0000
  N   N4        1.0  0.14793  0.14976  0.50460  1.0000
  N   N5        1.0  0.89181  0.66546  0.13538  1.0000
  N   N6        1.0  0.60818  0.33453  0.63538  1.0000
  N   N7        1.0  0.10820  0.33455  0.86462  1.0000
  N   N8        1.0  0.39181  0.66546  0.36462  1.0000
  N   N9        1.0  0.53285  0.28900  0.06036  1.0000
  N   N10       1.0  0.96714  0.71100  0.56037  1.0000
  N   N11       1.0  0.46717  0.71101  0.93963  1.0000
  N   N12       1.0  0.03285  0.28900  0.43964  1.0000
  N   N13       1.0  0.69870  0.48135  0.11695  1.0000
  N   N14       1.0  0.80128  0.51864  0.61695  1.0000
  N   N15       1.0  0.30130  0.51866  0.88305  1.0000
  N   N16       1.0  0.19870  0.48135  0.38305  1.0000
  O   O1        1.0  0.64512  0.11705  0.27875  1.0000
  O   O2        1.0  0.85489  0.88296  0.77874  1.0000
  O   O3        1.0  0.35489  0.88295  0.72126  1.0000
  O   O4        1.0  0.14512  0.11705  0.22125  1.0000
  O   O5        1.0  0.12592  0.41935  0.22626  1.0000
  O   O6        1.0  0.37408  0.58065  0.72626  1.0000
  O   O7        1.0  0.87409  0.58065  0.77374  1.0000
  O   O8        1.0  0.62592  0.41935  0.27374  1.0000
