data_image0
_chemical_formula_structural       Ge2H52C60N8O12
_chemical_formula_sum              "Ge2 H52 C60 N8 O12"
_cell_length_a       8.69865
_cell_length_b       11.9074
_cell_length_c       15.359
_cell_angle_alpha    92.9414
_cell_angle_beta     91.7314
_cell_angle_gamma    102.496

_space_group_name_H-M_alt    "P 1"
_space_group_IT_number       1

loop_
  _space_group_symop_operation_xyz
  'x, y, z'

loop_
  _atom_site_type_symbol
  _atom_site_label
  _atom_site_symmetry_multiplicity
  _atom_site_fract_x
  _atom_site_fract_y
  _atom_site_fract_z
  _atom_site_occupancy
  Ge  Ge1       1.0  0.27138  0.79258  0.22922  1.0000
  Ge  Ge2       1.0  0.72862  0.20742  0.77078  1.0000
  H   H1        1.0  0.40205  0.72162  0.92782  1.0000
  H   H2        1.0  0.59793  0.27838  0.07218  1.0000
  H   H3        1.0  0.18153  0.15973  0.35940  1.0000
  H   H4        1.0  0.81849  0.84027  0.64060  1.0000
  H   H5        1.0  0.90390  0.54688  0.05079  1.0000
  H   H6        1.0  0.09610  0.45312  0.94920  1.0000
  H   H7        1.0  0.87650  0.34001  0.07191  1.0000
  H   H8        1.0  0.12350  0.65999  0.92809  1.0000
  H   H9        1.0  0.00936  0.27575  0.20119  1.0000
  H   H10       1.0  0.99064  0.72425  0.79881  1.0000
  H   H11       1.0  0.16949  0.41887  0.30743  1.0000
  H   H12       1.0  0.83050  0.58113  0.69257  1.0000
  H   H13       1.0  0.05218  0.52952  0.41213  1.0000
  H   H14       1.0  0.94781  0.47048  0.58787  1.0000
  H   H15       1.0  0.16658  0.60608  0.50397  1.0000
  H   H16       1.0  0.83342  0.39392  0.49603  1.0000
  H   H17       1.0  0.23358  0.49600  0.44438  1.0000
  H   H18       1.0  0.76642  0.50400  0.55562  1.0000
  H   H19       1.0  0.39315  0.74218  0.49129  1.0000
  H   H20       1.0  0.60685  0.25781  0.50871  1.0000
  H   H21       1.0  0.63271  0.00049  0.42479  1.0000
  H   H22       1.0  0.36728  0.99951  0.57521  1.0000
  H   H23       1.0  0.71542  0.87888  0.43748  1.0000
  H   H24       1.0  0.28457  0.12113  0.56252  1.0000
  H   H25       1.0  0.57307  0.90533  0.51019  1.0000
  H   H26       1.0  0.42693  0.09467  0.48981  1.0000
  H   H27       1.0  0.78670  0.93780  0.31719  1.0000
  H   H28       1.0  0.21330  0.06220  0.68281  1.0000
  H   H29       1.0  0.94571  0.06725  0.21906  1.0000
  H   H30       1.0  0.05428  0.93276  0.78094  1.0000
  H   H31       1.0  0.81656  0.13187  0.08730  1.0000
  H   H32       1.0  0.18343  0.86812  0.91271  1.0000
  H   H33       1.0  0.53285  0.06783  0.05830  1.0000
  H   H34       1.0  0.46715  0.93217  0.94170  1.0000
  H   H35       1.0  0.33886  0.14758  0.13540  1.0000
  H   H36       1.0  0.66114  0.85242  0.86460  1.0000
  H   H37       1.0  0.14510  0.12039  0.08547  1.0000
  H   H38       1.0  0.85490  0.87961  0.91452  1.0000
  H   H39       1.0  0.30414  0.09241  0.02525  1.0000
  H   H40       1.0  0.69586  0.90759  0.97475  1.0000
  H   H41       1.0  0.98267  0.94882  0.07408  1.0000
  H   H42       1.0  0.01733  0.05118  0.92591  1.0000
  H   H43       1.0  0.77235  0.67242  0.13393  1.0000
  H   H44       1.0  0.22766  0.32758  0.86606  1.0000
  H   H45       1.0  0.81199  0.70596  0.02468  1.0000
  H   H46       1.0  0.18801  0.29404  0.97532  1.0000
  H   H47       1.0  0.76390  0.81123  0.09855  1.0000
  H   H48       1.0  0.23610  0.18877  0.90145  1.0000
  H   H49       1.0  0.44815  0.51548  0.15813  1.0000
  H   H50       1.0  0.55185  0.48452  0.84187  1.0000
  H   H51       1.0  0.02717  0.80455  0.44702  1.0000
  H   H52       1.0  0.97284  0.19544  0.55298  1.0000
  C   C1        1.0  0.04333  0.60271  0.17031  1.0000
  C   C2        1.0  0.95667  0.39729  0.82968  1.0000
  C   C3        1.0  0.95743  0.52013  0.10888  1.0000
  C   C4        1.0  0.04257  0.47987  0.89112  1.0000
  C   C5        1.0  0.94409  0.40295  0.12041  1.0000
  C   C6        1.0  0.05592  0.59705  0.87959  1.0000
  C   C7        1.0  0.01840  0.36714  0.19249  1.0000
  C   C8        1.0  0.98160  0.63286  0.80751  1.0000
  C   C9        1.0  0.10693  0.44800  0.25363  1.0000
  C   C10       1.0  0.89307  0.55200  0.74637  1.0000
  C   C11       1.0  0.11884  0.56590  0.24418  1.0000
  C   C12       1.0  0.88116  0.43410  0.75582  1.0000
  C   C13       1.0  0.25682  0.65765  0.38112  1.0000
  C   C14       1.0  0.74318  0.34235  0.61888  1.0000
  C   C15       1.0  0.17209  0.56700  0.43818  1.0000
  C   C16       1.0  0.82791  0.43299  0.56182  1.0000
  C   C17       1.0  0.37485  0.74640  0.42121  1.0000
  C   C18       1.0  0.62515  0.25360  0.57879  1.0000
  C   C19       1.0  0.47779  0.83708  0.38357  1.0000
  C   C20       1.0  0.52221  0.16292  0.61643  1.0000
  C   C21       1.0  0.60591  0.91024  0.44197  1.0000
  C   C22       1.0  0.39409  0.08977  0.55803  1.0000
  C   C23       1.0  0.56402  0.93717  0.25015  1.0000
  C   C24       1.0  0.43598  0.06283  0.74985  1.0000
  C   C25       1.0  0.72805  0.97036  0.26365  1.0000
  C   C26       1.0  0.27195  0.02964  0.73635  1.0000
  C   C27       1.0  0.81847  0.04258  0.20691  1.0000
  C   C28       1.0  0.18153  0.95742  0.79309  1.0000
  C   C29       1.0  0.74712  0.07830  0.13379  1.0000
  C   C30       1.0  0.25288  0.92170  0.86621  1.0000
  C   C31       1.0  0.58476  0.04286  0.11743  1.0000
  C   C32       1.0  0.41524  0.95714  0.88258  1.0000
  C   C33       1.0  0.49062  0.97443  0.17551  1.0000
  C   C34       1.0  0.50938  0.02556  0.82449  1.0000
  C   C35       1.0  0.21889  0.96831  0.11966  1.0000
  C   C36       1.0  0.78111  0.03169  0.88034  1.0000
  C   C37       1.0  0.25450  0.08910  0.09033  1.0000
  C   C38       1.0  0.74550  0.91090  0.90967  1.0000
  C   C39       1.0  0.06429  0.90270  0.10330  1.0000
  C   C40       1.0  0.93571  0.09730  0.89670  1.0000
  C   C41       1.0  0.99790  0.78762  0.11944  1.0000
  C   C42       1.0  0.00210  0.21238  0.88055  1.0000
  C   C43       1.0  0.82742  0.74120  0.09281  1.0000
  C   C44       1.0  0.17259  0.25880  0.90719  1.0000
  C   C45       1.0  0.39144  0.69490  0.07236  1.0000
  C   C46       1.0  0.60856  0.30510  0.92764  1.0000
  C   C47       1.0  0.44599  0.59408  0.03505  1.0000
  C   C48       1.0  0.55400  0.40592  0.96495  1.0000
  C   C49       1.0  0.47095  0.50795  0.08901  1.0000
  C   C50       1.0  0.52905  0.49205  0.91098  1.0000
  C   C51       1.0  0.47446  0.58640  0.94451  1.0000
  C   C52       1.0  0.52553  0.41360  0.05549  1.0000
  C   C53       1.0  0.15763  0.96979  0.34076  1.0000
  C   C54       1.0  0.84237  0.03021  0.65925  1.0000
  C   C55       1.0  0.07456  0.98473  0.42220  1.0000
  C   C56       1.0  0.92545  0.01527  0.57781  1.0000
  C   C57       1.0  0.01513  0.88981  0.47089  1.0000
  C   C58       1.0  0.98487  0.11018  0.52911  1.0000
  C   C59       1.0  0.06050  0.09716  0.45159  1.0000
  C   C60       1.0  0.93951  0.90284  0.54842  1.0000
  N   N1        1.0  0.08030  0.72198  0.16119  1.0000
  N   N2        1.0  0.91971  0.27802  0.83881  1.0000
  N   N3        1.0  0.46248  0.85920  0.29923  1.0000
  N   N4        1.0  0.53752  0.14080  0.70077  1.0000
  N   N5        1.0  0.21606  0.65520  0.29610  1.0000
  N   N6        1.0  0.78394  0.34480  0.70390  1.0000
  N   N7        1.0  0.32932  0.92736  0.16243  1.0000
  N   N8        1.0  0.67068  0.07264  0.83757  1.0000
  O   O1        1.0  0.39549  0.70553  0.15739  1.0000
  O   O2        1.0  0.60451  0.29447  0.84261  1.0000
  O   O3        1.0  0.34665  0.76353  0.02250  1.0000
  O   O4        1.0  0.65335  0.23647  0.97750  1.0000
  O   O5        1.0  0.45089  0.66789  0.89023  1.0000
  O   O6        1.0  0.54909  0.33210  0.10977  1.0000
  O   O7        1.0  0.12197  0.19133  0.40758  1.0000
  O   O8        1.0  0.87804  0.80866  0.59242  1.0000
  O   O9        1.0  0.14234  0.86365  0.31048  1.0000
  O   O10       1.0  0.85766  0.13635  0.68952  1.0000
  O   O11       1.0  0.23461  0.05746  0.30651  1.0000
  O   O12       1.0  0.76540  0.94254  0.69349  1.0000
