data_image0
_chemical_formula_structural       Ge2H52C60N8O8
_chemical_formula_sum              "Ge2 H52 C60 N8 O8"
_cell_length_a       8.57611
_cell_length_b       12.1726
_cell_length_c       15.3
_cell_angle_alpha    86.6019
_cell_angle_beta     89.1986
_cell_angle_gamma    75.5638

_space_group_name_H-M_alt    "P 1"
_space_group_IT_number       1

loop_
  _space_group_symop_operation_xyz
  'x, y, z'

loop_
  _atom_site_type_symbol
  _atom_site_label
  _atom_site_symmetry_multiplicity
  _atom_site_fract_x
  _atom_site_fract_y
  _atom_site_fract_z
  _atom_site_occupancy
  Ge  Ge1       1.0  0.77978  0.20083  0.22573  1.0000
  Ge  Ge2       1.0  0.22022  0.79917  0.77427  1.0000
  H   H1        1.0  0.65257  0.56692  0.30873  1.0000
  H   H2        1.0  0.34743  0.43308  0.69127  1.0000
  H   H3        1.0  0.47535  0.71021  0.20876  1.0000
  H   H4        1.0  0.52465  0.28979  0.79124  1.0000
  H   H5        1.0  0.34426  0.64877  0.08168  1.0000
  H   H6        1.0  0.65574  0.35123  0.91832  1.0000
  H   H7        1.0  0.39465  0.44551  0.05474  1.0000
  H   H8        1.0  0.60535  0.55449  0.94526  1.0000
  H   H9        1.0  0.26918  0.31677  0.13393  1.0000
  H   H10       1.0  0.73082  0.68323  0.86607  1.0000
  H   H11       1.0  0.27404  0.18205  0.09299  1.0000
  H   H12       1.0  0.72596  0.81795  0.90701  1.0000
  H   H13       1.0  0.32405  0.29025  0.02372  1.0000
  H   H14       1.0  0.67595  0.70976  0.97628  1.0000
  H   H15       1.0  0.50118  0.04732  0.07324  1.0000
  H   H16       1.0  0.49882  0.95268  0.92676  1.0000
  H   H17       1.0  0.86278  0.85065  0.13766  1.0000
  H   H18       1.0  0.13722  0.14935  0.86234  1.0000
  H   H19       1.0  0.83724  0.89915  0.02573  1.0000
  H   H20       1.0  0.16276  0.10085  0.97427  1.0000
  H   H21       1.0  0.66950  0.87724  0.08662  1.0000
  H   H22       1.0  0.33050  0.12276  0.91338  1.0000
  H   H23       1.0  0.06529  0.91877  0.05648  1.0000
  H   H24       1.0  0.93471  0.08124  0.94352  1.0000
  H   H25       1.0  0.35160  0.85243  0.08521  1.0000
  H   H26       1.0  0.64840  0.14757  0.91479  1.0000
  H   H27       1.0  0.47492  0.91976  0.21423  1.0000
  H   H28       1.0  0.52508  0.08023  0.78577  1.0000
  H   H29       1.0  0.30464  0.05480  0.30994  1.0000
  H   H30       1.0  0.69536  0.94520  0.69006  1.0000
  H   H31       1.0  0.13990  0.99146  0.41874  1.0000
  H   H32       1.0  0.86010  0.00854  0.58126  1.0000
  H   H33       1.0  0.07341  0.08515  0.50535  1.0000
  H   H34       1.0  0.92658  0.91484  0.49466  1.0000
  H   H35       1.0  0.22369  0.10814  0.43237  1.0000
  H   H36       1.0  0.77631  0.89186  0.56763  1.0000
  H   H37       1.0  0.88688  0.24550  0.48883  1.0000
  H   H38       1.0  0.11311  0.75450  0.51117  1.0000
  H   H39       1.0  0.53315  0.45345  0.41523  1.0000
  H   H40       1.0  0.46685  0.54654  0.58477  1.0000
  H   H41       1.0  0.71258  0.48966  0.44482  1.0000
  H   H42       1.0  0.28742  0.51034  0.55517  1.0000
  H   H43       1.0  0.65291  0.37872  0.50530  1.0000
  H   H44       1.0  0.34709  0.62128  0.49470  1.0000
  H   H45       1.0  0.93374  0.48124  0.15816  1.0000
  H   H46       1.0  0.06627  0.51876  0.84184  1.0000
  H   H47       1.0  0.97222  0.34932  0.90258  1.0000
  H   H48       1.0  0.02778  0.65068  0.09742  1.0000
  H   H49       1.0  0.54795  0.18829  0.45419  1.0000
  H   H50       1.0  0.45205  0.81171  0.54581  1.0000
  H   H51       1.0  0.60210  0.83746  0.40594  1.0000
  H   H52       1.0  0.39789  0.16254  0.59406  1.0000
  C   C1        1.0  0.61041  0.42336  0.24501  1.0000
  C   C2        1.0  0.38959  0.57664  0.75499  1.0000
  C   C3        1.0  0.58948  0.53949  0.25620  1.0000
  C   C4        1.0  0.41052  0.46051  0.74380  1.0000
  C   C5        1.0  0.49249  0.62018  0.19848  1.0000
  C   C6        1.0  0.50751  0.37982  0.80152  1.0000
  C   C7        1.0  0.41984  0.58598  0.12724  1.0000
  C   C8        1.0  0.58016  0.41403  0.87276  1.0000
  C   C9        1.0  0.44514  0.47061  0.11287  1.0000
  C   C10       1.0  0.55486  0.52939  0.88713  1.0000
  C   C11       1.0  0.53813  0.38797  0.17143  1.0000
  C   C12       1.0  0.46187  0.61203  0.82857  1.0000
  C   C13       1.0  0.50699  0.20614  0.11823  1.0000
  C   C14       1.0  0.49301  0.79386  0.88177  1.0000
  C   C15       1.0  0.33422  0.25172  0.09098  1.0000
  C   C16       1.0  0.66578  0.74828  0.90902  1.0000
  C   C17       1.0  0.58059  0.09258  0.10174  1.0000
  C   C18       1.0  0.41941  0.90743  0.89826  1.0000
  C   C19       1.0  0.73898  0.02714  0.11739  1.0000
  C   C20       1.0  0.26102  0.97286  0.88261  1.0000
  C   C21       1.0  0.77994  0.90663  0.09055  1.0000
  C   C22       1.0  0.22006  0.09337  0.90945  1.0000
  C   C23       1.0  0.01254  0.01914  0.17092  1.0000
  C   C24       1.0  0.98746  0.98086  0.82908  1.0000
  C   C25       1.0  0.11283  0.94679  0.11423  1.0000
  C   C26       1.0  0.88717  0.05321  0.88577  1.0000
  C   C27       1.0  0.27766  0.90899  0.13072  1.0000
  C   C28       1.0  0.72234  0.09101  0.86928  1.0000
  C   C29       1.0  0.34554  0.94613  0.20225  1.0000
  C   C30       1.0  0.65445  0.05387  0.79775  1.0000
  C   C31       1.0  0.24875  0.02143  0.25777  1.0000
  C   C32       1.0  0.75125  0.97857  0.74223  1.0000
  C   C33       1.0  0.08206  0.05663  0.24456  1.0000
  C   C34       1.0  0.91794  0.94337  0.75545  1.0000
  C   C35       1.0  0.98370  0.15462  0.37889  1.0000
  C   C36       1.0  0.01630  0.84538  0.62111  1.0000
  C   C37       1.0  0.11149  0.08014  0.43679  1.0000
  C   C38       1.0  0.88851  0.91986  0.56321  1.0000
  C   C39       1.0  0.87293  0.24342  0.41840  1.0000
  C   C40       1.0  0.12706  0.75657  0.58160  1.0000
  C   C41       1.0  0.75072  0.33117  0.37990  1.0000
  C   C42       1.0  0.24928  0.66883  0.62010  1.0000
  C   C43       1.0  0.65646  0.41838  0.43923  1.0000
  C   C44       1.0  0.34355  0.58162  0.56077  1.0000
  C   C45       1.0  0.89206  0.30478  0.06823  1.0000
  C   C46       1.0  0.10795  0.69522  0.93177  1.0000
  C   C47       1.0  0.94868  0.40580  0.03365  1.0000
  C   C48       1.0  0.05132  0.59420  0.96635  1.0000
  C   C49       1.0  0.96331  0.49043  0.08907  1.0000
  C   C50       1.0  0.03669  0.50957  0.91093  1.0000
  C   C51       1.0  0.98540  0.41586  0.94447  1.0000
  C   C52       1.0  0.01460  0.58414  0.05553  1.0000
  C   C53       1.0  0.68062  0.02590  0.34180  1.0000
  C   C54       1.0  0.31937  0.97410  0.65820  1.0000
  C   C55       1.0  0.58209  0.01428  0.42215  1.0000
  C   C56       1.0  0.41791  0.98572  0.57784  1.0000
  C   C57       1.0  0.52587  0.10634  0.47496  1.0000
  C   C58       1.0  0.47413  0.89365  0.52504  1.0000
  C   C59       1.0  0.55545  0.90803  0.44753  1.0000
  C   C60       1.0  0.44455  0.09197  0.55246  1.0000
  N   N1        1.0  0.71347  0.33545  0.29484  1.0000
  N   N2        1.0  0.28653  0.66455  0.70516  1.0000
  N   N3        1.0  0.58382  0.27092  0.16030  1.0000
  N   N4        1.0  0.41618  0.72909  0.83969  1.0000
  N   N5        1.0  0.84819  0.06788  0.15793  1.0000
  N   N6        1.0  0.15181  0.93213  0.84207  1.0000
  N   N7        1.0  0.97452  0.13535  0.29398  1.0000
  N   N8        1.0  0.02548  0.86465  0.70602  1.0000
  O   O1        1.0  0.90367  0.28821  0.15394  1.0000
  O   O2        1.0  0.09633  0.71179  0.84606  1.0000
  O   O3        1.0  0.84005  0.24582  0.01796  1.0000
  O   O4        1.0  0.15997  0.75417  0.98204  1.0000
  O   O5        1.0  0.64826  0.13060  0.30698  1.0000
  O   O6        1.0  0.35174  0.86940  0.69302  1.0000
  O   O7        1.0  0.78078  0.94221  0.31592  1.0000
  O   O8        1.0  0.21920  0.05778  0.68406  1.0000
