data_image0
_chemical_formula_structural       Mn2P4H46C58Br4N2O4
_chemical_formula_sum              "Mn2 P4 H46 C58 Br4 N2 O4"
_cell_length_a       10.3914
_cell_length_b       12.3517
_cell_length_c       12.4979
_cell_angle_alpha    85.4119
_cell_angle_beta     68.4638
_cell_angle_gamma    82.4947

_space_group_name_H-M_alt    "P 1"
_space_group_IT_number       1

loop_
  _space_group_symop_operation_xyz
  'x, y, z'

loop_
  _atom_site_type_symbol
  _atom_site_label
  _atom_site_symmetry_multiplicity
  _atom_site_fract_x
  _atom_site_fract_y
  _atom_site_fract_z
  _atom_site_occupancy
  Mn  Mn1       1.0  0.93586  0.85935  0.88736  1.0000
  Mn  Mn2       1.0  0.06414  0.14065  0.11265  1.0000
  P   P1        1.0  0.78628  0.68477  0.78344  1.0000
  P   P2        1.0  0.21372  0.31523  0.21656  1.0000
  P   P3        1.0  0.28632  0.76983  0.74884  1.0000
  P   P4        1.0  0.71367  0.23017  0.25116  1.0000
  H   H1        1.0  0.24899  0.91506  0.93547  1.0000
  H   H2        1.0  0.75101  0.08494  0.06453  1.0000
  H   H3        1.0  0.40383  0.93658  0.04291  1.0000
  H   H4        1.0  0.59617  0.06341  0.95709  1.0000
  H   H5        1.0  0.64437  0.83268  0.97993  1.0000
  H   H6        1.0  0.35563  0.16731  0.02007  1.0000
  H   H7        1.0  0.94502  0.77411  0.30215  1.0000
  H   H8        1.0  0.05498  0.22589  0.69785  1.0000
  H   H9        1.0  0.15525  0.61949  0.93160  1.0000
  H   H10       1.0  0.84475  0.38051  0.06840  1.0000
  H   H11       1.0  0.47761  0.92153  0.28161  1.0000
  H   H12       1.0  0.52239  0.07847  0.71839  1.0000
  H   H13       1.0  0.57457  0.53881  0.79441  1.0000
  H   H14       1.0  0.42544  0.46119  0.20559  1.0000
  H   H15       1.0  0.16973  0.41610  0.94785  1.0000
  H   H16       1.0  0.83028  0.58390  0.05215  1.0000
  H   H17       1.0  0.64950  0.86803  0.37709  1.0000
  H   H18       1.0  0.35050  0.13197  0.62291  1.0000
  H   H19       1.0  0.96891  0.31840  0.87473  1.0000
  H   H20       1.0  0.03109  0.68160  0.12527  1.0000
  H   H21       1.0  0.57296  0.33835  0.83216  1.0000
  H   H22       1.0  0.42704  0.66165  0.16784  1.0000
  H   H23       1.0  0.57067  0.80016  0.58101  1.0000
  H   H24       1.0  0.42932  0.19984  0.41899  1.0000
  H   H25       1.0  0.91903  0.58176  0.37809  1.0000
  H   H26       1.0  0.08097  0.41824  0.62191  1.0000
  H   H27       1.0  0.43335  0.60130  0.57751  1.0000
  H   H28       1.0  0.56664  0.39870  0.42249  1.0000
  H   H29       1.0  0.77266  0.22817  0.86911  1.0000
  H   H30       1.0  0.22734  0.77183  0.13089  1.0000
  H   H31       1.0  0.14456  0.84386  0.59542  1.0000
  H   H32       1.0  0.85543  0.15614  0.40457  1.0000
  H   H33       1.0  0.83523  0.88296  0.64597  1.0000
  H   H34       1.0  0.16477  0.11704  0.35403  1.0000
  H   H35       1.0  0.96997  0.52034  0.83923  1.0000
  H   H36       1.0  0.03003  0.47966  0.16077  1.0000
  H   H37       1.0  0.90435  0.92301  0.43492  1.0000
  H   H38       1.0  0.09565  0.07699  0.56508  1.0000
  H   H39       1.0  0.22576  0.90795  0.38987  1.0000
  H   H40       1.0  0.77424  0.09205  0.61012  1.0000
  H   H41       1.0  0.85142  0.53986  0.58806  1.0000
  H   H42       1.0  0.14859  0.46014  0.41194  1.0000
  H   H43       1.0  0.31257  0.30612  0.77947  1.0000
  H   H44       1.0  0.68744  0.69388  0.22053  1.0000
  H   H45       1.0  0.44531  0.39738  0.59440  1.0000
  H   H46       1.0  0.55469  0.60262  0.40560  1.0000
  C   C1        1.0  0.61303  0.75834  0.84093  1.0000
  C   C2        1.0  0.38697  0.24166  0.15907  1.0000
  C   C3        1.0  0.35279  0.87076  0.91114  1.0000
  C   C4        1.0  0.64721  0.12924  0.08886  1.0000
  C   C5        1.0  0.40116  0.79845  0.82075  1.0000
  C   C6        1.0  0.59884  0.20155  0.17925  1.0000
  C   C7        1.0  0.44102  0.88345  0.96961  1.0000
  C   C8        1.0  0.55897  0.11655  0.03039  1.0000
  C   C9        1.0  0.57338  0.82574  0.93511  1.0000
  C   C10       1.0  0.42662  0.17426  0.06489  1.0000
  C   C11       1.0  0.91560  0.75497  0.39411  1.0000
  C   C12       1.0  0.08440  0.24503  0.60589  1.0000
  C   C13       1.0  0.21875  0.57087  0.85773  1.0000
  C   C14       1.0  0.78125  0.42913  0.14227  1.0000
  C   C15       1.0  0.44235  0.89195  0.37129  1.0000
  C   C16       1.0  0.55764  0.10805  0.62871  1.0000
  C   C17       1.0  0.66018  0.49072  0.81294  1.0000
  C   C18       1.0  0.33982  0.50928  0.18706  1.0000
  C   C19       1.0  0.22677  0.45715  0.86681  1.0000
  C   C20       1.0  0.77323  0.54285  0.13319  1.0000
  C   C21       1.0  0.53920  0.86186  0.42473  1.0000
  C   C22       1.0  0.46079  0.13815  0.57527  1.0000
  C   C23       1.0  0.83960  0.70859  0.63017  1.0000
  C   C24       1.0  0.16040  0.29141  0.36983  1.0000
  C   C25       1.0  0.88226  0.36731  0.85810  1.0000
  C   C26       1.0  0.11774  0.63269  0.14190  1.0000
  C   C27       1.0  0.65989  0.37806  0.83395  1.0000
  C   C28       1.0  0.34011  0.62194  0.16605  1.0000
  C   C29       1.0  0.49508  0.82409  0.53944  1.0000
  C   C30       1.0  0.50492  0.17592  0.46056  1.0000
  C   C31       1.0  0.77268  0.54145  0.81462  1.0000
  C   C32       1.0  0.22732  0.45855  0.18537  1.0000
  C   C33       1.0  0.90089  0.64748  0.43686  1.0000
  C   C34       1.0  0.09911  0.35252  0.56314  1.0000
  C   C35       1.0  0.29341  0.62292  0.75324  1.0000
  C   C36       1.0  0.70658  0.37708  0.24676  1.0000
  C   C37       1.0  0.37544  0.56055  0.65819  1.0000
  C   C38       1.0  0.62456  0.43945  0.34181  1.0000
  C   C39       1.0  0.77087  0.31651  0.85581  1.0000
  C   C40       1.0  0.22914  0.68349  0.14419  1.0000
  C   C41       1.0  0.35266  0.81755  0.60095  1.0000
  C   C42       1.0  0.64733  0.18245  0.39905  1.0000
  C   C43       1.0  0.25530  0.84796  0.54717  1.0000
  C   C44       1.0  0.74469  0.15204  0.45282  1.0000
  C   C45       1.0  0.85384  0.81688  0.58716  1.0000
  C   C46       1.0  0.14616  0.18312  0.41284  1.0000
  C   C47       1.0  0.88359  0.47977  0.83763  1.0000
  C   C48       1.0  0.11641  0.52023  0.16237  1.0000
  C   C49       1.0  0.89230  0.83948  0.46928  1.0000
  C   C50       1.0  0.10770  0.16052  0.53072  1.0000
  C   C51       1.0  0.30072  0.88468  0.43227  1.0000
  C   C52       1.0  0.69927  0.11532  0.56773  1.0000
  C   C53       1.0  0.86320  0.62376  0.55483  1.0000
  C   C54       1.0  0.13681  0.37624  0.44518  1.0000
  C   C55       1.0  0.30840  0.39503  0.77174  1.0000
  C   C56       1.0  0.69160  0.60497  0.22826  1.0000
  C   C57       1.0  0.38233  0.44676  0.66780  1.0000
  C   C58       1.0  0.61766  0.55325  0.33220  1.0000
  Br  Br1       1.0  0.86064  0.02062  0.78814  1.0000
  Br  Br2       1.0  0.13940  0.97940  0.21186  1.0000
  Br  Br3       1.0  0.84037  0.86000  0.09831  1.0000
  Br  Br4       1.0  0.15963  0.14000  0.90169  1.0000
  N   N1        1.0  0.52888  0.74343  0.78494  1.0000
  N   N2        1.0  0.47111  0.25657  0.21506  1.0000
  O   O1        1.0  0.88211  0.72346  0.83628  1.0000
  O   O2        1.0  0.11788  0.27655  0.16372  1.0000
  O   O3        1.0  0.14237  0.82425  0.81426  1.0000
  O   O4        1.0  0.85763  0.17575  0.18574  1.0000
