data_image0
_chemical_formula_structural       Dy2H30C46Cl12O14
_chemical_formula_sum              "Dy2 H30 C46 Cl12 O14"
_cell_length_a       9.21675
_cell_length_b       10.6143
_cell_length_c       14.294
_cell_angle_alpha    77.949
_cell_angle_beta     86.5179
_cell_angle_gamma    75.5961

_space_group_name_H-M_alt    "P 1"
_space_group_IT_number       1

loop_
  _space_group_symop_operation_xyz
  'x, y, z'

loop_
  _atom_site_type_symbol
  _atom_site_label
  _atom_site_symmetry_multiplicity
  _atom_site_fract_x
  _atom_site_fract_y
  _atom_site_fract_z
  _atom_site_occupancy
  Dy  Dy1       1.0  0.21909  0.45363  0.99335  1.0000
  Dy  Dy2       1.0  0.78092  0.54636  0.00665  1.0000
  H   H1        1.0  0.47360  0.14965  0.77434  1.0000
  H   H2        1.0  0.52639  0.85034  0.22566  1.0000
  H   H3        1.0  0.53775  0.27357  0.69165  1.0000
  H   H4        1.0  0.46224  0.72642  0.30835  1.0000
  H   H5        1.0  0.34558  0.30357  0.72739  1.0000
  H   H6        1.0  0.65441  0.69643  0.27262  1.0000
  H   H7        1.0  0.61348  0.27308  0.85685  1.0000
  H   H8        1.0  0.38651  0.72692  0.14315  1.0000
  H   H9        1.0  0.48379  0.42413  0.81011  1.0000
  H   H10       1.0  0.51620  0.57586  0.18989  1.0000
  H   H11       1.0  0.79844  0.21540  0.00888  1.0000
  H   H12       1.0  0.20156  0.78460  0.99112  1.0000
  H   H13       1.0  0.83127  0.81950  0.17480  1.0000
  H   H14       1.0  0.16873  0.18051  0.82521  1.0000
  H   H15       1.0  0.19484  0.01066  0.17382  1.0000
  H   H16       1.0  0.80515  0.98934  0.82619  1.0000
  H   H17       1.0  0.77929  0.45324  0.31260  1.0000
  H   H18       1.0  0.22072  0.54676  0.68739  1.0000
  H   H19       1.0  0.03805  0.28564  0.57073  1.0000
  H   H20       1.0  0.96196  0.71436  0.42926  1.0000
  H   H21       1.0  0.25594  0.41438  0.30391  1.0000
  H   H22       1.0  0.74407  0.58563  0.69608  1.0000
  H   H23       1.0  0.20533  0.75245  0.76269  1.0000
  H   H24       1.0  0.79467  0.24755  0.23731  1.0000
  H   H25       1.0  0.38890  0.04105  0.56429  1.0000
  H   H26       1.0  0.61110  0.95895  0.43571  1.0000
  H   H27       1.0  0.65947  0.77436  0.79532  1.0000
  H   H28       1.0  0.34052  0.22564  0.20468  1.0000
  H   H29       1.0  0.40188  0.20734  0.93884  1.0000
  H   H30       1.0  0.59812  0.79264  0.06116  1.0000
  C   C1        1.0  0.46066  0.25734  0.75215  1.0000
  C   C2        1.0  0.53933  0.74266  0.24785  1.0000
  C   C3        1.0  0.49724  0.31677  0.83275  1.0000
  C   C4        1.0  0.50275  0.68322  0.16725  1.0000
  C   C5        1.0  0.06841  0.24173  0.05478  1.0000
  C   C6        1.0  0.93160  0.75827  0.94522  1.0000
  C   C7        1.0  0.00340  0.12427  0.08750  1.0000
  C   C8        1.0  0.99659  0.87574  0.91250  1.0000
  C   C9        1.0  0.86122  0.12786  0.05666  1.0000
  C   C10       1.0  0.13878  0.87214  0.94335  1.0000
  C   C11       1.0  0.80125  0.01850  0.08938  1.0000
  C   C12       1.0  0.19874  0.98151  0.91062  1.0000
  C   C13       1.0  0.87914  0.90491  0.15074  1.0000
  C   C14       1.0  0.12086  0.09509  0.84927  1.0000
  C   C15       1.0  0.02123  0.90397  0.18025  1.0000
  C   C16       1.0  0.97876  0.09603  0.81975  1.0000
  C   C17       1.0  0.08483  0.01198  0.14945  1.0000
  C   C18       1.0  0.91517  0.98802  0.85056  1.0000
  C   C19       1.0  0.01006  0.48886  0.19169  1.0000
  C   C20       1.0  0.98995  0.51114  0.80830  1.0000
  C   C21       1.0  0.01677  0.43972  0.29827  1.0000
  C   C22       1.0  0.98324  0.56027  0.70172  1.0000
  C   C23       1.0  0.88596  0.42402  0.34947  1.0000
  C   C24       1.0  0.11405  0.57597  0.65052  1.0000
  C   C25       1.0  0.89539  0.36754  0.44678  1.0000
  C   C26       1.0  0.10461  0.63246  0.55322  1.0000
  C   C27       1.0  0.03187  0.32957  0.49476  1.0000
  C   C28       1.0  0.96815  0.67043  0.50523  1.0000
  C   C29       1.0  0.16022  0.34905  0.44234  1.0000
  C   C30       1.0  0.83979  0.65096  0.55765  1.0000
  C   C31       1.0  0.15494  0.40258  0.34465  1.0000
  C   C32       1.0  0.84508  0.59742  0.65534  1.0000
  C   C33       1.0  0.44922  0.64369  0.87409  1.0000
  C   C34       1.0  0.55078  0.35631  0.12591  1.0000
  C   C35       1.0  0.43428  0.75227  0.78644  1.0000
  C   C36       1.0  0.56572  0.24773  0.21356  1.0000
  C   C37       1.0  0.29810  0.79742  0.73758  1.0000
  C   C38       1.0  0.70190  0.20258  0.26242  1.0000
  C   C39       1.0  0.28320  0.90150  0.65850  1.0000
  C   C40       1.0  0.71680  0.09849  0.34150  1.0000
  C   C41       1.0  0.40202  0.95970  0.62607  1.0000
  C   C42       1.0  0.59798  0.04030  0.37393  1.0000
  C   C43       1.0  0.53726  0.91173  0.67554  1.0000
  C   C44       1.0  0.46274  0.08827  0.32447  1.0000
  C   C45       1.0  0.55504  0.80923  0.75579  1.0000
  C   C46       1.0  0.44495  0.19078  0.24421  1.0000
  Cl  Cl1       1.0  0.62155  0.02639  0.05537  1.0000
  Cl  Cl2       1.0  0.37844  0.97361  0.94464  1.0000
  Cl  Cl3       1.0  0.11853  0.76502  0.25768  1.0000
  Cl  Cl4       1.0  0.88147  0.23499  0.74232  1.0000
  Cl  Cl5       1.0  0.73417  0.34218  0.50870  1.0000
  Cl  Cl6       1.0  0.26584  0.65782  0.49130  1.0000
  Cl  Cl7       1.0  0.33093  0.30392  0.50021  1.0000
  Cl  Cl8       1.0  0.66908  0.69609  0.49978  1.0000
  Cl  Cl9       1.0  0.11273  0.96226  0.60043  1.0000
  Cl  Cl10      1.0  0.88727  0.03774  0.39957  1.0000
  Cl  Cl11      1.0  0.68619  0.98243  0.63562  1.0000
  Cl  Cl12      1.0  0.31381  0.01757  0.36439  1.0000
  O   O1        1.0  0.98154  0.35635  0.02437  1.0000
  O   O2        1.0  0.01846  0.64366  0.97562  1.0000
  O   O3        1.0  0.20933  0.22708  0.05701  1.0000
  O   O4        1.0  0.79066  0.77291  0.94299  1.0000
  O   O5        1.0  0.88118  0.53670  0.15436  1.0000
  O   O6        1.0  0.11883  0.46330  0.84564  1.0000
  O   O7        1.0  0.13433  0.47480  0.14625  1.0000
  O   O8        1.0  0.86567  0.52520  0.85375  1.0000
  O   O9        1.0  0.33255  0.60140  0.90148  1.0000
  O   O10       1.0  0.66746  0.39859  0.09852  1.0000
  O   O11       1.0  0.57438  0.60030  0.91504  1.0000
  O   O12       1.0  0.42563  0.39969  0.08496  1.0000
  O   O13       1.0  0.39733  0.30117  0.91398  1.0000
  O   O14       1.0  0.60267  0.69882  0.08602  1.0000
