data_image0
_chemical_formula_structural       Cu4H24C12S8I4
_chemical_formula_sum              "Cu4 H24 C12 S8 I4"
_cell_length_a       7.25503
_cell_length_b       7.7536
_cell_length_c       12.0213
_cell_angle_alpha    89.9999
_cell_angle_beta     89.9997
_cell_angle_gamma    103.676

_space_group_name_H-M_alt    "P 1"
_space_group_IT_number       1

loop_
  _space_group_symop_operation_xyz
  'x, y, z'

loop_
  _atom_site_type_symbol
  _atom_site_label
  _atom_site_symmetry_multiplicity
  _atom_site_fract_x
  _atom_site_fract_y
  _atom_site_fract_z
  _atom_site_occupancy
  Cu  Cu1       1.0  0.66461  0.12497  0.47705  1.0000
  Cu  Cu2       1.0  0.83539  0.37503  0.97706  1.0000
  Cu  Cu3       1.0  0.33539  0.87504  0.52295  1.0000
  Cu  Cu4       1.0  0.16461  0.62497  0.02295  1.0000
  H   H1        1.0  0.88527  0.07412  0.14906  1.0000
  H   H2        1.0  0.61476  0.42590  0.64905  1.0000
  H   H3        1.0  0.11475  0.92590  0.85095  1.0000
  H   H4        1.0  0.38525  0.57412  0.35094  1.0000
  H   H5        1.0  0.67324  0.95968  0.22056  1.0000
  H   H6        1.0  0.82680  0.54033  0.72055  1.0000
  H   H7        1.0  0.32679  0.04033  0.77944  1.0000
  H   H8        1.0  0.17321  0.45969  0.27944  1.0000
  H   H9        1.0  0.52769  0.45414  0.15179  1.0000
  H   H10       1.0  0.97229  0.04582  0.65179  1.0000
  H   H11       1.0  0.47231  0.54584  0.84821  1.0000
  H   H12       1.0  0.02769  0.95415  0.34821  1.0000
  H   H13       1.0  0.44392  0.27943  0.25062  1.0000
  H   H14       1.0  0.05607  0.22054  0.75063  1.0000
  H   H15       1.0  0.55608  0.72057  0.74937  1.0000
  H   H16       1.0  0.94393  0.77943  0.24938  1.0000
  H   H17       1.0  0.71001  0.48631  0.34503  1.0000
  H   H18       1.0  0.78997  0.01368  0.84504  1.0000
  H   H19       1.0  0.29000  0.51369  0.65497  1.0000
  H   H20       1.0  0.21001  0.98629  0.15497  1.0000
  H   H21       1.0  0.85079  0.50434  0.22040  1.0000
  H   H22       1.0  0.64919  0.99567  0.72041  1.0000
  H   H23       1.0  0.14921  0.49566  0.77959  1.0000
  H   H24       1.0  0.35078  0.00435  0.27959  1.0000
  C   C1        1.0  0.75852  0.08967  0.19411  1.0000
  C   C2        1.0  0.74149  0.41034  0.69411  1.0000
  C   C3        1.0  0.24149  0.91034  0.80589  1.0000
  C   C4        1.0  0.25851  0.58967  0.30589  1.0000
  C   C5        1.0  0.56556  0.34744  0.20017  1.0000
  C   C6        1.0  0.93445  0.15256  0.70015  1.0000
  C   C7        1.0  0.43445  0.65257  0.79985  1.0000
  C   C8        1.0  0.06558  0.84747  0.29981  1.0000
  C   C9        1.0  0.74034  0.41659  0.27008  1.0000
  C   C10       1.0  0.75962  0.08341  0.77009  1.0000
  C   C11       1.0  0.25965  0.58342  0.72991  1.0000
  C   C12       1.0  0.24031  0.91660  0.22993  1.0000
  S   S1        1.0  0.82884  0.22824  0.31699  1.0000
  S   S2        1.0  0.67118  0.27175  0.81699  1.0000
  S   S3        1.0  0.17117  0.77175  0.68301  1.0000
  S   S4        1.0  0.32884  0.72823  0.18300  1.0000
  S   S5        1.0  0.62455  0.19536  0.09897  1.0000
  S   S6        1.0  0.87545  0.30461  0.59898  1.0000
  S   S7        1.0  0.37545  0.80462  0.90102  1.0000
  S   S8        1.0  0.12455  0.69536  0.40104  1.0000
  I   I1        1.0  0.33745  0.21055  0.49745  1.0000
  I   I2        1.0  0.16255  0.28946  0.99745  1.0000
  I   I3        1.0  0.66255  0.78946  0.50254  1.0000
  I   I4        1.0  0.83745  0.71055  0.00255  1.0000
