data_image0
_chemical_formula_structural       Zn4H36C36N4O20
_chemical_formula_sum              "Zn4 H36 C36 N4 O20"
_cell_length_a       6.02654
_cell_length_b       9.27547
_cell_length_c       17.8254
_cell_angle_alpha    89.9999
_cell_angle_beta     89.9997
_cell_angle_gamma    90

_space_group_name_H-M_alt    "P 1"
_space_group_IT_number       1

loop_
  _space_group_symop_operation_xyz
  'x, y, z'

loop_
  _atom_site_type_symbol
  _atom_site_label
  _atom_site_symmetry_multiplicity
  _atom_site_fract_x
  _atom_site_fract_y
  _atom_site_fract_z
  _atom_site_occupancy
  Zn  Zn1       1.0  0.55322  0.24817  0.44032  1.0000
  Zn  Zn2       1.0  0.94678  0.75182  0.94032  1.0000
  Zn  Zn3       1.0  0.44678  0.74818  0.05968  1.0000
  Zn  Zn4       1.0  0.05322  0.25183  0.55968  1.0000
  H   H1        1.0  0.62664  0.12554  0.32069  1.0000
  H   H2        1.0  0.87337  0.87446  0.82069  1.0000
  H   H3        1.0  0.37335  0.62554  0.17931  1.0000
  H   H4        1.0  0.12664  0.37446  0.67931  1.0000
  H   H5        1.0  0.48703  0.45497  0.31495  1.0000
  H   H6        1.0  0.01297  0.54503  0.81495  1.0000
  H   H7        1.0  0.51295  0.95496  0.18505  1.0000
  H   H8        1.0  0.98705  0.04504  0.68505  1.0000
  H   H9        1.0  0.49781  0.72097  0.28982  1.0000
  H   H10       1.0  0.00219  0.27903  0.78982  1.0000
  H   H11       1.0  0.50217  0.22097  0.21018  1.0000
  H   H12       1.0  0.99783  0.77903  0.71018  1.0000
  H   H13       1.0  0.58757  0.78776  0.52668  1.0000
  H   H14       1.0  0.91244  0.21224  0.02668  1.0000
  H   H15       1.0  0.41244  0.28776  0.97332  1.0000
  H   H16       1.0  0.08757  0.71224  0.47332  1.0000
  H   H17       1.0  0.58630  0.51806  0.54249  1.0000
  H   H18       1.0  0.91371  0.48194  0.04249  1.0000
  H   H19       1.0  0.41371  0.01806  0.95751  1.0000
  H   H20       1.0  0.08630  0.98194  0.45751  1.0000
  H   H21       1.0  0.96648  0.15381  0.28250  1.0000
  H   H22       1.0  0.53352  0.84619  0.78251  1.0000
  H   H23       1.0  0.03350  0.65381  0.21750  1.0000
  H   H24       1.0  0.46649  0.34619  0.71750  1.0000
  H   H25       1.0  0.85997  0.39560  0.22538  1.0000
  H   H26       1.0  0.64003  0.60441  0.72538  1.0000
  H   H27       1.0  0.14003  0.89560  0.27462  1.0000
  H   H28       1.0  0.35996  0.10440  0.77462  1.0000
  H   H29       1.0  0.13891  0.38825  0.25966  1.0000
  H   H30       1.0  0.36109  0.61175  0.75966  1.0000
  H   H31       1.0  0.86106  0.88825  0.24034  1.0000
  H   H32       1.0  0.63893  0.11175  0.74034  1.0000
  H   H33       1.0  0.92852  0.47917  0.31208  1.0000
  H   H34       1.0  0.57148  0.52083  0.81208  1.0000
  H   H35       1.0  0.07147  0.97917  0.18792  1.0000
  H   H36       1.0  0.42852  0.02083  0.68792  1.0000
  C   C1        1.0  0.50902  0.53203  0.36039  1.0000
  C   C2        1.0  0.99098  0.46798  0.86039  1.0000
  C   C3        1.0  0.49097  0.03202  0.13961  1.0000
  C   C4        1.0  0.00904  0.96797  0.63961  1.0000
  C   C5        1.0  0.51549  0.67949  0.34666  1.0000
  C   C6        1.0  0.98451  0.32051  0.84666  1.0000
  C   C7        1.0  0.48451  0.17949  0.15334  1.0000
  C   C8        1.0  0.01549  0.82051  0.65334  1.0000
  C   C9        1.0  0.54666  0.77430  0.40668  1.0000
  C   C10       1.0  0.95334  0.22570  0.90668  1.0000
  C   C11       1.0  0.45333  0.27430  0.09332  1.0000
  C   C12       1.0  0.04668  0.72569  0.59332  1.0000
  C   C13       1.0  0.56731  0.71648  0.47872  1.0000
  C   C14       1.0  0.93270  0.28352  0.97871  1.0000
  C   C15       1.0  0.43269  0.21648  0.02128  1.0000
  C   C16       1.0  0.06731  0.78352  0.52129  1.0000
  C   C17       1.0  0.56410  0.56741  0.48763  1.0000
  C   C18       1.0  0.93591  0.43259  0.98764  1.0000
  C   C19       1.0  0.43591  0.06740  0.01237  1.0000
  C   C20       1.0  0.06409  0.93260  0.51237  1.0000
  C   C21       1.0  0.56065  0.93442  0.39234  1.0000
  C   C22       1.0  0.93935  0.06558  0.89234  1.0000
  C   C23       1.0  0.43935  0.43442  0.10766  1.0000
  C   C24       1.0  0.06066  0.56558  0.60766  1.0000
  C   C25       1.0  0.03341  0.23897  0.39083  1.0000
  C   C26       1.0  0.46660  0.76103  0.89083  1.0000
  C   C27       1.0  0.96658  0.73896  0.10917  1.0000
  C   C28       1.0  0.53341  0.26103  0.60917  1.0000
  C   C29       1.0  0.90717  0.24555  0.31626  1.0000
  C   C30       1.0  0.59283  0.75445  0.81626  1.0000
  C   C31       1.0  0.09282  0.74555  0.18374  1.0000
  C   C32       1.0  0.40718  0.25445  0.68374  1.0000
  C   C33       1.0  0.96346  0.38610  0.27582  1.0000
  C   C34       1.0  0.53654  0.61390  0.77581  1.0000
  C   C35       1.0  0.03652  0.88611  0.22418  1.0000
  C   C36       1.0  0.46347  0.11389  0.72418  1.0000
  N   N1        1.0  0.53694  0.47632  0.42964  1.0000
  N   N2        1.0  0.96306  0.52368  0.92964  1.0000
  N   N3        1.0  0.46305  0.97631  0.07036  1.0000
  N   N4        1.0  0.03695  0.02369  0.57036  1.0000
  O   O1        1.0  0.56783  0.97254  0.32372  1.0000
  O   O2        1.0  0.93217  0.02746  0.82372  1.0000
  O   O3        1.0  0.43216  0.47254  0.17628  1.0000
  O   O4        1.0  0.06784  0.52746  0.67628  1.0000
  O   O5        1.0  0.56720  0.01787  0.44898  1.0000
  O   O6        1.0  0.93281  0.98213  0.94898  1.0000
  O   O7        1.0  0.43280  0.51787  0.05102  1.0000
  O   O8        1.0  0.06719  0.48213  0.55102  1.0000
  O   O9        1.0  0.92013  0.24972  0.45194  1.0000
  O   O10       1.0  0.57987  0.75028  0.95194  1.0000
  O   O11       1.0  0.07986  0.74972  0.04806  1.0000
  O   O12       1.0  0.42013  0.25028  0.54806  1.0000
  O   O13       1.0  0.67289  0.23357  0.32618  1.0000
  O   O14       1.0  0.82711  0.76643  0.82618  1.0000
  O   O15       1.0  0.32710  0.73357  0.17382  1.0000
  O   O16       1.0  0.17289  0.26643  0.67382  1.0000
  O   O17       1.0  0.23971  0.22413  0.38685  1.0000
  O   O18       1.0  0.26029  0.77587  0.88685  1.0000
  O   O19       1.0  0.76027  0.72413  0.11316  1.0000
  O   O20       1.0  0.73972  0.27587  0.61316  1.0000
