data_image0
_chemical_formula_structural       Ti4H24C20N8Cl16
_chemical_formula_sum              "Ti4 H24 C20 N8 Cl16"
_cell_length_a       5.92456
_cell_length_b       12.6217
_cell_length_c       14.1987
_cell_angle_alpha    90.0001
_cell_angle_beta     89.9999
_cell_angle_gamma    90.0001

_space_group_name_H-M_alt    "P 1"
_space_group_IT_number       1

loop_
  _space_group_symop_operation_xyz
  'x, y, z'

loop_
  _atom_site_type_symbol
  _atom_site_label
  _atom_site_symmetry_multiplicity
  _atom_site_fract_x
  _atom_site_fract_y
  _atom_site_fract_z
  _atom_site_occupancy
  Ti  Ti1       1.0  0.15934  0.46911  0.25000  1.0000
  Ti  Ti2       1.0  0.84066  0.53089  0.75000  1.0000
  Ti  Ti3       1.0  0.15934  0.03089  0.75000  1.0000
  Ti  Ti4       1.0  0.84066  0.96911  0.25000  1.0000
  H   H1        1.0  0.76873  0.70704  0.09888  1.0000
  H   H2        1.0  0.23128  0.29296  0.59888  1.0000
  H   H3        1.0  0.76872  0.79296  0.90112  1.0000
  H   H4        1.0  0.23128  0.20704  0.40111  1.0000
  H   H5        1.0  0.23128  0.29296  0.90112  1.0000
  H   H6        1.0  0.76873  0.70704  0.40112  1.0000
  H   H7        1.0  0.23127  0.20704  0.09888  1.0000
  H   H8        1.0  0.76872  0.79296  0.59889  1.0000
  H   H9        1.0  0.74799  0.62124  0.00029  1.0000
  H   H10       1.0  0.25201  0.37876  0.50029  1.0000
  H   H11       1.0  0.74799  0.87876  0.99971  1.0000
  H   H12       1.0  0.25200  0.12124  0.49971  1.0000
  H   H13       1.0  0.25201  0.37876  0.99971  1.0000
  H   H14       1.0  0.74799  0.62124  0.49971  1.0000
  H   H15       1.0  0.25201  0.12124  0.00029  1.0000
  H   H16       1.0  0.74800  0.87876  0.50029  1.0000
  H   H17       1.0  0.39015  0.70974  0.94865  1.0000
  H   H18       1.0  0.60985  0.29026  0.44865  1.0000
  H   H19       1.0  0.39016  0.79026  0.05135  1.0000
  H   H20       1.0  0.60984  0.20974  0.55135  1.0000
  H   H21       1.0  0.60984  0.29026  0.05135  1.0000
  H   H22       1.0  0.39016  0.70974  0.55135  1.0000
  H   H23       1.0  0.60985  0.20974  0.94865  1.0000
  H   H24       1.0  0.39016  0.79026  0.44865  1.0000
  C   C1        1.0  0.51169  0.59795  0.10675  1.0000
  C   C2        1.0  0.48833  0.40206  0.60675  1.0000
  C   C3        1.0  0.51168  0.90206  0.89325  1.0000
  C   C4        1.0  0.48831  0.09794  0.39325  1.0000
  C   C5        1.0  0.48832  0.40205  0.89325  1.0000
  C   C6        1.0  0.51169  0.59794  0.39325  1.0000
  C   C7        1.0  0.48831  0.09795  0.10675  1.0000
  C   C8        1.0  0.51168  0.90206  0.60675  1.0000
  C   C9        1.0  0.64824  0.66832  0.05070  1.0000
  C   C10       1.0  0.35176  0.33168  0.55070  1.0000
  C   C11       1.0  0.64824  0.83168  0.94930  1.0000
  C   C12       1.0  0.35176  0.16832  0.44930  1.0000
  C   C13       1.0  0.35177  0.33168  0.94930  1.0000
  C   C14       1.0  0.64824  0.66832  0.44931  1.0000
  C   C15       1.0  0.35176  0.16832  0.05069  1.0000
  C   C16       1.0  0.64824  0.83168  0.55070  1.0000
  C   C17       1.0  0.49885  0.75000  0.00000  1.0000
  C   C18       1.0  0.50115  0.25000  0.50000  1.0000
  C   C19       1.0  0.50115  0.25000  0.00000  1.0000
  C   C20       1.0  0.49885  0.75000  0.50000  1.0000
  N   N1        1.0  0.39125  0.54547  0.15120  1.0000
  N   N2        1.0  0.60874  0.45453  0.65119  1.0000
  N   N3        1.0  0.39126  0.95453  0.84881  1.0000
  N   N4        1.0  0.60875  0.04547  0.34881  1.0000
  N   N5        1.0  0.60875  0.45453  0.84880  1.0000
  N   N6        1.0  0.39125  0.54547  0.34881  1.0000
  N   N7        1.0  0.60875  0.04547  0.15119  1.0000
  N   N8        1.0  0.39125  0.95453  0.65119  1.0000
  Cl  Cl1       1.0  0.42240  0.33626  0.25000  1.0000
  Cl  Cl2       1.0  0.57759  0.66374  0.75000  1.0000
  Cl  Cl3       1.0  0.42241  0.16375  0.75000  1.0000
  Cl  Cl4       1.0  0.57759  0.83625  0.25000  1.0000
  Cl  Cl5       1.0  0.95481  0.40751  0.12734  1.0000
  Cl  Cl6       1.0  0.04519  0.59249  0.62733  1.0000
  Cl  Cl7       1.0  0.95481  0.09249  0.87266  1.0000
  Cl  Cl8       1.0  0.04518  0.90751  0.37266  1.0000
  Cl  Cl9       1.0  0.04518  0.59249  0.87266  1.0000
  Cl  Cl10      1.0  0.95481  0.40751  0.37266  1.0000
  Cl  Cl11      1.0  0.04518  0.90751  0.12733  1.0000
  Cl  Cl12      1.0  0.95481  0.09249  0.62734  1.0000
  Cl  Cl13      1.0  0.99574  0.63363  0.25000  1.0000
  Cl  Cl14      1.0  0.00427  0.36637  0.75000  1.0000
  Cl  Cl15      1.0  0.99574  0.86637  0.75000  1.0000
  Cl  Cl16      1.0  0.00426  0.13363  0.25000  1.0000
