data_image0
_chemical_formula_structural       Ca2H12C4N20O6
_chemical_formula_sum              "Ca2 H12 C4 N20 O6"
_cell_length_a       6.37471
_cell_length_b       8.27021
_cell_length_c       9.20795
_cell_angle_alpha    94.6815
_cell_angle_beta     103.276
_cell_angle_gamma    91.8692

_space_group_name_H-M_alt    "P 1"
_space_group_IT_number       1

loop_
  _space_group_symop_operation_xyz
  'x, y, z'

loop_
  _atom_site_type_symbol
  _atom_site_label
  _atom_site_symmetry_multiplicity
  _atom_site_fract_x
  _atom_site_fract_y
  _atom_site_fract_z
  _atom_site_occupancy
  Ca  Ca1       1.0  0.20510  0.96238  0.87909  1.0000
  Ca  Ca2       1.0  0.79490  0.03762  0.12090  1.0000
  H   H1        1.0  0.21876  0.56256  0.83247  1.0000
  H   H2        1.0  0.78125  0.43745  0.16753  1.0000
  H   H3        1.0  0.46206  0.63547  0.92974  1.0000
  H   H4        1.0  0.53794  0.36455  0.07027  1.0000
  H   H5        1.0  0.80028  0.07522  0.46105  1.0000
  H   H6        1.0  0.19972  0.92478  0.53895  1.0000
  H   H7        1.0  0.80160  0.27232  0.44118  1.0000
  H   H8        1.0  0.19840  0.72768  0.55883  1.0000
  H   H9        1.0  0.17669  0.27201  0.74618  1.0000
  H   H10       1.0  0.82330  0.72799  0.25383  1.0000
  H   H11       1.0  0.38133  0.21008  0.69265  1.0000
  H   H12       1.0  0.61866  0.78992  0.30735  1.0000
  C   C1        1.0  0.09969  0.71271  0.10657  1.0000
  C   C2        1.0  0.90030  0.28731  0.89342  1.0000
  C   C3        1.0  0.36388  0.10585  0.24569  1.0000
  C   C4        1.0  0.63612  0.89415  0.75431  1.0000
  N   N1        1.0  0.23589  0.61745  0.04664  1.0000
  N   N2        1.0  0.76412  0.38256  0.95336  1.0000
  N   N3        1.0  0.28754  0.48874  0.12947  1.0000
  N   N4        1.0  0.71246  0.51127  0.87054  1.0000
  N   N5        1.0  0.18776  0.50558  0.23735  1.0000
  N   N6        1.0  0.81224  0.49443  0.76266  1.0000
  N   N7        1.0  0.06905  0.64071  0.22784  1.0000
  N   N8        1.0  0.93096  0.35931  0.77216  1.0000
  N   N9        1.0  0.29840  0.64730  0.91643  1.0000
  N   N10       1.0  0.70160  0.35271  0.08357  1.0000
  N   N11       1.0  0.51250  0.15679  0.37729  1.0000
  N   N12       1.0  0.48750  0.84320  0.62271  1.0000
  N   N13       1.0  0.41002  0.18323  0.49071  1.0000
  N   N14       1.0  0.58999  0.81676  0.50927  1.0000
  N   N15       1.0  0.20571  0.15314  0.43022  1.0000
  N   N16       1.0  0.79429  0.84685  0.56976  1.0000
  N   N17       1.0  0.16904  0.10643  0.28189  1.0000
  N   N18       1.0  0.83096  0.89355  0.71809  1.0000
  N   N19       1.0  0.73419  0.16138  0.39225  1.0000
  N   N20       1.0  0.26580  0.83862  0.60776  1.0000
  O   O1        1.0  0.02382  0.84023  0.05173  1.0000
  O   O2        1.0  0.97618  0.15978  0.94826  1.0000
  O   O3        1.0  0.41446  0.06619  0.12270  1.0000
  O   O4        1.0  0.58554  0.93380  0.87731  1.0000
  O   O5        1.0  0.30582  0.20630  0.77431  1.0000
  O   O6        1.0  0.69418  0.79370  0.22569  1.0000
