data_image0
_chemical_formula_structural       Cd3H30C38N12O16
_chemical_formula_sum              "Cd3 H30 C38 N12 O16"
_cell_length_a       6.19127
_cell_length_b       13.9422
_cell_length_c       13.9142
_cell_angle_alpha    121.381
_cell_angle_beta     90.0883
_cell_angle_gamma    99.1106

_space_group_name_H-M_alt    "P 1"
_space_group_IT_number       1

loop_
  _space_group_symop_operation_xyz
  'x, y, z'

loop_
  _atom_site_type_symbol
  _atom_site_label
  _atom_site_symmetry_multiplicity
  _atom_site_fract_x
  _atom_site_fract_y
  _atom_site_fract_z
  _atom_site_occupancy
  Cd  Cd1       1.0  0.00000  1.00000  0.50000  1.0000
  Cd  Cd2       1.0  0.41282  0.05077  0.16418  1.0000
  Cd  Cd3       1.0  0.58717  0.94923  0.83582  1.0000
  H   H1        1.0  0.26662  0.27887  0.14375  1.0000
  H   H2        1.0  0.73338  0.72113  0.85625  1.0000
  H   H3        1.0  0.87126  0.24816  0.25499  1.0000
  H   H4        1.0  0.12874  0.75185  0.74502  1.0000
  H   H5        1.0  0.93695  0.44078  0.23882  1.0000
  H   H6        1.0  0.06306  0.55922  0.76118  1.0000
  H   H7        1.0  0.84523  0.59904  0.26302  1.0000
  H   H8        1.0  0.15477  0.40096  0.73698  1.0000
  H   H9        1.0  0.72941  0.74203  0.23144  1.0000
  H   H10       1.0  0.27060  0.25797  0.76856  1.0000
  H   H11       1.0  0.60355  0.85515  0.19738  1.0000
  H   H12       1.0  0.39645  0.14486  0.80263  1.0000
  H   H13       1.0  0.02933  0.60124  0.01448  1.0000
  H   H14       1.0  0.97068  0.39876  0.98553  1.0000
  H   H15       1.0  0.00727  0.79716  0.01270  1.0000
  H   H16       1.0  0.99272  0.20284  0.98731  1.0000
  H   H17       1.0  0.24678  0.32545  0.42297  1.0000
  H   H18       1.0  0.75323  0.67455  0.57703  1.0000
  H   H19       1.0  0.86867  0.55589  0.58158  1.0000
  H   H20       1.0  0.13133  0.44411  0.41842  1.0000
  H   H21       1.0  0.99487  0.41121  0.60568  1.0000
  H   H22       1.0  0.00513  0.58879  0.39431  1.0000
  H   H23       1.0  0.85456  0.06783  0.24300  1.0000
  H   H24       1.0  0.14543  0.93217  0.75700  1.0000
  H   H25       1.0  0.09652  0.95626  0.30115  1.0000
  H   H26       1.0  0.90348  0.04374  0.69885  1.0000
  H   H27       1.0  0.72962  0.08003  0.35165  1.0000
  H   H28       1.0  0.27038  0.91997  0.64835  1.0000
  H   H29       1.0  0.07467  0.83981  0.30450  1.0000
  H   H30       1.0  0.92532  0.16019  0.69550  1.0000
  C   C1        1.0  0.43818  0.29477  0.17262  1.0000
  C   C2        1.0  0.56181  0.70523  0.82737  1.0000
  C   C3        1.0  0.75525  0.28473  0.23135  1.0000
  C   C4        1.0  0.24476  0.71527  0.76865  1.0000
  C   C5        1.0  0.78890  0.38090  0.22560  1.0000
  C   C6        1.0  0.21109  0.61909  0.77441  1.0000
  C   C7        1.0  0.53894  0.47484  0.17300  1.0000
  C   C8        1.0  0.46105  0.52515  0.82700  1.0000
  C   C9        1.0  0.68653  0.57880  0.21638  1.0000
  C   C10       1.0  0.31348  0.42120  0.78362  1.0000
  C   C11       1.0  0.62347  0.65893  0.19819  1.0000
  C   C12       1.0  0.37652  0.34106  0.80181  1.0000
  C   C13       1.0  0.41887  0.62840  0.13655  1.0000
  C   C14       1.0  0.58113  0.37160  0.86344  1.0000
  C   C15       1.0  0.44629  0.81297  0.14635  1.0000
  C   C16       1.0  0.55370  0.18703  0.85365  1.0000
  C   C17       1.0  0.14335  0.68195  0.05054  1.0000
  C   C18       1.0  0.85665  0.31805  0.94946  1.0000
  C   C19       1.0  0.13651  0.77937  0.05017  1.0000
  C   C20       1.0  0.86349  0.22062  0.94983  1.0000
  C   C21       1.0  0.32637  0.15669  0.44552  1.0000
  C   C22       1.0  0.67362  0.84332  0.55448  1.0000
  C   C23       1.0  0.48198  0.26665  0.48155  1.0000
  C   C24       1.0  0.51802  0.73336  0.51845  1.0000
  C   C25       1.0  0.41036  0.34808  0.46619  1.0000
  C   C26       1.0  0.58964  0.65192  0.53381  1.0000
  C   C27       1.0  0.54118  0.45611  0.50580  1.0000
  C   C28       1.0  0.45882  0.54389  0.49421  1.0000
  C   C29       1.0  0.75510  0.47641  0.55508  1.0000
  C   C30       1.0  0.24490  0.52359  0.44492  1.0000
  C   C31       1.0  0.82719  0.39519  0.56997  1.0000
  C   C32       1.0  0.17281  0.60480  0.43003  1.0000
  C   C33       1.0  0.69015  0.29143  0.53783  1.0000
  C   C34       1.0  0.30985  0.70856  0.46216  1.0000
  C   C35       1.0  0.76998  0.21083  0.56456  1.0000
  C   C36       1.0  0.23001  0.78917  0.43544  1.0000
  C   C37       1.0  0.93001  0.02134  0.05148  1.0000
  C   C38       1.0  0.06999  0.97866  0.94852  1.0000
  N   N1        1.0  0.53659  0.23202  0.19797  1.0000
  N   N2        1.0  0.46341  0.76798  0.80203  1.0000
  N   N3        1.0  0.58616  0.38747  0.18870  1.0000
  N   N4        1.0  0.41385  0.61253  0.81130  1.0000
  N   N5        1.0  0.34569  0.45048  0.11493  1.0000
  N   N6        1.0  0.65431  0.54952  0.88506  1.0000
  N   N7        1.0  0.28566  0.52745  0.09632  1.0000
  N   N8        1.0  0.71434  0.47254  0.90367  1.0000
  N   N9        1.0  0.34182  0.70398  0.11197  1.0000
  N   N10       1.0  0.65818  0.29602  0.88803  1.0000
  N   N11       1.0  0.32494  0.85984  0.10949  1.0000
  N   N12       1.0  0.67505  0.14016  0.89052  1.0000
  O   O1        1.0  0.25284  0.09041  0.34166  1.0000
  O   O2        1.0  0.74714  0.90959  0.65834  1.0000
  O   O3        1.0  0.27569  0.14177  0.52561  1.0000
  O   O4        1.0  0.72431  0.85823  0.47439  1.0000
  O   O5        1.0  0.84274  0.25139  0.66585  1.0000
  O   O6        1.0  0.15726  0.74860  0.33414  1.0000
  O   O7        1.0  0.76258  0.10785  0.48227  1.0000
  O   O8        1.0  0.23743  0.89215  0.51773  1.0000
  O   O9        1.0  0.71030  0.06062  0.27164  1.0000
  O   O10       1.0  0.28969  0.93938  0.72836  1.0000
  O   O11       1.0  0.03395  0.06649  0.14841  1.0000
  O   O12       1.0  0.96606  0.93352  0.85159  1.0000
  O   O13       1.0  0.72483  0.00834  0.03112  1.0000
  O   O14       1.0  0.27517  0.99165  0.96888  1.0000
  O   O15       1.0  0.99090  0.89526  0.30271  1.0000
  O   O16       1.0  0.00910  0.10474  0.69729  1.0000
