data_image0
_chemical_formula_structural       Nd4P8H48C24N4O44
_chemical_formula_sum              "Nd4 P8 H48 C24 N4 O44"
_cell_length_a       8.97896
_cell_length_b       12.6697
_cell_length_c       14.5674
_cell_angle_alpha    113.869
_cell_angle_beta     90
_cell_angle_gamma    90

_space_group_name_H-M_alt    "P 1"
_space_group_IT_number       1

loop_
  _space_group_symop_operation_xyz
  'x, y, z'

loop_
  _atom_site_type_symbol
  _atom_site_label
  _atom_site_symmetry_multiplicity
  _atom_site_fract_x
  _atom_site_fract_y
  _atom_site_fract_z
  _atom_site_occupancy
  Nd  Nd1       1.0  0.75260  0.90970  0.82991  1.0000
  Nd  Nd2       1.0  0.25260  0.09030  0.67009  1.0000
  Nd  Nd3       1.0  0.24740  0.09030  0.17009  1.0000
  Nd  Nd4       1.0  0.74741  0.90970  0.32991  1.0000
  P   P1        1.0  0.60424  0.18064  0.81362  1.0000
  P   P2        1.0  0.10424  0.81936  0.68638  1.0000
  P   P3        1.0  0.39575  0.81936  0.18638  1.0000
  P   P4        1.0  0.89575  0.18065  0.31363  1.0000
  P   P5        1.0  0.10973  0.39150  0.72629  1.0000
  P   P6        1.0  0.60973  0.60850  0.77371  1.0000
  P   P7        1.0  0.89027  0.60850  0.27371  1.0000
  P   P8        1.0  0.39027  0.39150  0.22629  1.0000
  H   H1        1.0  0.22636  0.41132  0.86198  1.0000
  H   H2        1.0  0.72636  0.58868  0.63802  1.0000
  H   H3        1.0  0.77364  0.58868  0.13802  1.0000
  H   H4        1.0  0.27364  0.41132  0.36198  1.0000
  H   H5        1.0  0.56388  0.87509  0.63838  1.0000
  H   H6        1.0  0.06388  0.12491  0.86162  1.0000
  H   H7        1.0  0.43612  0.12491  0.36162  1.0000
  H   H8        1.0  0.93612  0.87509  0.13837  1.0000
  H   H9        1.0  0.70224  0.79272  0.60786  1.0000
  H   H10       1.0  0.20224  0.20728  0.89214  1.0000
  H   H11       1.0  0.29777  0.20728  0.39215  1.0000
  H   H12       1.0  0.79776  0.79272  0.10786  1.0000
  H   H13       1.0  0.91312  0.22209  0.76154  1.0000
  H   H14       1.0  0.41313  0.77791  0.73846  1.0000
  H   H15       1.0  0.08687  0.77791  0.23846  1.0000
  H   H16       1.0  0.58688  0.22209  0.26154  1.0000
  H   H17       1.0  0.70184  0.19150  0.66189  1.0000
  H   H18       1.0  0.20185  0.80850  0.83811  1.0000
  H   H19       1.0  0.29815  0.80850  0.33811  1.0000
  H   H20       1.0  0.79816  0.19150  0.16189  1.0000
  H   H21       1.0  0.62635  0.32868  0.74771  1.0000
  H   H22       1.0  0.12635  0.67132  0.75229  1.0000
  H   H23       1.0  0.37364  0.67132  0.25229  1.0000
  H   H24       1.0  0.87364  0.32868  0.24771  1.0000
  H   H25       1.0  0.84465  0.44176  0.74603  1.0000
  H   H26       1.0  0.34464  0.55824  0.75397  1.0000
  H   H27       1.0  0.15536  0.55824  0.25397  1.0000
  H   H28       1.0  0.65535  0.44176  0.24604  1.0000
  H   H29       1.0  0.88578  0.31010  0.64159  1.0000
  H   H30       1.0  0.38578  0.68990  0.85841  1.0000
  H   H31       1.0  0.11422  0.68990  0.35841  1.0000
  H   H32       1.0  0.61422  0.31011  0.14159  1.0000
  H   H33       1.0  0.95856  0.39684  0.91241  1.0000
  H   H34       1.0  0.45856  0.60315  0.58759  1.0000
  H   H35       1.0  0.04144  0.60315  0.08759  1.0000
  H   H36       1.0  0.54144  0.39684  0.41241  1.0000
  H   H37       1.0  0.77330  0.44208  0.89905  1.0000
  H   H38       1.0  0.27330  0.55791  0.60095  1.0000
  H   H39       1.0  0.22669  0.55792  0.10095  1.0000
  H   H40       1.0  0.72669  0.44208  0.39905  1.0000
  H   H41       1.0  0.85235  0.22638  0.93904  1.0000
  H   H42       1.0  0.35236  0.77361  0.56096  1.0000
  H   H43       1.0  0.14764  0.77361  0.06096  1.0000
  H   H44       1.0  0.64764  0.22638  0.43904  1.0000
  H   H45       1.0  0.79094  0.36245  0.03006  1.0000
  H   H46       1.0  0.29094  0.63754  0.46994  1.0000
  H   H47       1.0  0.20905  0.63755  0.96994  1.0000
  H   H48       1.0  0.70905  0.36245  0.53006  1.0000
  C   C1        1.0  0.69165  0.25248  0.74075  1.0000
  C   C2        1.0  0.19165  0.74752  0.75926  1.0000
  C   C3        1.0  0.30835  0.74752  0.25926  1.0000
  C   C4        1.0  0.80835  0.25248  0.24074  1.0000
  C   C5        1.0  0.90867  0.36130  0.72151  1.0000
  C   C6        1.0  0.40867  0.63870  0.77850  1.0000
  C   C7        1.0  0.09133  0.63870  0.27850  1.0000
  C   C8        1.0  0.59133  0.36130  0.22150  1.0000
  C   C9        1.0  0.84435  0.36785  0.89002  1.0000
  C   C10       1.0  0.34435  0.63215  0.60998  1.0000
  C   C11       1.0  0.15565  0.63215  0.10998  1.0000
  C   C12       1.0  0.65564  0.36785  0.39002  1.0000
  C   C13       1.0  0.78616  0.30368  0.95052  1.0000
  C   C14       1.0  0.28616  0.69632  0.54948  1.0000
  C   C15       1.0  0.21384  0.69632  0.04947  1.0000
  C   C16       1.0  0.71384  0.30368  0.45053  1.0000
  C   C17       1.0  0.98097  0.94930  0.01478  1.0000
  C   C18       1.0  0.48098  0.05070  0.48522  1.0000
  C   C19       1.0  0.01903  0.05069  0.98522  1.0000
  C   C20       1.0  0.51903  0.94931  0.51478  1.0000
  C   C21       1.0  0.55836  0.03879  0.03893  1.0000
  C   C22       1.0  0.05837  0.96122  0.46107  1.0000
  C   C23       1.0  0.44164  0.96121  0.96107  1.0000
  C   C24       1.0  0.94164  0.03879  0.53893  1.0000
  N   N1        1.0  0.84672  0.29468  0.77843  1.0000
  N   N2        1.0  0.34672  0.70532  0.72157  1.0000
  N   N3        1.0  0.15327  0.70532  0.22157  1.0000
  N   N4        1.0  0.65327  0.29468  0.27843  1.0000
  O   O1        1.0  0.43814  0.17490  0.79702  1.0000
  O   O2        1.0  0.93814  0.82510  0.70298  1.0000
  O   O3        1.0  0.56186  0.82510  0.20297  1.0000
  O   O4        1.0  0.06186  0.17490  0.29703  1.0000
  O   O5        1.0  0.68939  0.07048  0.79274  1.0000
  O   O6        1.0  0.18939  0.92952  0.70726  1.0000
  O   O7        1.0  0.31061  0.92952  0.20727  1.0000
  O   O8        1.0  0.81061  0.07048  0.29273  1.0000
  O   O9        1.0  0.63075  0.27171  0.92770  1.0000
  O   O10       1.0  0.13075  0.72829  0.57230  1.0000
  O   O11       1.0  0.36925  0.72829  0.07230  1.0000
  O   O12       1.0  0.86925  0.27171  0.42770  1.0000
  O   O13       1.0  0.19516  0.27886  0.68883  1.0000
  O   O14       1.0  0.69516  0.72114  0.81117  1.0000
  O   O15       1.0  0.80484  0.72114  0.31117  1.0000
  O   O16       1.0  0.30484  0.27886  0.18883  1.0000
  O   O17       1.0  0.15189  0.45743  0.84596  1.0000
  O   O18       1.0  0.65189  0.54257  0.65404  1.0000
  O   O19       1.0  0.84811  0.54257  0.15404  1.0000
  O   O20       1.0  0.34811  0.45743  0.34596  1.0000
  O   O21       1.0  0.12632  0.47316  0.67656  1.0000
  O   O22       1.0  0.62632  0.52684  0.82344  1.0000
  O   O23       1.0  0.87368  0.52684  0.32344  1.0000
  O   O24       1.0  0.37368  0.47316  0.17656  1.0000
  O   O25       1.0  0.03107  0.95815  0.09973  1.0000
  O   O26       1.0  0.53108  0.04185  0.40026  1.0000
  O   O27       1.0  0.96893  0.04184  0.90027  1.0000
  O   O28       1.0  0.46893  0.95816  0.59973  1.0000
  O   O29       1.0  0.90496  0.86702  0.95504  1.0000
  O   O30       1.0  0.40496  0.13297  0.54496  1.0000
  O   O31       1.0  0.09505  0.13297  0.04496  1.0000
  O   O32       1.0  0.59505  0.86703  0.45504  1.0000
  O   O33       1.0  0.51532  0.08818  0.12951  1.0000
  O   O34       1.0  0.01532  0.91182  0.37049  1.0000
  O   O35       1.0  0.48468  0.91182  0.87050  1.0000
  O   O36       1.0  0.98468  0.08818  0.62950  1.0000
  O   O37       1.0  0.68592  0.04673  0.00586  1.0000
  O   O38       1.0  0.18592  0.95327  0.49414  1.0000
  O   O39       1.0  0.31408  0.95327  0.99414  1.0000
  O   O40       1.0  0.81408  0.04673  0.50586  1.0000
  O   O41       1.0  0.62435  0.82077  0.65875  1.0000
  O   O42       1.0  0.12435  0.17923  0.84125  1.0000
  O   O43       1.0  0.37565  0.17923  0.34125  1.0000
  O   O44       1.0  0.87565  0.82077  0.15875  1.0000
