data_image0
_chemical_formula_structural       Sm4P8H48C24N4O44
_chemical_formula_sum              "Sm4 P8 H48 C24 N4 O44"
_cell_length_a       8.9061
_cell_length_b       12.628
_cell_length_c       14.5187
_cell_angle_alpha    113.807
_cell_angle_beta     90
_cell_angle_gamma    90

_space_group_name_H-M_alt    "P 1"
_space_group_IT_number       1

loop_
  _space_group_symop_operation_xyz
  'x, y, z'

loop_
  _atom_site_type_symbol
  _atom_site_label
  _atom_site_symmetry_multiplicity
  _atom_site_fract_x
  _atom_site_fract_y
  _atom_site_fract_z
  _atom_site_occupancy
  Sm  Sm1       1.0  0.75232  0.91030  0.83160  1.0000
  Sm  Sm2       1.0  0.25233  0.08970  0.66840  1.0000
  Sm  Sm3       1.0  0.24767  0.08970  0.16840  1.0000
  Sm  Sm4       1.0  0.74768  0.91030  0.33160  1.0000
  P   P1        1.0  0.60246  0.17898  0.81365  1.0000
  P   P2        1.0  0.10247  0.82102  0.68635  1.0000
  P   P3        1.0  0.39753  0.82102  0.18635  1.0000
  P   P4        1.0  0.89753  0.17898  0.31365  1.0000
  P   P5        1.0  0.11209  0.38982  0.72594  1.0000
  P   P6        1.0  0.61209  0.61018  0.77406  1.0000
  P   P7        1.0  0.88791  0.61018  0.27406  1.0000
  P   P8        1.0  0.38791  0.38982  0.22594  1.0000
  H   H1        1.0  0.23182  0.41013  0.86155  1.0000
  H   H2        1.0  0.73182  0.58987  0.63845  1.0000
  H   H3        1.0  0.76818  0.58987  0.13845  1.0000
  H   H4        1.0  0.26818  0.41013  0.36155  1.0000
  H   H5        1.0  0.56343  0.87672  0.64096  1.0000
  H   H6        1.0  0.06343  0.12328  0.85904  1.0000
  H   H7        1.0  0.43656  0.12327  0.35904  1.0000
  H   H8        1.0  0.93657  0.87673  0.14096  1.0000
  H   H9        1.0  0.70351  0.79439  0.61265  1.0000
  H   H10       1.0  0.20351  0.20561  0.88735  1.0000
  H   H11       1.0  0.29649  0.20561  0.38735  1.0000
  H   H12       1.0  0.79649  0.79439  0.11265  1.0000
  H   H13       1.0  0.91469  0.22152  0.76285  1.0000
  H   H14       1.0  0.41470  0.77848  0.73715  1.0000
  H   H15       1.0  0.08530  0.77848  0.23715  1.0000
  H   H16       1.0  0.58530  0.22152  0.26285  1.0000
  H   H17       1.0  0.70235  0.18974  0.66154  1.0000
  H   H18       1.0  0.20236  0.81026  0.83846  1.0000
  H   H19       1.0  0.29765  0.81026  0.33847  1.0000
  H   H20       1.0  0.79765  0.18974  0.16153  1.0000
  H   H21       1.0  0.62490  0.32681  0.74721  1.0000
  H   H22       1.0  0.12490  0.67319  0.75279  1.0000
  H   H23       1.0  0.37510  0.67319  0.25279  1.0000
  H   H24       1.0  0.87510  0.32681  0.24721  1.0000
  H   H25       1.0  0.84519  0.44104  0.74604  1.0000
  H   H26       1.0  0.34519  0.55896  0.75396  1.0000
  H   H27       1.0  0.15481  0.55896  0.25396  1.0000
  H   H28       1.0  0.65481  0.44104  0.24604  1.0000
  H   H29       1.0  0.88640  0.30874  0.64151  1.0000
  H   H30       1.0  0.38640  0.69126  0.85849  1.0000
  H   H31       1.0  0.11360  0.69126  0.35849  1.0000
  H   H32       1.0  0.61360  0.30874  0.14151  1.0000
  H   H33       1.0  0.95921  0.39621  0.91342  1.0000
  H   H34       1.0  0.45921  0.60379  0.58658  1.0000
  H   H35       1.0  0.04079  0.60379  0.08658  1.0000
  H   H36       1.0  0.54079  0.39621  0.41342  1.0000
  H   H37       1.0  0.77319  0.44249  0.89929  1.0000
  H   H38       1.0  0.27319  0.55751  0.60071  1.0000
  H   H39       1.0  0.22681  0.55751  0.10071  1.0000
  H   H40       1.0  0.72681  0.44249  0.39929  1.0000
  H   H41       1.0  0.85050  0.22640  0.94075  1.0000
  H   H42       1.0  0.35050  0.77360  0.55925  1.0000
  H   H43       1.0  0.14950  0.77360  0.05925  1.0000
  H   H44       1.0  0.64950  0.22640  0.44075  1.0000
  H   H45       1.0  0.78786  0.36314  0.03117  1.0000
  H   H46       1.0  0.28786  0.63686  0.46883  1.0000
  H   H47       1.0  0.21214  0.63686  0.96883  1.0000
  H   H48       1.0  0.71214  0.36314  0.53117  1.0000
  C   C1        1.0  0.69128  0.25076  0.74056  1.0000
  C   C2        1.0  0.19128  0.74924  0.75944  1.0000
  C   C3        1.0  0.30872  0.74924  0.25944  1.0000
  C   C4        1.0  0.80872  0.25076  0.24056  1.0000
  C   C5        1.0  0.90951  0.36028  0.72159  1.0000
  C   C6        1.0  0.40951  0.63972  0.77841  1.0000
  C   C7        1.0  0.09049  0.63972  0.27841  1.0000
  C   C8        1.0  0.59049  0.36028  0.22159  1.0000
  C   C9        1.0  0.84394  0.36772  0.89073  1.0000
  C   C10       1.0  0.34394  0.63228  0.60927  1.0000
  C   C11       1.0  0.15606  0.63228  0.10927  1.0000
  C   C12       1.0  0.65606  0.36772  0.39073  1.0000
  C   C13       1.0  0.78396  0.30381  0.95151  1.0000
  C   C14       1.0  0.28396  0.69619  0.54849  1.0000
  C   C15       1.0  0.21604  0.69619  0.04849  1.0000
  C   C16       1.0  0.71604  0.30381  0.45151  1.0000
  C   C17       1.0  0.98083  0.94940  0.01504  1.0000
  C   C18       1.0  0.48084  0.05060  0.48495  1.0000
  C   C19       1.0  0.01917  0.05060  0.98495  1.0000
  C   C20       1.0  0.51918  0.94940  0.51504  1.0000
  C   C21       1.0  0.55846  0.03888  0.03892  1.0000
  C   C22       1.0  0.05846  0.96112  0.46108  1.0000
  C   C23       1.0  0.44154  0.96112  0.96108  1.0000
  C   C24       1.0  0.94154  0.03888  0.53892  1.0000
  N   N1        1.0  0.84704  0.29379  0.77898  1.0000
  N   N2        1.0  0.34704  0.70621  0.72102  1.0000
  N   N3        1.0  0.15296  0.70621  0.22103  1.0000
  N   N4        1.0  0.65296  0.29379  0.27898  1.0000
  O   O1        1.0  0.43535  0.17255  0.79521  1.0000
  O   O2        1.0  0.93535  0.82745  0.70479  1.0000
  O   O3        1.0  0.56465  0.82746  0.20479  1.0000
  O   O4        1.0  0.06465  0.17255  0.29521  1.0000
  O   O5        1.0  0.68830  0.06899  0.79462  1.0000
  O   O6        1.0  0.18831  0.93100  0.70538  1.0000
  O   O7        1.0  0.31169  0.93101  0.20538  1.0000
  O   O8        1.0  0.81169  0.06899  0.29462  1.0000
  O   O9        1.0  0.62733  0.27150  0.92778  1.0000
  O   O10       1.0  0.12733  0.72850  0.57222  1.0000
  O   O11       1.0  0.37267  0.72850  0.07222  1.0000
  O   O12       1.0  0.87267  0.27150  0.42778  1.0000
  O   O13       1.0  0.19794  0.27673  0.68811  1.0000
  O   O14       1.0  0.69794  0.72327  0.81189  1.0000
  O   O15       1.0  0.80206  0.72327  0.31189  1.0000
  O   O16       1.0  0.30206  0.27673  0.18812  1.0000
  O   O17       1.0  0.15512  0.45563  0.84590  1.0000
  O   O18       1.0  0.65513  0.54437  0.65410  1.0000
  O   O19       1.0  0.84487  0.54437  0.15410  1.0000
  O   O20       1.0  0.34488  0.45563  0.34590  1.0000
  O   O21       1.0  0.12853  0.47173  0.67594  1.0000
  O   O22       1.0  0.62853  0.52827  0.82406  1.0000
  O   O23       1.0  0.87146  0.52827  0.32406  1.0000
  O   O24       1.0  0.37146  0.47173  0.17594  1.0000
  O   O25       1.0  0.03266  0.95816  0.09995  1.0000
  O   O26       1.0  0.53266  0.04184  0.40005  1.0000
  O   O27       1.0  0.96733  0.04184  0.90005  1.0000
  O   O28       1.0  0.46735  0.95816  0.59995  1.0000
  O   O29       1.0  0.90298  0.86734  0.95573  1.0000
  O   O30       1.0  0.40298  0.13266  0.54426  1.0000
  O   O31       1.0  0.09703  0.13266  0.04426  1.0000
  O   O32       1.0  0.59703  0.86734  0.45574  1.0000
  O   O33       1.0  0.51430  0.08915  0.12949  1.0000
  O   O34       1.0  0.01431  0.91086  0.37052  1.0000
  O   O35       1.0  0.48569  0.91085  0.87051  1.0000
  O   O36       1.0  0.98570  0.08915  0.62950  1.0000
  O   O37       1.0  0.68741  0.04616  0.00588  1.0000
  O   O38       1.0  0.18742  0.95385  0.49412  1.0000
  O   O39       1.0  0.31259  0.95384  0.99412  1.0000
  O   O40       1.0  0.81259  0.04616  0.50589  1.0000
  O   O41       1.0  0.62349  0.82283  0.66258  1.0000
  O   O42       1.0  0.12349  0.17717  0.83742  1.0000
  O   O43       1.0  0.37650  0.17717  0.33742  1.0000
  O   O44       1.0  0.87651  0.82283  0.16258  1.0000
