data_image0
_chemical_formula_structural       Ca2H40C64N8O16
_chemical_formula_sum              "Ca2 H40 C64 N8 O16"
_cell_length_a       8.11261
_cell_length_b       12.8353
_cell_length_c       15.2467
_cell_angle_alpha    71.9955
_cell_angle_beta     74.9026
_cell_angle_gamma    76.0312

_space_group_name_H-M_alt    "P 1"
_space_group_IT_number       1

loop_
  _space_group_symop_operation_xyz
  'x, y, z'

loop_
  _atom_site_type_symbol
  _atom_site_label
  _atom_site_symmetry_multiplicity
  _atom_site_fract_x
  _atom_site_fract_y
  _atom_site_fract_z
  _atom_site_occupancy
  Ca  Ca1       1.0  0.24023  0.42202  0.01579  1.0000
  Ca  Ca2       1.0  0.75976  0.57798  0.98421  1.0000
  H   H1        1.0  0.62798  0.30020  0.25993  1.0000
  H   H2        1.0  0.37203  0.69980  0.74007  1.0000
  H   H3        1.0  0.55489  0.43210  0.28470  1.0000
  H   H4        1.0  0.44511  0.56790  0.71530  1.0000
  H   H5        1.0  0.15682  0.03852  0.47080  1.0000
  H   H6        1.0  0.84318  0.96148  0.52920  1.0000
  H   H7        1.0  0.90789  0.06810  0.60341  1.0000
  H   H8        1.0  0.09211  0.93191  0.39659  1.0000
  H   H9        1.0  0.80288  0.25421  0.63276  1.0000
  H   H10       1.0  0.19712  0.74579  0.36724  1.0000
  H   H11       1.0  0.94050  0.41516  0.53324  1.0000
  H   H12       1.0  0.05951  0.58484  0.46676  1.0000
  H   H13       1.0  0.89707  0.37626  0.81112  1.0000
  H   H14       1.0  0.10293  0.62374  0.18888  1.0000
  H   H15       1.0  0.98409  0.49913  0.75381  1.0000
  H   H16       1.0  0.01591  0.50087  0.24619  1.0000
  H   H17       1.0  0.55279  0.40086  0.48667  1.0000
  H   H18       1.0  0.44721  0.59914  0.51333  1.0000
  H   H19       1.0  0.68686  0.22568  0.43920  1.0000
  H   H20       1.0  0.31314  0.77432  0.56080  1.0000
  H   H21       1.0  0.58243  0.04855  0.52902  1.0000
  H   H22       1.0  0.41757  0.95145  0.47097  1.0000
  H   H23       1.0  0.34512  0.04098  0.67045  1.0000
  H   H24       1.0  0.65488  0.95902  0.32955  1.0000
  H   H25       1.0  0.88323  0.31737  0.13919  1.0000
  H   H26       1.0  0.11677  0.68263  0.86081  1.0000
  H   H27       1.0  0.77447  0.13828  0.22517  1.0000
  H   H28       1.0  0.22553  0.86172  0.77483  1.0000
  H   H29       1.0  0.98771  0.95932  0.23848  1.0000
  H   H30       1.0  0.01229  0.04068  0.76152  1.0000
  H   H31       1.0  0.68165  0.34101  0.95825  1.0000
  H   H32       1.0  0.31835  0.65899  0.04175  1.0000
  H   H33       1.0  0.91583  0.17311  0.96533  1.0000
  H   H34       1.0  0.08417  0.82689  0.03467  1.0000
  H   H35       1.0  0.83605  0.98453  0.05303  1.0000
  H   H36       1.0  0.16395  0.01547  0.94697  1.0000
  H   H37       1.0  0.29388  0.86196  0.20601  1.0000
  H   H38       1.0  0.70612  0.13804  0.79399  1.0000
  H   H39       1.0  0.60405  0.87048  0.13635  1.0000
  H   H40       1.0  0.39594  0.12952  0.86365  1.0000
  C   C1        1.0  0.48684  0.42198  0.16039  1.0000
  C   C2        1.0  0.51316  0.57802  0.83961  1.0000
  C   C3        1.0  0.51851  0.36962  0.26110  1.0000
  C   C4        1.0  0.48150  0.63038  0.73890  1.0000
  C   C5        1.0  0.34675  0.21782  0.35300  1.0000
  C   C6        1.0  0.65325  0.78218  0.64699  1.0000
  C   C7        1.0  0.18828  0.21080  0.42926  1.0000
  C   C8        1.0  0.81172  0.78920  0.57074  1.0000
  C   C9        1.0  0.10980  0.12034  0.48390  1.0000
  C   C10       1.0  0.89020  0.87966  0.51610  1.0000
  C   C11       1.0  0.97078  0.13751  0.55790  1.0000
  C   C12       1.0  0.02922  0.86249  0.44210  1.0000
  C   C13       1.0  0.91151  0.24266  0.57500  1.0000
  C   C14       1.0  0.08849  0.75735  0.42500  1.0000
  C   C15       1.0  0.98868  0.33416  0.51859  1.0000
  C   C16       1.0  0.01133  0.66585  0.48141  1.0000
  C   C17       1.0  0.12792  0.31591  0.44647  1.0000
  C   C18       1.0  0.87208  0.68409  0.55353  1.0000
  C   C19       1.0  0.24469  0.39248  0.38076  1.0000
  C   C20       1.0  0.75531  0.60752  0.61924  1.0000
  C   C21       1.0  0.09386  0.39783  0.87334  1.0000
  C   C22       1.0  0.90614  0.60217  0.12666  1.0000
  C   C23       1.0  0.01752  0.41040  0.78796  1.0000
  C   C24       1.0  0.98249  0.58960  0.21204  1.0000
  C   C25       1.0  0.26080  0.40749  0.64817  1.0000
  C   C26       1.0  0.73920  0.59250  0.35183  1.0000
  C   C27       1.0  0.36997  0.31847  0.60421  1.0000
  C   C28       1.0  0.63003  0.68153  0.39579  1.0000
  C   C29       1.0  0.50548  0.32370  0.52667  1.0000
  C   C30       1.0  0.49452  0.67630  0.47333  1.0000
  C   C31       1.0  0.58052  0.22437  0.50023  1.0000
  C   C32       1.0  0.41948  0.77563  0.49977  1.0000
  C   C33       1.0  0.52251  0.12443  0.55095  1.0000
  C   C34       1.0  0.47749  0.87557  0.44905  1.0000
  C   C35       1.0  0.38718  0.11956  0.63031  1.0000
  C   C36       1.0  0.61282  0.88044  0.36969  1.0000
  C   C37       1.0  0.31155  0.21811  0.65507  1.0000
  C   C38       1.0  0.68845  0.78189  0.34493  1.0000
  C   C39       1.0  0.16414  0.24167  0.73186  1.0000
  C   C40       1.0  0.83587  0.75832  0.26814  1.0000
  C   C41       1.0  0.97382  0.23821  0.14985  1.0000
  C   C42       1.0  0.02618  0.76179  0.85015  1.0000
  C   C43       1.0  0.91297  0.13770  0.19778  1.0000
  C   C44       1.0  0.08703  0.86230  0.80222  1.0000
  C   C45       1.0  0.03073  0.03916  0.20595  1.0000
  C   C46       1.0  0.96927  0.96084  0.79405  1.0000
  C   C47       1.0  0.20860  0.04117  0.16726  1.0000
  C   C48       1.0  0.79140  0.95883  0.83274  1.0000
  C   C49       1.0  0.25835  0.14682  0.12060  1.0000
  C   C50       1.0  0.74164  0.85318  0.87940  1.0000
  C   C51       1.0  0.65082  0.25796  0.99399  1.0000
  C   C52       1.0  0.34918  0.74204  0.00602  1.0000
  C   C53       1.0  0.78250  0.16336  0.99900  1.0000
  C   C54       1.0  0.21750  0.83664  0.00100  1.0000
  C   C55       1.0  0.73830  0.06008  0.04608  1.0000
  C   C56       1.0  0.26170  0.93992  0.95392  1.0000
  C   C57       1.0  0.56300  0.05155  0.08720  1.0000
  C   C58       1.0  0.43700  0.94845  0.91280  1.0000
  C   C59       1.0  0.43925  0.15212  0.07898  1.0000
  C   C60       1.0  0.56075  0.84788  0.92102  1.0000
  C   C61       1.0  0.33672  0.94185  0.17221  1.0000
  C   C62       1.0  0.66328  0.05815  0.82779  1.0000
  C   C63       1.0  0.50761  0.94662  0.13390  1.0000
  C   C64       1.0  0.49239  0.05338  0.86610  1.0000
  N   N1        1.0  0.37271  0.32801  0.32857  1.0000
  N   N2        1.0  0.62729  0.67199  0.67143  1.0000
  N   N3        1.0  0.13639  0.35625  0.72068  1.0000
  N   N4        1.0  0.86362  0.64375  0.27933  1.0000
  N   N5        1.0  0.14063  0.24305  0.11254  1.0000
  N   N6        1.0  0.85937  0.75695  0.88746  1.0000
  N   N7        1.0  0.48458  0.25322  0.03264  1.0000
  N   N8        1.0  0.51542  0.74678  0.96737  1.0000
  O   O1        1.0  0.33702  0.43319  0.14552  1.0000
  O   O2        1.0  0.66298  0.56680  0.85448  1.0000
  O   O3        1.0  0.61993  0.44994  0.09987  1.0000
  O   O4        1.0  0.38007  0.55006  0.90013  1.0000
  O   O5        1.0  0.44317  0.14428  0.31883  1.0000
  O   O6        1.0  0.55682  0.85572  0.68117  1.0000
  O   O7        1.0  0.23958  0.49133  0.37237  1.0000
  O   O8        1.0  0.76043  0.50867  0.62763  1.0000
  O   O9        1.0  0.99725  0.44762  0.93484  1.0000
  O   O10       1.0  0.00274  0.55238  0.06516  1.0000
  O   O11       1.0  0.24315  0.34338  0.87987  1.0000
  O   O12       1.0  0.75684  0.65662  0.12014  1.0000
  O   O13       1.0  0.27012  0.50636  0.62876  1.0000
  O   O14       1.0  0.72988  0.49364  0.37124  1.0000
  O   O15       1.0  0.07875  0.17752  0.79433  1.0000
  O   O16       1.0  0.92125  0.82248  0.20567  1.0000
