data_image0
_chemical_formula_structural       Ca2H48C68N8O16
_chemical_formula_sum              "Ca2 H48 C68 N8 O16"
_cell_length_a       7.96609
_cell_length_b       10.638
_cell_length_c       17.9955
_cell_angle_alpha    73.503
_cell_angle_beta     79.9397
_cell_angle_gamma    85.0739

_space_group_name_H-M_alt    "P 1"
_space_group_IT_number       1

loop_
  _space_group_symop_operation_xyz
  'x, y, z'

loop_
  _atom_site_type_symbol
  _atom_site_label
  _atom_site_symmetry_multiplicity
  _atom_site_fract_x
  _atom_site_fract_y
  _atom_site_fract_z
  _atom_site_occupancy
  Ca  Ca1       1.0  0.23025  0.42194  0.48585  1.0000
  Ca  Ca2       1.0  0.76976  0.57806  0.51415  1.0000
  H   H1        1.0  0.61263  0.28740  0.54325  1.0000
  H   H2        1.0  0.38737  0.71259  0.45675  1.0000
  H   H3        1.0  0.84955  0.12683  0.51983  1.0000
  H   H4        1.0  0.15045  0.87317  0.48017  1.0000
  H   H5        1.0  0.82554  0.99138  0.42702  1.0000
  H   H6        1.0  0.17446  0.00862  0.57298  1.0000
  H   H7        1.0  0.66190  0.93921  0.33601  1.0000
  H   H8        1.0  0.33810  0.06079  0.66399  1.0000
  H   H9        1.0  0.40345  0.97947  0.26892  1.0000
  H   H10       1.0  0.59655  0.02053  0.73108  1.0000
  H   H11       1.0  0.12978  0.10010  0.24644  1.0000
  H   H12       1.0  0.87022  0.89990  0.75356  1.0000
  H   H13       1.0  0.90957  0.27098  0.27540  1.0000
  H   H14       1.0  0.09043  0.72902  0.72460  1.0000
  H   H15       1.0  0.95179  0.38685  0.37428  1.0000
  H   H16       1.0  0.04821  0.61315  0.62572  1.0000
  H   H17       1.0  0.89680  0.37569  0.71684  1.0000
  H   H18       1.0  0.10320  0.62431  0.28316  1.0000
  H   H19       1.0  0.77356  0.25364  0.70796  1.0000
  H   H20       1.0  0.22644  0.74636  0.29204  1.0000
  H   H21       1.0  0.00966  0.08365  0.74698  1.0000
  H   H22       1.0  0.99034  0.91635  0.25302  1.0000
  H   H23       1.0  0.13199  0.20853  0.75610  1.0000
  H   H24       1.0  0.86801  0.79146  0.24390  1.0000
  H   H25       1.0  0.97770  0.23546  0.05464  1.0000
  H   H26       1.0  0.02230  0.76454  0.94536  1.0000
  H   H27       1.0  0.79613  0.09821  0.17068  1.0000
  H   H28       1.0  0.20388  0.90179  0.82932  1.0000
  H   H29       1.0  0.61469  0.93002  0.15643  1.0000
  H   H30       1.0  0.38532  0.06998  0.84357  1.0000
  H   H31       1.0  0.60682  0.89984  0.02493  1.0000
  H   H32       1.0  0.39318  0.10017  0.97507  1.0000
  H   H33       1.0  0.63625  0.66057  0.24987  1.0000
  H   H34       1.0  0.36375  0.33943  0.75013  1.0000
  H   H35       1.0  0.79032  0.53033  0.26744  1.0000
  H   H36       1.0  0.20968  0.46966  0.73256  1.0000
  H   H37       1.0  0.57591  0.37252  0.26608  1.0000
  H   H38       1.0  0.42408  0.62748  0.73392  1.0000
  H   H39       1.0  0.41345  0.50009  0.26006  1.0000
  H   H40       1.0  0.58655  0.49991  0.73993  1.0000
  H   H41       1.0  0.46179  0.78243  0.95519  1.0000
  H   H42       1.0  0.53820  0.21757  0.04481  1.0000
  H   H43       1.0  0.63019  0.74388  0.83290  1.0000
  H   H44       1.0  0.36980  0.25611  0.16710  1.0000
  H   H45       1.0  0.85631  0.56703  0.83944  1.0000
  H   H46       1.0  0.14368  0.43297  0.16056  1.0000
  H   H47       1.0  0.91718  0.42411  0.96744  1.0000
  H   H48       1.0  0.08282  0.57590  0.03256  1.0000
  C   C1        1.0  0.60602  0.22804  0.50333  1.0000
  C   C2        1.0  0.39399  0.77196  0.49667  1.0000
  C   C3        1.0  0.73938  0.13745  0.48982  1.0000
  C   C4        1.0  0.26063  0.86255  0.51018  1.0000
  C   C5        1.0  0.72719  0.06446  0.43869  1.0000
  C   C6        1.0  0.27281  0.93554  0.56131  1.0000
  C   C7        1.0  0.58241  0.08391  0.40041  1.0000
  C   C8        1.0  0.41759  0.91609  0.59959  1.0000
  C   C9        1.0  0.45385  0.17746  0.41788  1.0000
  C   C10       1.0  0.54615  0.82254  0.58212  1.0000
  C   C11       1.0  0.56214  0.01227  0.34625  1.0000
  C   C12       1.0  0.43786  0.98773  0.65375  1.0000
  C   C13       1.0  0.42052  0.03310  0.31034  1.0000
  C   C14       1.0  0.57947  0.96690  0.68966  1.0000
  C   C15       1.0  0.30411  0.19974  0.37965  1.0000
  C   C16       1.0  0.69589  0.80026  0.62035  1.0000
  C   C17       1.0  0.28879  0.12694  0.32606  1.0000
  C   C18       1.0  0.71120  0.87306  0.67394  1.0000
  C   C19       1.0  0.14200  0.15292  0.28892  1.0000
  C   C20       1.0  0.85800  0.84708  0.71108  1.0000
  C   C21       1.0  0.02123  0.24678  0.30496  1.0000
  C   C22       1.0  0.97877  0.75322  0.69504  1.0000
  C   C23       1.0  0.04651  0.31343  0.35922  1.0000
  C   C24       1.0  0.95349  0.68657  0.64078  1.0000
  C   C25       1.0  0.99452  0.29972  0.61915  1.0000
  C   C26       1.0  0.00549  0.70028  0.38085  1.0000
  C   C27       1.0  0.90601  0.28036  0.70362  1.0000
  C   C28       1.0  0.09399  0.71964  0.29638  1.0000
  C   C29       1.0  0.00151  0.17792  0.76113  1.0000
  C   C30       1.0  0.99849  0.82207  0.23887  1.0000
  C   C31       1.0  0.97692  0.21493  0.89505  1.0000
  C   C32       1.0  0.02308  0.78508  0.10494  1.0000
  C   C33       1.0  0.88559  0.14884  0.97436  1.0000
  C   C34       1.0  0.11441  0.85116  0.02564  1.0000
  C   C35       1.0  0.89551  0.16460  0.04736  1.0000
  C   C36       1.0  0.10450  0.83540  0.95264  1.0000
  C   C37       1.0  0.79453  0.08520  0.11290  1.0000
  C   C38       1.0  0.20547  0.91480  0.88710  1.0000
  C   C39       1.0  0.69171  0.99114  0.10489  1.0000
  C   C40       1.0  0.30829  0.00886  0.89511  1.0000
  C   C41       1.0  0.68501  0.97419  0.03096  1.0000
  C   C42       1.0  0.31499  0.02581  0.96904  1.0000
  C   C43       1.0  0.78168  0.05534  0.96629  1.0000
  C   C44       1.0  0.21832  0.94466  0.03371  1.0000
  C   C45       1.0  0.80526  0.06004  0.88170  1.0000
  C   C46       1.0  0.19474  0.93995  0.11830  1.0000
  C   C47       1.0  0.59514  0.53602  0.36673  1.0000
  C   C48       1.0  0.40486  0.46398  0.63327  1.0000
  C   C49       1.0  0.65383  0.55544  0.27921  1.0000
  C   C50       1.0  0.34617  0.44456  0.72078  1.0000
  C   C51       1.0  0.55010  0.47861  0.24439  1.0000
  C   C52       1.0  0.44990  0.52139  0.75562  1.0000
  C   C53       1.0  0.51584  0.62168  0.11056  1.0000
  C   C54       1.0  0.48415  0.37832  0.88944  1.0000
  C   C55       1.0  0.59545  0.62371  0.02930  1.0000
  C   C56       1.0  0.40454  0.37630  0.97070  1.0000
  C   C57       1.0  0.56034  0.70461  0.95813  1.0000
  C   C58       1.0  0.43965  0.29539  0.04187  1.0000
  C   C59       1.0  0.65552  0.68201  0.88963  1.0000
  C   C60       1.0  0.34447  0.31799  0.11037  1.0000
  C   C61       1.0  0.78228  0.58210  0.89333  1.0000
  C   C62       1.0  0.21772  0.41790  0.10666  1.0000
  C   C63       1.0  0.81739  0.50078  0.96568  1.0000
  C   C64       1.0  0.18261  0.49922  0.03432  1.0000
  C   C65       1.0  0.72132  0.52248  0.03332  1.0000
  C   C66       1.0  0.27868  0.47752  0.96668  1.0000
  C   C67       1.0  0.72123  0.45219  0.11772  1.0000
  C   C68       1.0  0.27877  0.54781  0.88228  1.0000
  N   N1        1.0  0.46702  0.24749  0.46907  1.0000
  N   N2        1.0  0.53298  0.75251  0.53093  1.0000
  N   N3        1.0  0.18303  0.29110  0.39540  1.0000
  N   N4        1.0  0.81697  0.70891  0.60460  1.0000
  N   N5        1.0  0.92564  0.15497  0.84314  1.0000
  N   N6        1.0  0.07436  0.84503  0.15686  1.0000
  N   N7        1.0  0.59120  0.51356  0.15962  1.0000
  N   N8        1.0  0.40880  0.48645  0.84038  1.0000
  O   O1        1.0  0.11805  0.22403  0.60291  1.0000
  O   O2        1.0  0.88195  0.77597  0.39709  1.0000
  O   O3        1.0  0.94284  0.39724  0.56633  1.0000
  O   O4        1.0  0.05717  0.60276  0.43367  1.0000
  O   O5        1.0  0.07898  0.30307  0.87603  1.0000
  O   O6        1.0  0.92102  0.69693  0.12397  1.0000
  O   O7        1.0  0.73946  0.99392  0.84940  1.0000
  O   O8        1.0  0.26054  0.00608  0.15060  1.0000
  O   O9        1.0  0.43588  0.54460  0.39013  1.0000
  O   O10       1.0  0.56412  0.45539  0.60987  1.0000
  O   O11       1.0  0.70994  0.51461  0.41023  1.0000
  O   O12       1.0  0.29006  0.48539  0.58976  1.0000
  O   O13       1.0  0.40720  0.69686  0.13385  1.0000
  O   O14       1.0  0.59280  0.30314  0.86615  1.0000
  O   O15       1.0  0.81089  0.35852  0.14826  1.0000
  O   O16       1.0  0.18912  0.64149  0.85173  1.0000
