data_image0
_chemical_formula_structural       Ag4H52C44S4N8O20
_chemical_formula_sum              "Ag4 H52 C44 S4 N8 O20"
_cell_length_a       6.94737
_cell_length_b       11.5289
_cell_length_c       17.1007
_cell_angle_alpha    104.96
_cell_angle_beta     90
_cell_angle_gamma    90

_space_group_name_H-M_alt    "P 1"
_space_group_IT_number       1

loop_
  _space_group_symop_operation_xyz
  'x, y, z'

loop_
  _atom_site_type_symbol
  _atom_site_label
  _atom_site_symmetry_multiplicity
  _atom_site_fract_x
  _atom_site_fract_y
  _atom_site_fract_z
  _atom_site_occupancy
  Ag  Ag1       1.0  0.33879  0.05564  0.77096  1.0000
  Ag  Ag2       1.0  0.83879  0.94436  0.72904  1.0000
  Ag  Ag3       1.0  0.66121  0.94436  0.22905  1.0000
  Ag  Ag4       1.0  0.16121  0.05564  0.27096  1.0000
  H   H1        1.0  0.19593  0.74419  0.04097  1.0000
  H   H2        1.0  0.69592  0.25581  0.45903  1.0000
  H   H3        1.0  0.80408  0.25580  0.95903  1.0000
  H   H4        1.0  0.30408  0.74419  0.54097  1.0000
  H   H5        1.0  0.33312  0.95166  0.05987  1.0000
  H   H6        1.0  0.83311  0.04834  0.44013  1.0000
  H   H7        1.0  0.66689  0.04833  0.94013  1.0000
  H   H8        1.0  0.16688  0.95166  0.55987  1.0000
  H   H9        1.0  0.20228  0.49236  0.90178  1.0000
  H   H10       1.0  0.70228  0.50764  0.59822  1.0000
  H   H11       1.0  0.79772  0.50764  0.09822  1.0000
  H   H12       1.0  0.29773  0.49236  0.40177  1.0000
  H   H13       1.0  0.24204  0.47549  0.00147  1.0000
  H   H14       1.0  0.74204  0.52451  0.49853  1.0000
  H   H15       1.0  0.75796  0.52451  0.99853  1.0000
  H   H16       1.0  0.25797  0.47549  0.50147  1.0000
  H   H17       1.0  0.06667  0.38167  0.93530  1.0000
  H   H18       1.0  0.56667  0.61833  0.56470  1.0000
  H   H19       1.0  0.93333  0.61833  0.06470  1.0000
  H   H20       1.0  0.43334  0.38167  0.43530  1.0000
  H   H21       1.0  0.27606  0.59426  0.67084  1.0000
  H   H22       1.0  0.77607  0.40574  0.82916  1.0000
  H   H23       1.0  0.72393  0.40574  0.32916  1.0000
  H   H24       1.0  0.22393  0.59426  0.17084  1.0000
  H   H25       1.0  0.54258  0.57508  0.89618  1.0000
  H   H26       1.0  0.04258  0.42492  0.60382  1.0000
  H   H27       1.0  0.45742  0.42491  0.10382  1.0000
  H   H28       1.0  0.95742  0.57508  0.39618  1.0000
  H   H29       1.0  0.36992  0.46984  0.76864  1.0000
  H   H30       1.0  0.86992  0.53016  0.73136  1.0000
  H   H31       1.0  0.63008  0.53015  0.23136  1.0000
  H   H32       1.0  0.13008  0.46984  0.26864  1.0000
  H   H33       1.0  0.98498  0.66078  0.91884  1.0000
  H   H34       1.0  0.48498  0.33923  0.58116  1.0000
  H   H35       1.0  0.01502  0.33922  0.08116  1.0000
  H   H36       1.0  0.51502  0.66078  0.41884  1.0000
  H   H37       1.0  0.38116  0.80886  0.70143  1.0000
  H   H38       1.0  0.88117  0.19114  0.79857  1.0000
  H   H39       1.0  0.61883  0.19113  0.29857  1.0000
  H   H40       1.0  0.11883  0.80886  0.20143  1.0000
  H   H41       1.0  0.26661  0.06273  0.95225  1.0000
  H   H42       1.0  0.76661  0.93727  0.54775  1.0000
  H   H43       1.0  0.73338  0.93727  0.04775  1.0000
  H   H44       1.0  0.23338  0.06273  0.45225  1.0000
  H   H45       1.0  0.94301  0.78152  0.81605  1.0000
  H   H46       1.0  0.44301  0.21849  0.68394  1.0000
  H   H47       1.0  0.05699  0.21849  0.18395  1.0000
  H   H48       1.0  0.55699  0.78152  0.31606  1.0000
  H   H49       1.0  0.62238  0.79331  0.92030  1.0000
  H   H50       1.0  0.12237  0.20669  0.57970  1.0000
  H   H51       1.0  0.37762  0.20669  0.07970  1.0000
  H   H52       1.0  0.87763  0.79331  0.42030  1.0000
  C   C1        1.0  0.16448  0.79612  0.99761  1.0000
  C   C2        1.0  0.66447  0.20388  0.50239  1.0000
  C   C3        1.0  0.83553  0.20387  0.00239  1.0000
  C   C4        1.0  0.33553  0.79612  0.49761  1.0000
  C   C5        1.0  0.24454  0.91012  0.00748  1.0000
  C   C6        1.0  0.74453  0.08988  0.49252  1.0000
  C   C7        1.0  0.75547  0.08988  0.99252  1.0000
  C   C8        1.0  0.25547  0.91012  0.50749  1.0000
  C   C9        1.0  0.20499  0.42827  0.93916  1.0000
  C   C10       1.0  0.70499  0.57173  0.56084  1.0000
  C   C11       1.0  0.79500  0.57173  0.06084  1.0000
  C   C12       1.0  0.29502  0.42827  0.43916  1.0000
  C   C13       1.0  0.35911  0.63139  0.72561  1.0000
  C   C14       1.0  0.85911  0.36861  0.77439  1.0000
  C   C15       1.0  0.64089  0.36861  0.27439  1.0000
  C   C16       1.0  0.14089  0.63139  0.22561  1.0000
  C   C17       1.0  0.50525  0.62255  0.85085  1.0000
  C   C18       1.0  0.00525  0.37744  0.64915  1.0000
  C   C19       1.0  0.49475  0.37744  0.14915  1.0000
  C   C20       1.0  0.99475  0.62255  0.35085  1.0000
  C   C21       1.0  0.40817  0.56450  0.78005  1.0000
  C   C22       1.0  0.90817  0.43550  0.71995  1.0000
  C   C23       1.0  0.59183  0.43549  0.21995  1.0000
  C   C24       1.0  0.09183  0.56450  0.28005  1.0000
  C   C25       1.0  0.05162  0.74895  0.92938  1.0000
  C   C26       1.0  0.55162  0.25105  0.57062  1.0000
  C   C27       1.0  0.94838  0.25105  0.07062  1.0000
  C   C28       1.0  0.44838  0.74896  0.42938  1.0000
  C   C29       1.0  0.41120  0.75104  0.74123  1.0000
  C   C30       1.0  0.91120  0.24896  0.75878  1.0000
  C   C31       1.0  0.58880  0.24896  0.25877  1.0000
  C   C32       1.0  0.08880  0.75104  0.24123  1.0000
  C   C33       1.0  0.21128  0.97354  0.95026  1.0000
  C   C34       1.0  0.71128  0.02646  0.54975  1.0000
  C   C35       1.0  0.78872  0.02646  0.04975  1.0000
  C   C36       1.0  0.28872  0.97355  0.45026  1.0000
  C   C37       1.0  0.02290  0.81351  0.87231  1.0000
  C   C38       1.0  0.52290  0.18649  0.62769  1.0000
  C   C39       1.0  0.97709  0.18648  0.12769  1.0000
  C   C40       1.0  0.47710  0.81352  0.37231  1.0000
  C   C41       1.0  0.55216  0.74283  0.86539  1.0000
  C   C42       1.0  0.05216  0.25717  0.63460  1.0000
  C   C43       1.0  0.44784  0.25717  0.13460  1.0000
  C   C44       1.0  0.94784  0.74283  0.36539  1.0000
  S   S1        1.0  0.38790  0.31950  0.90122  1.0000
  S   S2        1.0  0.88790  0.68050  0.59878  1.0000
  S   S3        1.0  0.61209  0.68050  0.09878  1.0000
  S   S4        1.0  0.11210  0.31950  0.40122  1.0000
  N   N1        1.0  0.10207  0.92446  0.88380  1.0000
  N   N2        1.0  0.60208  0.07555  0.61621  1.0000
  N   N3        1.0  0.89792  0.07554  0.11621  1.0000
  N   N4        1.0  0.39793  0.92446  0.38380  1.0000
  N   N5        1.0  0.50770  0.80575  0.81035  1.0000
  N   N6        1.0  0.00771  0.19425  0.68965  1.0000
  N   N7        1.0  0.49230  0.19424  0.18965  1.0000
  N   N8        1.0  0.99230  0.80575  0.31035  1.0000
  O   O1        1.0  0.34648  0.27415  0.81326  1.0000
  O   O2        1.0  0.84648  0.72586  0.68674  1.0000
  O   O3        1.0  0.65352  0.72586  0.18674  1.0000
  O   O4        1.0  0.15352  0.27415  0.31326  1.0000
  O   O5        1.0  0.57281  0.38336  0.91663  1.0000
  O   O6        1.0  0.07281  0.61665  0.58337  1.0000
  O   O7        1.0  0.42719  0.61665  0.08337  1.0000
  O   O8        1.0  0.92720  0.38336  0.41663  1.0000
  O   O9        1.0  0.36675  0.22630  0.94510  1.0000
  O   O10       1.0  0.86676  0.77370  0.55490  1.0000
  O   O11       1.0  0.63324  0.77370  0.05490  1.0000
  O   O12       1.0  0.13325  0.22630  0.44510  1.0000
  O   O13       1.0  0.55988  0.91944  0.82447  1.0000
  O   O14       1.0  0.05988  0.08055  0.67553  1.0000
  O   O15       1.0  0.44012  0.08055  0.17553  1.0000
  O   O16       1.0  0.94012  0.91945  0.32447  1.0000
  O   O17       1.0  0.07338  0.98780  0.82986  1.0000
  O   O18       1.0  0.57338  0.01221  0.67015  1.0000
  O   O19       1.0  0.92662  0.01220  0.17015  1.0000
  O   O20       1.0  0.42662  0.98781  0.32986  1.0000
