data_image0
_chemical_formula_structural       Cu6H52C36N12O26
_chemical_formula_sum              "Cu6 H52 C36 N12 O26"
_cell_length_a       11.2067
_cell_length_b       10.7096
_cell_length_c       12.5271
_cell_angle_alpha    105.807
_cell_angle_beta     105.089
_cell_angle_gamma    102.495

_space_group_name_H-M_alt    "P 1"
_space_group_IT_number       1

loop_
  _space_group_symop_operation_xyz
  'x, y, z'

loop_
  _atom_site_type_symbol
  _atom_site_label
  _atom_site_symmetry_multiplicity
  _atom_site_fract_x
  _atom_site_fract_y
  _atom_site_fract_z
  _atom_site_occupancy
  Cu  Cu1       1.0  0.81451  0.74042  0.71258  1.0000
  Cu  Cu2       1.0  0.26032  0.18138  0.78306  1.0000
  Cu  Cu3       1.0  0.18552  0.25963  0.28747  1.0000
  Cu  Cu4       1.0  0.73974  0.81862  0.21699  1.0000
  Cu  Cu5       1.0  0.64501  0.34216  0.23844  1.0000
  Cu  Cu6       1.0  0.35488  0.65776  0.76150  1.0000
  H   H1        1.0  0.04846  0.83152  0.85831  1.0000
  H   H2        1.0  0.16159  0.93586  0.63834  1.0000
  H   H3        1.0  0.95160  0.16855  0.14171  1.0000
  H   H4        1.0  0.83846  0.06414  0.36169  1.0000
  H   H5        1.0  0.99201  0.96178  0.86114  1.0000
  H   H6        1.0  0.04197  0.00399  0.64228  1.0000
  H   H7        1.0  0.00803  0.03827  0.13886  1.0000
  H   H8        1.0  0.95808  0.99601  0.35770  1.0000
  H   H9        1.0  0.94038  0.85409  0.92540  1.0000
  H   H10       1.0  0.14155  0.04839  0.57153  1.0000
  H   H11       1.0  0.05972  0.14600  0.07465  1.0000
  H   H12       1.0  0.85857  0.95163  0.42852  1.0000
  H   H13       1.0  0.66018  0.67448  0.50164  1.0000
  H   H14       1.0  0.33859  0.35020  0.99202  1.0000
  H   H15       1.0  0.33975  0.32550  0.49841  1.0000
  H   H16       1.0  0.66166  0.64995  0.00798  1.0000
  H   H17       1.0  0.67334  0.52893  0.52034  1.0000
  H   H18       1.0  0.46896  0.31483  0.96830  1.0000
  H   H19       1.0  0.32663  0.47106  0.47973  1.0000
  H   H20       1.0  0.53122  0.68522  0.03162  1.0000
  H   H21       1.0  0.58641  0.61250  0.58343  1.0000
  H   H22       1.0  0.40646  0.41579  0.90712  1.0000
  H   H23       1.0  0.41360  0.38750  0.41669  1.0000
  H   H24       1.0  0.59368  0.58418  0.09274  1.0000
  H   H25       1.0  0.83234  0.55469  0.25597  1.0000
  H   H26       1.0  0.43570  0.16034  0.22597  1.0000
  H   H27       1.0  0.16769  0.44531  0.74427  1.0000
  H   H28       1.0  0.56408  0.83970  0.77385  1.0000
  H   H29       1.0  0.84194  0.54406  0.38718  1.0000
  H   H30       1.0  0.44961  0.13342  0.09394  1.0000
  H   H31       1.0  0.15794  0.45568  0.61297  1.0000
  H   H32       1.0  0.54997  0.86689  0.90583  1.0000
  H   H33       1.0  0.88731  0.43621  0.29807  1.0000
  H   H34       1.0  0.54625  0.09116  0.19190  1.0000
  H   H35       1.0  0.11265  0.56368  0.70205  1.0000
  H   H36       1.0  0.45330  0.90873  0.80755  1.0000
  H   H37       1.0  0.56554  0.57961  0.27331  1.0000
  H   H38       1.0  0.43479  0.45689  0.19664  1.0000
  H   H39       1.0  0.43453  0.42037  0.72665  1.0000
  H   H40       1.0  0.56527  0.54315  0.80332  1.0000
  H   H41       1.0  0.57814  0.02012  0.71622  1.0000
  H   H42       1.0  0.98081  0.42227  0.78071  1.0000
  H   H43       1.0  0.42203  0.97994  0.28397  1.0000
  H   H44       1.0  0.01918  0.57775  0.21923  1.0000
  H   H45       1.0  0.53323  0.30217  0.53410  1.0000
  H   H46       1.0  0.68841  0.44170  0.94288  1.0000
  H   H47       1.0  0.46657  0.69764  0.46587  1.0000
  H   H48       1.0  0.31167  0.55833  0.05716  1.0000
  H   H49       1.0  0.84473  0.12876  0.54087  1.0000
  H   H50       1.0  0.89058  0.14751  0.96298  1.0000
  H   H51       1.0  0.15515  0.87120  0.45904  1.0000
  H   H52       1.0  0.10954  0.85256  0.03703  1.0000
  C   C1        1.0  0.71622  0.06067  0.62864  1.0000
  C   C2        1.0  0.95161  0.28194  0.87360  1.0000
  C   C3        1.0  0.28380  0.93933  0.37142  1.0000
  C   C4        1.0  0.04848  0.71812  0.12641  1.0000
  C   C5        1.0  0.61072  0.07695  0.66399  1.0000
  C   C6        1.0  0.92601  0.38473  0.83146  1.0000
  C   C7        1.0  0.38932  0.92306  0.33612  1.0000
  C   C8        1.0  0.07404  0.61529  0.16852  1.0000
  C   C9        1.0  0.54624  0.16602  0.63227  1.0000
  C   C10       1.0  0.82917  0.44004  0.85355  1.0000
  C   C11       1.0  0.45374  0.83394  0.36781  1.0000
  C   C12       1.0  0.17087  0.55997  0.14642  1.0000
  C   C13       1.0  0.58605  0.23649  0.56231  1.0000
  C   C14       1.0  0.76029  0.39522  0.92148  1.0000
  C   C15       1.0  0.41387  0.76343  0.43770  1.0000
  C   C16       1.0  0.23977  0.60482  0.07851  1.0000
  C   C17       1.0  0.69223  0.22182  0.52726  1.0000
  C   C18       1.0  0.78398  0.29119  0.96280  1.0000
  C   C19       1.0  0.30762  0.77807  0.47268  1.0000
  C   C20       1.0  0.21607  0.70882  0.03718  1.0000
  C   C21       1.0  0.75924  0.13689  0.56415  1.0000
  C   C22       1.0  0.87675  0.23237  0.93516  1.0000
  C   C23       1.0  0.24067  0.86303  0.43583  1.0000
  C   C24       1.0  0.12334  0.76769  0.06485  1.0000
  C   C25       1.0  0.77825  0.95639  0.65247  1.0000
  C   C26       1.0  0.05996  0.22703  0.85687  1.0000
  C   C27       1.0  0.22179  0.04362  0.34757  1.0000
  C   C28       1.0  0.94012  0.77304  0.14314  1.0000
  C   C29       1.0  0.43442  0.18413  0.67140  1.0000
  C   C30       1.0  0.80267  0.54930  0.80739  1.0000
  C   C31       1.0  0.56559  0.81579  0.32871  1.0000
  C   C32       1.0  0.19737  0.45074  0.19263  1.0000
  C   C33       1.0  0.72750  0.28245  0.44065  1.0000
  C   C34       1.0  0.72239  0.25103  0.04660  1.0000
  C   C35       1.0  0.27229  0.71742  0.55924  1.0000
  C   C36       1.0  0.27771  0.74900  0.95342  1.0000
  N   N1        1.0  0.96572  0.86034  0.85329  1.0000
  N   N2        1.0  0.13712  0.02450  0.64483  1.0000
  N   N3        1.0  0.03434  0.13971  0.14674  1.0000
  N   N4        1.0  0.86294  0.97551  0.35520  1.0000
  N   N5        1.0  0.66917  0.62462  0.56182  1.0000
  N   N6        1.0  0.38287  0.33062  0.92994  1.0000
  N   N7        1.0  0.33081  0.37537  0.43825  1.0000
  N   N8        1.0  0.61730  0.66941  0.07000  1.0000
  N   N9        1.0  0.82048  0.48780  0.30056  1.0000
  N   N10       1.0  0.50112  0.16297  0.18177  1.0000
  N   N11       1.0  0.17948  0.51209  0.69957  1.0000
  N   N12       1.0  0.49856  0.83709  0.81795  1.0000
  O   O1        1.0  0.73374  0.89013  0.71341  1.0000
  O   O2        1.0  0.12205  0.27269  0.79451  1.0000
  O   O3        1.0  0.26628  0.10992  0.28665  1.0000
  O   O4        1.0  0.87805  0.72745  0.20554  1.0000
  O   O5        1.0  0.86491  0.93329  0.61017  1.0000
  O   O6        1.0  0.08830  0.14275  0.90430  1.0000
  O   O7        1.0  0.13514  0.06674  0.38988  1.0000
  O   O8        1.0  0.91183  0.85734  0.09571  1.0000
  O   O9        1.0  0.36977  0.25737  0.63465  1.0000
  O   O10       1.0  0.72414  0.61004  0.83630  1.0000
  O   O11       1.0  0.63019  0.74253  0.36548  1.0000
  O   O12       1.0  0.27592  0.39000  0.16374  1.0000
  O   O13       1.0  0.40993  0.12545  0.74364  1.0000
  O   O14       1.0  0.86406  0.57872  0.73927  1.0000
  O   O15       1.0  0.59008  0.87438  0.25643  1.0000
  O   O16       1.0  0.13598  0.42133  0.26075  1.0000
  O   O17       1.0  0.81346  0.25403  0.40080  1.0000
  O   O18       1.0  0.75696  0.16902  0.09300  1.0000
  O   O19       1.0  0.18635  0.74582  0.59911  1.0000
  O   O20       1.0  0.24314  0.83101  0.90702  1.0000
  O   O21       1.0  0.65687  0.35601  0.40592  1.0000
  O   O22       1.0  0.64085  0.31467  0.07159  1.0000
  O   O23       1.0  0.34285  0.64380  0.59396  1.0000
  O   O24       1.0  0.35923  0.68537  0.92838  1.0000
  O   O25       1.0  0.52961  0.48852  0.21003  1.0000
  O   O26       1.0  0.47044  0.51150  0.78987  1.0000
