data_image0
_chemical_formula_structural       Ag4P4H64C40N8O28
_chemical_formula_sum              "Ag4 P4 H64 C40 N8 O28"
_cell_length_a       8.76631
_cell_length_b       10.9442
_cell_length_c       16.257
_cell_angle_alpha    90
_cell_angle_beta     90
_cell_angle_gamma    108.244

_space_group_name_H-M_alt    "P 1"
_space_group_IT_number       1

loop_
  _space_group_symop_operation_xyz
  'x, y, z'

loop_
  _atom_site_type_symbol
  _atom_site_label
  _atom_site_symmetry_multiplicity
  _atom_site_fract_x
  _atom_site_fract_y
  _atom_site_fract_z
  _atom_site_occupancy
  Ag  Ag1       1.0  0.12454  0.52849  0.15416  1.0000
  Ag  Ag2       1.0  0.37546  0.47151  0.65416  1.0000
  Ag  Ag3       1.0  0.87546  0.47151  0.84584  1.0000
  Ag  Ag4       1.0  0.62454  0.52849  0.34584  1.0000
  P   P1        1.0  0.03752  0.17723  0.15459  1.0000
  P   P2        1.0  0.46248  0.82277  0.65459  1.0000
  P   P3        1.0  0.96248  0.82277  0.84541  1.0000
  P   P4        1.0  0.53752  0.17723  0.34541  1.0000
  H   H1        1.0  0.39610  0.22544  0.18532  1.0000
  H   H2        1.0  0.10390  0.77456  0.68532  1.0000
  H   H3        1.0  0.60390  0.77456  0.81468  1.0000
  H   H4        1.0  0.89610  0.22544  0.31468  1.0000
  H   H5        1.0  0.33354  0.36280  0.16974  1.0000
  H   H6        1.0  0.16646  0.63720  0.66974  1.0000
  H   H7        1.0  0.66646  0.63720  0.83026  1.0000
  H   H8        1.0  0.83354  0.36280  0.33026  1.0000
  H   H9        1.0  0.29970  0.29415  0.97012  1.0000
  H   H10       1.0  0.20030  0.70585  0.47012  1.0000
  H   H11       1.0  0.70030  0.70585  0.02988  1.0000
  H   H12       1.0  0.79970  0.29415  0.52988  1.0000
  H   H13       1.0  0.51036  0.37856  0.86465  1.0000
  H   H14       1.0  0.98964  0.62144  0.36465  1.0000
  H   H15       1.0  0.48964  0.62144  0.13535  1.0000
  H   H16       1.0  0.01036  0.37856  0.63535  1.0000
  H   H17       1.0  0.87432  0.44473  0.03904  1.0000
  H   H18       1.0  0.62568  0.55526  0.53904  1.0000
  H   H19       1.0  0.12568  0.55526  0.96096  1.0000
  H   H20       1.0  0.37432  0.44474  0.46096  1.0000
  H   H21       1.0  0.67941  0.36347  0.15171  1.0000
  H   H22       1.0  0.82059  0.63653  0.65171  1.0000
  H   H23       1.0  0.32059  0.63653  0.84829  1.0000
  H   H24       1.0  0.17941  0.36347  0.34829  1.0000
  H   H25       1.0  0.97894  0.10905  0.96993  1.0000
  H   H26       1.0  0.52106  0.89095  0.46993  1.0000
  H   H27       1.0  0.02106  0.89095  0.03007  1.0000
  H   H28       1.0  0.47894  0.10905  0.53007  1.0000
  H   H29       1.0  0.93287  0.24306  0.01204  1.0000
  H   H30       1.0  0.56713  0.75694  0.51204  1.0000
  H   H31       1.0  0.06713  0.75694  0.98796  1.0000
  H   H32       1.0  0.43287  0.24306  0.48796  1.0000
  H   H33       1.0  0.68734  0.97644  0.98029  1.0000
  H   H34       1.0  0.81266  0.02356  0.48029  1.0000
  H   H35       1.0  0.31266  0.02356  0.01971  1.0000
  H   H36       1.0  0.18734  0.97644  0.51971  1.0000
  H   H37       1.0  0.71185  0.11794  0.92088  1.0000
  H   H38       1.0  0.78815  0.88206  0.42088  1.0000
  H   H39       1.0  0.28815  0.88206  0.07912  1.0000
  H   H40       1.0  0.21185  0.11794  0.57912  1.0000
  H   H41       1.0  0.64202  0.11134  0.02375  1.0000
  H   H42       1.0  0.85798  0.88865  0.52375  1.0000
  H   H43       1.0  0.35798  0.88865  0.97625  1.0000
  H   H44       1.0  0.14202  0.11134  0.47625  1.0000
  H   H45       1.0  0.20054  0.99520  0.19679  1.0000
  H   H46       1.0  0.29946  0.00480  0.69679  1.0000
  H   H47       1.0  0.79946  0.00480  0.80321  1.0000
  H   H48       1.0  0.70054  0.99520  0.30321  1.0000
  H   H49       1.0  0.99540  0.90747  0.17420  1.0000
  H   H50       1.0  0.50459  0.09253  0.67420  1.0000
  H   H51       1.0  0.00459  0.09253  0.82580  1.0000
  H   H52       1.0  0.49541  0.90747  0.32580  1.0000
  H   H53       1.0  0.13515  0.96525  0.34886  1.0000
  H   H54       1.0  0.36486  0.03475  0.84886  1.0000
  H   H55       1.0  0.86486  0.03475  0.65114  1.0000
  H   H56       1.0  0.63514  0.96525  0.15114  1.0000
  H   H57       1.0  0.10671  0.81842  0.29590  1.0000
  H   H58       1.0  0.39329  0.18158  0.79590  1.0000
  H   H59       1.0  0.89329  0.18158  0.70410  1.0000
  H   H60       1.0  0.60671  0.81842  0.20410  1.0000
  H   H61       1.0  0.93641  0.86605  0.32216  1.0000
  H   H62       1.0  0.56359  0.13395  0.82216  1.0000
  H   H63       1.0  0.06359  0.13395  0.67784  1.0000
  H   H64       1.0  0.43641  0.86605  0.17784  1.0000
  C   C1        1.0  0.35212  0.27884  0.13875  1.0000
  C   C2        1.0  0.14787  0.72116  0.63875  1.0000
  C   C3        1.0  0.64788  0.72116  0.86125  1.0000
  C   C4        1.0  0.85213  0.27884  0.36125  1.0000
  C   C5        1.0  0.47165  0.32252  0.07053  1.0000
  C   C6        1.0  0.02835  0.67748  0.57053  1.0000
  C   C7        1.0  0.52835  0.67748  0.92947  1.0000
  C   C8        1.0  0.97165  0.32252  0.42947  1.0000
  C   C9        1.0  0.42552  0.32607  0.98847  1.0000
  C   C10       1.0  0.07448  0.67393  0.48847  1.0000
  C   C11       1.0  0.57448  0.67393  0.01153  1.0000
  C   C12       1.0  0.92552  0.32607  0.51153  1.0000
  C   C13       1.0  0.54326  0.37300  0.92892  1.0000
  C   C14       1.0  0.95674  0.62700  0.42892  1.0000
  C   C15       1.0  0.45674  0.62700  0.07108  1.0000
  C   C16       1.0  0.04326  0.37300  0.57108  1.0000
  C   C17       1.0  0.74581  0.41045  0.02587  1.0000
  C   C18       1.0  0.75419  0.58955  0.52587  1.0000
  C   C19       1.0  0.25419  0.58955  0.97413  1.0000
  C   C20       1.0  0.24581  0.41045  0.47413  1.0000
  C   C21       1.0  0.63590  0.36509  0.08901  1.0000
  C   C22       1.0  0.86409  0.63491  0.58901  1.0000
  C   C23       1.0  0.36410  0.63491  0.91099  1.0000
  C   C24       1.0  0.13591  0.36509  0.41099  1.0000
  C   C25       1.0  0.89555  0.13759  0.01016  1.0000
  C   C26       1.0  0.60446  0.86241  0.51016  1.0000
  C   C27       1.0  0.10445  0.86241  0.98984  1.0000
  C   C28       1.0  0.39554  0.13759  0.48984  1.0000
  C   C29       1.0  0.72351  0.08182  0.98274  1.0000
  C   C30       1.0  0.77649  0.91818  0.48274  1.0000
  C   C31       1.0  0.27649  0.91818  0.01726  1.0000
  C   C32       1.0  0.22351  0.08182  0.51726  1.0000
  C   C33       1.0  0.07670  0.96769  0.22009  1.0000
  C   C34       1.0  0.42330  0.03231  0.72009  1.0000
  C   C35       1.0  0.92329  0.03231  0.77991  1.0000
  C   C36       1.0  0.57670  0.96769  0.27991  1.0000
  C   C37       1.0  0.06202  0.90112  0.30203  1.0000
  C   C38       1.0  0.43799  0.09888  0.80203  1.0000
  C   C39       1.0  0.93798  0.09888  0.69797  1.0000
  C   C40       1.0  0.56202  0.90112  0.19797  1.0000
  N   N1        1.0  0.70163  0.41460  0.94665  1.0000
  N   N2        1.0  0.79837  0.58540  0.44665  1.0000
  N   N3        1.0  0.29837  0.58540  0.05335  1.0000
  N   N4        1.0  0.20163  0.41460  0.55335  1.0000
  N   N5        1.0  0.35045  0.63006  0.31155  1.0000
  N   N6        1.0  0.14955  0.36994  0.81155  1.0000
  N   N7        1.0  0.64955  0.36994  0.68845  1.0000
  N   N8        1.0  0.85045  0.63006  0.18845  1.0000
  O   O1        1.0  0.20130  0.19715  0.10551  1.0000
  O   O2        1.0  0.29870  0.80285  0.60551  1.0000
  O   O3        1.0  0.79870  0.80285  0.89449  1.0000
  O   O4        1.0  0.70130  0.19715  0.39449  1.0000
  O   O5        1.0  0.00904  0.29748  0.18208  1.0000
  O   O6        1.0  0.49096  0.70252  0.68208  1.0000
  O   O7        1.0  0.99096  0.70252  0.81792  1.0000
  O   O8        1.0  0.50904  0.29748  0.31792  1.0000
  O   O9        1.0  0.91126  0.08879  0.09294  1.0000
  O   O10       1.0  0.58874  0.91121  0.59294  1.0000
  O   O11       1.0  0.08874  0.91121  0.90706  1.0000
  O   O12       1.0  0.41126  0.08879  0.40706  1.0000
  O   O13       1.0  0.03362  0.08663  0.23078  1.0000
  O   O14       1.0  0.46638  0.91337  0.73078  1.0000
  O   O15       1.0  0.96638  0.91337  0.76922  1.0000
  O   O16       1.0  0.53362  0.08663  0.26922  1.0000
  O   O17       1.0  0.39317  0.54063  0.27621  1.0000
  O   O18       1.0  0.10683  0.45937  0.77621  1.0000
  O   O19       1.0  0.60683  0.45937  0.72379  1.0000
  O   O20       1.0  0.89317  0.54063  0.22379  1.0000
  O   O21       1.0  0.42065  0.68224  0.37609  1.0000
  O   O22       1.0  0.07935  0.31776  0.87609  1.0000
  O   O23       1.0  0.57935  0.31776  0.62391  1.0000
  O   O24       1.0  0.92065  0.68224  0.12391  1.0000
  O   O25       1.0  0.23723  0.66343  0.28056  1.0000
  O   O26       1.0  0.26276  0.33657  0.78055  1.0000
  O   O27       1.0  0.76277  0.33657  0.71944  1.0000
  O   O28       1.0  0.73723  0.66343  0.21944  1.0000
