data_image0
_chemical_formula_structural       Al8H32C56N8O40
_chemical_formula_sum              "Al8 H32 C56 N8 O40"
_cell_length_a       10.4497
_cell_length_b       16.0687
_cell_length_c       16.2212
_cell_angle_alpha    83.9968
_cell_angle_beta     71.2099
_cell_angle_gamma    71.053

_space_group_name_H-M_alt    "P 1"
_space_group_IT_number       1

loop_
  _space_group_symop_operation_xyz
  'x, y, z'

loop_
  _atom_site_type_symbol
  _atom_site_label
  _atom_site_symmetry_multiplicity
  _atom_site_fract_x
  _atom_site_fract_y
  _atom_site_fract_z
  _atom_site_occupancy
  Al  Al1       1.0  0.50014  0.18112  0.31847  1.0000
  Al  Al2       1.0  0.99971  0.31891  0.18151  1.0000
  Al  Al3       1.0  0.68137  0.31886  0.31847  1.0000
  Al  Al4       1.0  0.31879  0.18114  0.18152  1.0000
  Al  Al5       1.0  0.49985  0.81888  0.68153  1.0000
  Al  Al6       1.0  0.00029  0.68109  0.81849  1.0000
  Al  Al7       1.0  0.31862  0.68115  0.68153  1.0000
  Al  Al8       1.0  0.68121  0.81886  0.81848  1.0000
  H   H1        1.0  0.87140  0.01076  0.18003  1.0000
  H   H2        1.0  0.06203  0.48925  0.32006  1.0000
  H   H3        1.0  0.12976  0.31907  0.48827  1.0000
  H   H4        1.0  0.44830  0.48922  0.18003  1.0000
  H   H5        1.0  0.88205  0.18077  0.48826  1.0000
  H   H6        1.0  0.55130  0.31916  0.01169  1.0000
  H   H7        1.0  0.11784  0.01087  0.32007  1.0000
  H   H8        1.0  0.93721  0.18086  0.01169  1.0000
  H   H9        1.0  0.12860  0.98924  0.81997  1.0000
  H   H10       1.0  0.93797  0.51075  0.67994  1.0000
  H   H11       1.0  0.87024  0.68093  0.51173  1.0000
  H   H12       1.0  0.55170  0.51078  0.81997  1.0000
  H   H13       1.0  0.11796  0.81923  0.51174  1.0000
  H   H14       1.0  0.44870  0.68084  0.98831  1.0000
  H   H15       1.0  0.88216  0.98912  0.67993  1.0000
  H   H16       1.0  0.06279  0.81914  0.98831  1.0000
  H   H17       1.0  0.63441  0.98543  0.01532  1.0000
  H   H18       1.0  0.63503  0.51456  0.48470  1.0000
  H   H19       1.0  0.36496  0.48544  0.51530  1.0000
  H   H20       1.0  0.85003  0.51463  0.01541  1.0000
  H   H21       1.0  0.61953  0.01455  0.51544  1.0000
  H   H22       1.0  0.14997  0.48537  0.98459  1.0000
  H   H23       1.0  0.38047  0.98545  0.48455  1.0000
  H   H24       1.0  0.36560  0.01457  0.98469  1.0000
  H   H25       1.0  0.35096  0.29805  0.25001  1.0000
  H   H26       1.0  0.89902  0.20199  0.25003  1.0000
  H   H27       1.0  0.64847  0.24999  0.20303  1.0000
  H   H28       1.0  0.10153  0.24997  0.29694  1.0000
  H   H29       1.0  0.64904  0.70195  0.74999  1.0000
  H   H30       1.0  0.10098  0.79801  0.74997  1.0000
  H   H31       1.0  0.35153  0.75001  0.79697  1.0000
  H   H32       1.0  0.89847  0.75002  0.70306  1.0000
  C   C1        1.0  0.73741  0.00628  0.10437  1.0000
  C   C2        1.0  0.84792  0.49373  0.39566  1.0000
  C   C3        1.0  0.26293  0.39589  0.49300  1.0000
  C   C4        1.0  0.65801  0.49366  0.10437  1.0000
  C   C5        1.0  0.74411  0.10399  0.49299  1.0000
  C   C6        1.0  0.34143  0.39594  0.00699  1.0000
  C   C7        1.0  0.25634  0.00638  0.39568  1.0000
  C   C8        1.0  0.15182  0.10412  0.00694  1.0000
  C   C9        1.0  0.26259  0.99372  0.89563  1.0000
  C   C10       1.0  0.15207  0.50627  0.60434  1.0000
  C   C11       1.0  0.73707  0.60412  0.50700  1.0000
  C   C12       1.0  0.34199  0.50634  0.89563  1.0000
  C   C13       1.0  0.25589  0.89601  0.50701  1.0000
  C   C14       1.0  0.65858  0.60406  0.99301  1.0000
  C   C15       1.0  0.74367  0.99362  0.60431  1.0000
  C   C16       1.0  0.84818  0.89589  0.99306  1.0000
  C   C17       1.0  0.86480  0.97922  0.12573  1.0000
  C   C18       1.0  0.96963  0.52081  0.37437  1.0000
  C   C19       1.0  0.13614  0.37373  0.51983  1.0000
  C   C20       1.0  0.50925  0.52073  0.12572  1.0000
  C   C21       1.0  0.84413  0.12610  0.51981  1.0000
  C   C22       1.0  0.49036  0.37382  0.98013  1.0000
  C   C23       1.0  0.15592  0.97934  0.37438  1.0000
  C   C24       1.0  0.02974  0.12621  0.98010  1.0000
  C   C25       1.0  0.13520  0.02078  0.87427  1.0000
  C   C26       1.0  0.03037  0.47919  0.62563  1.0000
  C   C27       1.0  0.86386  0.62627  0.48017  1.0000
  C   C28       1.0  0.49076  0.47927  0.87428  1.0000
  C   C29       1.0  0.15586  0.87390  0.48019  1.0000
  C   C30       1.0  0.50964  0.62617  0.01987  1.0000
  C   C31       1.0  0.84408  0.02066  0.62562  1.0000
  C   C32       1.0  0.97026  0.87379  0.01990  1.0000
  C   C33       1.0  0.61052  0.07419  0.15776  1.0000
  C   C34       1.0  0.84242  0.42584  0.34217  1.0000
  C   C35       1.0  0.38957  0.34283  0.42488  1.0000
  C   C36       1.0  0.73151  0.42580  0.15781  1.0000
  C   C37       1.0  0.68558  0.15709  0.42489  1.0000
  C   C38       1.0  0.26781  0.34287  0.07514  1.0000
  C   C39       1.0  0.31539  0.07423  0.34219  1.0000
  C   C40       1.0  0.15721  0.15721  0.07510  1.0000
  C   C41       1.0  0.38948  0.92581  0.84223  1.0000
  C   C42       1.0  0.15759  0.57416  0.65783  1.0000
  C   C43       1.0  0.61043  0.65718  0.57512  1.0000
  C   C44       1.0  0.26851  0.57419  0.84218  1.0000
  C   C45       1.0  0.31443  0.84291  0.57511  1.0000
  C   C46       1.0  0.73219  0.65713  0.92486  1.0000
  C   C47       1.0  0.68460  0.92577  0.65780  1.0000
  C   C48       1.0  0.84280  0.84279  0.92490  1.0000
  C   C49       1.0  0.73066  0.96543  0.03474  1.0000
  C   C50       1.0  0.73072  0.53458  0.46528  1.0000
  C   C51       1.0  0.26928  0.46543  0.53471  1.0000
  C   C52       1.0  0.73436  0.53459  0.03477  1.0000
  C   C53       1.0  0.69597  0.03450  0.53474  1.0000
  C   C54       1.0  0.26564  0.46541  0.96523  1.0000
  C   C55       1.0  0.30403  0.96550  0.46526  1.0000
  C   C56       1.0  0.26934  0.03457  0.96526  1.0000
  N   N1        1.0  0.98091  0.91551  0.08351  1.0000
  N   N2        1.0  0.97982  0.58455  0.41658  1.0000
  N   N3        1.0  0.02018  0.41545  0.58342  1.0000
  N   N4        1.0  0.43540  0.58449  0.08351  1.0000
  N   N5        1.0  0.89648  0.08440  0.58341  1.0000
  N   N6        1.0  0.56460  0.41551  0.91648  1.0000
  N   N7        1.0  0.10351  0.91560  0.41660  1.0000
  N   N8        1.0  0.01910  0.08449  0.91649  1.0000
  O   O1        1.0  0.50661  0.10696  0.12712  1.0000
  O   O2        1.0  0.74064  0.39302  0.37279  1.0000
  O   O3        1.0  0.49294  0.37396  0.39222  1.0000
  O   O4        1.0  0.86608  0.39306  0.12720  1.0000
  O   O5        1.0  0.61483  0.12598  0.39222  1.0000
  O   O6        1.0  0.13329  0.37396  0.10777  1.0000
  O   O7        1.0  0.38652  0.10703  0.37283  1.0000
  O   O8        1.0  0.25907  0.12610  0.10774  1.0000
  O   O9        1.0  0.49340  0.89304  0.87288  1.0000
  O   O10       1.0  0.25936  0.60698  0.62721  1.0000
  O   O11       1.0  0.50705  0.62604  0.60778  1.0000
  O   O12       1.0  0.13392  0.60694  0.87280  1.0000
  O   O13       1.0  0.38517  0.87403  0.60778  1.0000
  O   O14       1.0  0.86671  0.62605  0.89223  1.0000
  O   O15       1.0  0.61348  0.89297  0.62717  1.0000
  O   O16       1.0  0.74093  0.87390  0.89226  1.0000
  O   O17       1.0  0.61585  0.09290  0.23087  1.0000
  O   O18       1.0  0.93960  0.40720  0.26906  1.0000
  O   O19       1.0  0.38433  0.26912  0.40600  1.0000
  O   O20       1.0  0.65303  0.40711  0.23092  1.0000
  O   O21       1.0  0.70973  0.23078  0.40601  1.0000
  O   O22       1.0  0.34669  0.26922  0.09407  1.0000
  O   O23       1.0  0.29137  0.09285  0.26907  1.0000
  O   O24       1.0  0.05939  0.23087  0.09401  1.0000
  O   O25       1.0  0.38415  0.90709  0.76914  1.0000
  O   O26       1.0  0.06040  0.59280  0.73094  1.0000
  O   O27       1.0  0.61567  0.73088  0.59400  1.0000
  O   O28       1.0  0.34697  0.59289  0.76908  1.0000
  O   O29       1.0  0.29027  0.76922  0.59400  1.0000
  O   O30       1.0  0.65331  0.73079  0.90593  1.0000
  O   O31       1.0  0.70862  0.90714  0.73093  1.0000
  O   O32       1.0  0.94061  0.76914  0.90599  1.0000
  O   O33       1.0  0.38286  0.23442  0.24998  1.0000
  O   O34       1.0  0.86717  0.26562  0.25003  1.0000
  O   O35       1.0  0.61702  0.24999  0.26597  1.0000
  O   O36       1.0  0.13299  0.24997  0.23400  1.0000
  O   O37       1.0  0.61714  0.76558  0.75002  1.0000
  O   O38       1.0  0.13284  0.73438  0.74997  1.0000
  O   O39       1.0  0.38298  0.75001  0.73403  1.0000
  O   O40       1.0  0.86700  0.75003  0.76601  1.0000
