data_image0
_chemical_formula_structural       Ba2H22C18N2O12
_chemical_formula_sum              "Ba2 H22 C18 N2 O12"
_cell_length_a       7.43726
_cell_length_b       9.10286
_cell_length_c       9.21705
_cell_angle_alpha    79.9101
_cell_angle_beta     75.2468
_cell_angle_gamma    67.5386

_space_group_name_H-M_alt    "P 1"
_space_group_IT_number       1

loop_
  _space_group_symop_operation_xyz
  'x, y, z'

loop_
  _atom_site_type_symbol
  _atom_site_label
  _atom_site_symmetry_multiplicity
  _atom_site_fract_x
  _atom_site_fract_y
  _atom_site_fract_z
  _atom_site_occupancy
  Ba  Ba1       1.0  0.30883  0.86243  0.56375  1.0000
  Ba  Ba2       1.0  0.69117  0.13757  0.43625  1.0000
  H   H1        1.0  0.10894  0.74394  0.34741  1.0000
  H   H2        1.0  0.89106  0.25606  0.65258  1.0000
  H   H3        1.0  0.32486  0.60051  0.33679  1.0000
  H   H4        1.0  0.67514  0.39948  0.66321  1.0000
  H   H5        1.0  0.37861  0.47303  0.67474  1.0000
  H   H6        1.0  0.62140  0.52697  0.32526  1.0000
  H   H7        1.0  0.36096  0.53636  0.82788  1.0000
  H   H8        1.0  0.63904  0.46364  0.17212  1.0000
  H   H9        1.0  0.93689  0.40434  0.39674  1.0000
  H   H10       1.0  0.06311  0.59567  0.60326  1.0000
  H   H11       1.0  0.54854  0.28316  0.89388  1.0000
  H   H12       1.0  0.45145  0.71683  0.10612  1.0000
  H   H13       1.0  0.41642  0.15050  0.94358  1.0000
  H   H14       1.0  0.58357  0.84950  0.05642  1.0000
  H   H15       1.0  0.56847  0.15024  0.06240  1.0000
  H   H16       1.0  0.43153  0.84976  0.93760  1.0000
  H   H17       1.0  0.12726  0.78182  0.89117  1.0000
  H   H18       1.0  0.87275  0.21818  0.10883  1.0000
  H   H19       1.0  0.10443  0.85712  0.06427  1.0000
  H   H20       1.0  0.89557  0.14287  0.93574  1.0000
  H   H21       1.0  0.89289  0.85254  0.01587  1.0000
  H   H22       1.0  0.10712  0.14745  0.98412  1.0000
  C   C1        1.0  0.23828  0.14749  0.29843  1.0000
  C   C2        1.0  0.76172  0.85251  0.70157  1.0000
  C   C3        1.0  0.02543  0.43230  0.28886  1.0000
  C   C4        1.0  0.97456  0.56770  0.71113  1.0000
  C   C5        1.0  0.81489  0.71677  0.31672  1.0000
  C   C6        1.0  0.18511  0.28323  0.68328  1.0000
  C   C7        1.0  0.18779  0.31169  0.21713  1.0000
  C   C8        1.0  0.81220  0.68831  0.78288  1.0000
  C   C9        1.0  0.97855  0.58961  0.22625  1.0000
  C   C10       1.0  0.02144  0.41040  0.77375  1.0000
  C   C11       1.0  0.29645  0.35172  0.07723  1.0000
  C   C12       1.0  0.70354  0.64828  0.92276  1.0000
  C   C13       1.0  0.09321  0.62198  0.08632  1.0000
  C   C14       1.0  0.90679  0.37801  0.91368  1.0000
  C   C15       1.0  0.46768  0.22793  0.98929  1.0000
  C   C16       1.0  0.53232  0.77206  0.01072  1.0000
  C   C17       1.0  0.05231  0.78749  0.00973  1.0000
  C   C18       1.0  0.94769  0.21251  0.99027  1.0000
  N   N1        1.0  0.24523  0.50359  0.01429  1.0000
  N   N2        1.0  0.75478  0.49641  0.98571  1.0000
  O   O1        1.0  0.41353  0.07815  0.32385  1.0000
  O   O2        1.0  0.58647  0.92185  0.67615  1.0000
  O   O3        1.0  0.65656  0.68947  0.38043  1.0000
  O   O4        1.0  0.34344  0.31054  0.61958  1.0000
  O   O5        1.0  0.23003  0.69387  0.39026  1.0000
  O   O6        1.0  0.76997  0.30613  0.60974  1.0000
  O   O7        1.0  0.41706  0.54890  0.71589  1.0000
  O   O8        1.0  0.58294  0.45110  0.28411  1.0000
  O   O9        1.0  0.85238  0.83904  0.32837  1.0000
  O   O10       1.0  0.14762  0.16095  0.67163  1.0000
  O   O11       1.0  0.10039  0.08983  0.34501  1.0000
  O   O12       1.0  0.89960  0.91017  0.65498  1.0000
