data_image0
_chemical_formula_structural       Mn4H16C16N12Cl4O8
_chemical_formula_sum              "Mn4 H16 C16 N12 Cl4 O8"
_cell_length_a       8.00666
_cell_length_b       9.51147
_cell_length_c       11.652
_cell_angle_alpha    71.8902
_cell_angle_beta     69.9146
_cell_angle_gamma    65.0968

_space_group_name_H-M_alt    "P 1"
_space_group_IT_number       1

loop_
  _space_group_symop_operation_xyz
  'x, y, z'

loop_
  _atom_site_type_symbol
  _atom_site_label
  _atom_site_symmetry_multiplicity
  _atom_site_fract_x
  _atom_site_fract_y
  _atom_site_fract_z
  _atom_site_occupancy
  Mn  Mn1       1.0  0.02507  0.05434  0.68976  1.0000
  Mn  Mn2       1.0  0.76910  0.44587  0.81012  1.0000
  Mn  Mn3       1.0  0.97493  0.94566  0.31024  1.0000
  Mn  Mn4       1.0  0.23091  0.55413  0.18988  1.0000
  H   H1        1.0  0.98080  0.72586  0.66313  1.0000
  H   H2        1.0  0.36977  0.77415  0.83696  1.0000
  H   H3        1.0  0.01920  0.27414  0.33687  1.0000
  H   H4        1.0  0.63023  0.22585  0.16304  1.0000
  H   H5        1.0  0.67891  0.65515  0.03811  1.0000
  H   H6        1.0  0.37202  0.84504  0.46193  1.0000
  H   H7        1.0  0.32109  0.34485  0.96189  1.0000
  H   H8        1.0  0.62798  0.15496  0.53806  1.0000
  H   H9        1.0  0.63095  0.92695  0.08006  1.0000
  H   H10       1.0  0.63766  0.57306  0.42003  1.0000
  H   H11       1.0  0.36904  0.07305  0.91994  1.0000
  H   H12       1.0  0.36234  0.42694  0.57997  1.0000
  H   H13       1.0  0.75355  0.04572  0.96152  1.0000
  H   H14       1.0  0.76067  0.45426  0.53854  1.0000
  H   H15       1.0  0.24645  0.95428  0.03848  1.0000
  H   H16       1.0  0.23933  0.54574  0.46146  1.0000
  C   C1        1.0  0.91392  0.73815  0.75938  1.0000
  C   C2        1.0  0.41143  0.76191  0.74070  1.0000
  C   C3        1.0  0.08608  0.26186  0.24062  1.0000
  C   C4        1.0  0.58857  0.23808  0.25930  1.0000
  C   C5        1.0  0.76020  0.69986  0.94888  1.0000
  C   C6        1.0  0.40883  0.80027  0.55117  1.0000
  C   C7        1.0  0.23980  0.30014  0.05112  1.0000
  C   C8        1.0  0.59117  0.19973  0.44883  1.0000
  C   C9        1.0  0.76713  0.92474  0.01244  1.0000
  C   C10       1.0  0.70412  0.57524  0.48762  1.0000
  C   C11       1.0  0.23287  0.07526  0.98756  1.0000
  C   C12       1.0  0.29588  0.42476  0.51237  1.0000
  C   C13       1.0  0.91900  0.86125  0.08608  1.0000
  C   C14       1.0  0.86607  0.63865  0.41395  1.0000
  C   C15       1.0  0.08100  0.13875  0.91392  1.0000
  C   C16       1.0  0.13393  0.36135  0.58605  1.0000
  N   N1        1.0  0.90368  0.85514  0.80412  1.0000
  N   N2        1.0  0.56284  0.64485  0.69596  1.0000
  N   N3        1.0  0.09632  0.14486  0.19588  1.0000
  N   N4        1.0  0.43716  0.35514  0.30404  1.0000
  N   N5        1.0  0.80350  0.82945  0.92513  1.0000
  N   N6        1.0  0.55794  0.67056  0.57494  1.0000
  N   N7        1.0  0.19650  0.17055  0.07487  1.0000
  N   N8        1.0  0.44206  0.32943  0.42506  1.0000
  N   N9        1.0  0.82681  0.64008  0.84554  1.0000
  N   N10       1.0  0.31239  0.86008  0.65452  1.0000
  N   N11       1.0  0.17319  0.35992  0.15446  1.0000
  N   N12       1.0  0.68761  0.13992  0.34548  1.0000
  Cl  Cl1       1.0  1.00000  0.00000  0.50000  1.0000
  Cl  Cl2       1.0  0.50000  0.50000  1.00000  1.0000
  Cl  Cl3       1.0  0.68259  0.25008  0.74996  1.0000
  Cl  Cl4       1.0  0.31741  0.74992  0.25004  1.0000
  O   O1        1.0  0.89754  0.95549  0.15101  1.0000
  O   O2        1.0  0.00358  0.54449  0.34890  1.0000
  O   O3        1.0  0.10246  0.04451  0.84899  1.0000
  O   O4        1.0  0.99642  0.45551  0.65110  1.0000
  O   O5        1.0  0.04348  0.72589  0.07854  1.0000
  O   O6        1.0  0.84779  0.77394  0.42161  1.0000
  O   O7        1.0  0.95652  0.27412  0.92146  1.0000
  O   O8        1.0  0.15221  0.22606  0.57839  1.0000
