data_image0
_chemical_formula_structural       Cd3H22C24N4O18
_chemical_formula_sum              "Cd3 H22 C24 N4 O18"
_cell_length_a       6.32913
_cell_length_b       9.67173
_cell_length_c       12.5676
_cell_angle_alpha    104.109
_cell_angle_beta     98.1131
_cell_angle_gamma    97.7618

_space_group_name_H-M_alt    "P 1"
_space_group_IT_number       1

loop_
  _space_group_symop_operation_xyz
  'x, y, z'

loop_
  _atom_site_type_symbol
  _atom_site_label
  _atom_site_symmetry_multiplicity
  _atom_site_fract_x
  _atom_site_fract_y
  _atom_site_fract_z
  _atom_site_occupancy
  Cd  Cd1       1.0  0.49171  0.94760  0.17277  1.0000
  Cd  Cd2       1.0  0.50829  0.05240  0.82723  1.0000
  Cd  Cd3       1.0  0.50000  0.50000  0.50000  1.0000
  H   H1        1.0  0.05194  0.60383  0.33327  1.0000
  H   H2        1.0  0.94806  0.39617  0.66673  1.0000
  H   H3        1.0  0.22124  0.34114  0.97301  1.0000
  H   H4        1.0  0.77875  0.65886  0.02699  1.0000
  H   H5        1.0  0.50032  0.53607  0.10555  1.0000
  H   H6        1.0  0.49968  0.46393  0.89445  1.0000
  H   H7        1.0  0.77759  0.40534  0.20277  1.0000
  H   H8        1.0  0.22241  0.59467  0.79724  1.0000
  H   H9        1.0  0.35098  0.21666  0.22105  1.0000
  H   H10       1.0  0.64902  0.78334  0.77895  1.0000
  H   H11       1.0  0.47608  0.20654  0.11414  1.0000
  H   H12       1.0  0.52392  0.79346  0.88586  1.0000
  H   H13       1.0  0.91977  0.92310  0.10972  1.0000
  H   H14       1.0  0.08023  0.07690  0.89028  1.0000
  H   H15       1.0  0.94207  0.03493  0.22329  1.0000
  H   H16       1.0  0.05793  0.96507  0.77671  1.0000
  H   H17       1.0  0.77408  0.30244  0.40579  1.0000
  H   H18       1.0  0.22592  0.69756  0.59421  1.0000
  H   H19       1.0  0.91061  0.41996  0.51004  1.0000
  H   H20       1.0  0.08939  0.58004  0.48996  1.0000
  H   H21       1.0  0.84773  0.05073  0.58935  1.0000
  H   H22       1.0  0.15227  0.94927  0.41065  1.0000
  C   C1        1.0  0.81518  0.24738  0.99642  1.0000
  C   C2        1.0  0.18482  0.75263  0.00358  1.0000
  C   C3        1.0  0.45527  0.69399  0.31320  1.0000
  C   C4        1.0  0.54473  0.30601  0.68680  1.0000
  C   C5        1.0  0.73578  0.05623  0.43538  1.0000
  C   C6        1.0  0.26422  0.94377  0.56462  1.0000
  C   C7        1.0  0.29522  0.58132  0.22896  1.0000
  C   C8        1.0  0.70478  0.41868  0.77104  1.0000
  C   C9        1.0  0.09056  0.54355  0.25537  1.0000
  C   C10       1.0  0.90943  0.45645  0.74463  1.0000
  C   C11       1.0  0.98234  0.36034  0.07937  1.0000
  C   C12       1.0  0.01766  0.63966  0.92063  1.0000
  C   C13       1.0  0.18621  0.39840  0.05271  1.0000
  C   C14       1.0  0.81379  0.60160  0.94729  1.0000
  C   C15       1.0  0.34178  0.50814  0.12664  1.0000
  C   C16       1.0  0.65822  0.49185  0.87336  1.0000
  C   C17       1.0  0.64999  0.90139  0.40980  1.0000
  C   C18       1.0  0.35001  0.09861  0.59020  1.0000
  C   C19       1.0  0.65085  0.80505  0.47699  1.0000
  C   C20       1.0  0.34914  0.19495  0.52301  1.0000
  C   C21       1.0  0.74090  0.82443  0.59591  1.0000
  C   C22       1.0  0.25910  0.17557  0.40409  1.0000
  C   C23       1.0  0.93558  0.43399  0.18144  1.0000
  C   C24       1.0  0.06442  0.56601  0.81856  1.0000
  N   N1        1.0  0.52847  0.82885  0.30677  1.0000
  N   N2        1.0  0.47153  0.17115  0.69323  1.0000
  N   N3        1.0  0.52863  0.67602  0.41450  1.0000
  N   N4        1.0  0.47136  0.32398  0.58551  1.0000
  O   O1        1.0  0.38125  0.15257  0.15262  1.0000
  O   O2        1.0  0.61875  0.84743  0.84738  1.0000
  O   O3        1.0  0.81308  0.41016  0.44004  1.0000
  O   O4        1.0  0.18692  0.58983  0.55996  1.0000
  O   O5        1.0  0.84403  0.99753  0.15011  1.0000
  O   O6        1.0  0.15597  0.00248  0.84989  1.0000
  O   O7        1.0  0.87065  0.17370  0.90916  1.0000
  O   O8        1.0  0.12935  0.82631  0.09084  1.0000
  O   O9        1.0  0.61708  0.23018  0.00978  1.0000
  O   O10       1.0  0.38292  0.76982  0.99022  1.0000
  O   O11       1.0  0.84344  0.12356  0.53595  1.0000
  O   O12       1.0  0.15657  0.87644  0.46405  1.0000
  O   O13       1.0  0.70263  0.12342  0.36242  1.0000
  O   O14       1.0  0.29737  0.87658  0.63758  1.0000
  O   O15       1.0  0.84360  0.95079  0.65305  1.0000
  O   O16       1.0  0.15640  0.04921  0.34695  1.0000
  O   O17       1.0  0.70879  0.71789  0.63757  1.0000
  O   O18       1.0  0.29121  0.28211  0.36243  1.0000
