data_image0
_chemical_formula_structural       Zn2H8C8Br4N4
_chemical_formula_sum              "Zn2 H8 C8 Br4 N4"
_cell_length_a       3.73784
_cell_length_b       7.20588
_cell_length_c       12.281
_cell_angle_alpha    90
_cell_angle_beta     89.9994
_cell_angle_gamma    89.9997

_space_group_name_H-M_alt    "P 1"
_space_group_IT_number       1

loop_
  _space_group_symop_operation_xyz
  'x, y, z'

loop_
  _atom_site_type_symbol
  _atom_site_label
  _atom_site_symmetry_multiplicity
  _atom_site_fract_x
  _atom_site_fract_y
  _atom_site_fract_z
  _atom_site_occupancy
  Zn  Zn1       1.0  0.99999  1.00000  0.50000  1.0000
  Zn  Zn2       1.0  0.00001  1.00000  1.00000  1.0000
  H   H1        1.0  0.00000  0.08323  0.25000  1.0000
  H   H2        1.0  0.00000  0.91677  0.75000  1.0000
  H   H3        1.0  0.00000  0.59141  0.07419  1.0000
  H   H4        1.0  0.00000  0.59142  0.42581  1.0000
  H   H5        1.0  0.00000  0.40859  0.92581  1.0000
  H   H6        1.0  0.00000  0.40858  0.57419  1.0000
  H   H7        1.0  0.00000  0.40787  0.25000  1.0000
  H   H8        1.0  0.00000  0.59213  0.75000  1.0000
  C   C1        1.0  0.00000  0.93221  0.25000  1.0000
  C   C2        1.0  0.00001  0.06779  0.75000  1.0000
  C   C3        1.0  0.00000  0.65883  0.15345  1.0000
  C   C4        1.0  1.00000  0.65883  0.34655  1.0000
  C   C5        1.0  0.00001  0.34118  0.84656  1.0000
  C   C6        1.0  1.00000  0.34116  0.65345  1.0000
  C   C7        1.0  0.00000  0.55863  0.25000  1.0000
  C   C8        1.0  0.00000  0.44137  0.75000  1.0000
  Br  Br1       1.0  0.49998  0.22306  0.42382  1.0000
  Br  Br2       1.0  0.50000  0.22306  0.07618  1.0000
  Br  Br3       1.0  0.49998  0.77694  0.57618  1.0000
  Br  Br4       1.0  0.50003  0.77694  0.92382  1.0000
  N   N1        1.0  1.00000  0.84565  0.34637  1.0000
  N   N2        1.0  0.00000  0.84564  0.15362  1.0000
  N   N3        1.0  0.99999  0.15436  0.65362  1.0000
  N   N4        1.0  0.00001  0.15435  0.84638  1.0000
