data_image0
_chemical_formula_structural       Nd4H36C52N8O28
_chemical_formula_sum              "Nd4 H36 C52 N8 O28"
_cell_length_a       9.3479
_cell_length_b       10.581
_cell_length_c       14.337
_cell_angle_alpha    90
_cell_angle_beta     90
_cell_angle_gamma    95.3582

_space_group_name_H-M_alt    "P 1"
_space_group_IT_number       1

loop_
  _space_group_symop_operation_xyz
  'x, y, z'

loop_
  _atom_site_type_symbol
  _atom_site_label
  _atom_site_symmetry_multiplicity
  _atom_site_fract_x
  _atom_site_fract_y
  _atom_site_fract_z
  _atom_site_occupancy
  Nd  Nd1       1.0  0.62482  0.46857  0.86604  1.0000
  Nd  Nd2       1.0  0.37518  0.03143  0.36604  1.0000
  Nd  Nd3       1.0  0.37518  0.53143  0.13396  1.0000
  Nd  Nd4       1.0  0.62482  0.96857  0.63396  1.0000
  H   H1        1.0  0.53313  0.25933  0.72507  1.0000
  H   H2        1.0  0.46687  0.24067  0.22507  1.0000
  H   H3        1.0  0.46687  0.74067  0.27493  1.0000
  H   H4        1.0  0.53313  0.75933  0.77493  1.0000
  H   H5        1.0  0.44434  0.37352  0.68445  1.0000
  H   H6        1.0  0.55566  0.12648  0.18445  1.0000
  H   H7        1.0  0.55566  0.62648  0.31555  1.0000
  H   H8        1.0  0.44434  0.87352  0.81555  1.0000
  H   H9        1.0  0.04588  0.77093  0.66304  1.0000
  H   H10       1.0  0.95412  0.72907  0.16304  1.0000
  H   H11       1.0  0.95412  0.22908  0.33696  1.0000
  H   H12       1.0  0.04588  0.27093  0.83696  1.0000
  H   H13       1.0  0.27001  0.70261  0.74003  1.0000
  H   H14       1.0  0.73000  0.79739  0.24003  1.0000
  H   H15       1.0  0.73000  0.29739  0.25997  1.0000
  H   H16       1.0  0.27000  0.20261  0.75997  1.0000
  H   H17       1.0  0.99113  0.46689  0.92246  1.0000
  H   H18       1.0  0.00887  0.03311  0.42246  1.0000
  H   H19       1.0  0.00887  0.53311  0.07754  1.0000
  H   H20       1.0  0.99113  0.96689  0.57753  1.0000
  H   H21       1.0  0.83531  0.87952  0.90749  1.0000
  H   H22       1.0  0.16469  0.62048  0.40749  1.0000
  H   H23       1.0  0.16469  0.12048  0.09251  1.0000
  H   H24       1.0  0.83531  0.37952  0.59251  1.0000
  H   H25       1.0  0.92356  0.10717  0.94724  1.0000
  H   H26       1.0  0.07644  0.39284  0.44723  1.0000
  H   H27       1.0  0.07644  0.89284  0.05277  1.0000
  H   H28       1.0  0.92356  0.60717  0.55277  1.0000
  H   H29       1.0  0.79322  0.21831  0.06856  1.0000
  H   H30       1.0  0.20678  0.28169  0.56856  1.0000
  H   H31       1.0  0.20678  0.78169  0.93144  1.0000
  H   H32       1.0  0.79322  0.71831  0.43144  1.0000
  H   H33       1.0  0.51757  0.89682  0.12355  1.0000
  H   H34       1.0  0.48243  0.60318  0.62355  1.0000
  H   H35       1.0  0.48243  0.10318  0.87645  1.0000
  H   H36       1.0  0.51757  0.39682  0.37645  1.0000
  C   C1        1.0  0.76645  0.68996  0.71132  1.0000
  C   C2        1.0  0.23355  0.81004  0.21132  1.0000
  C   C3        1.0  0.23355  0.31003  0.28868  1.0000
  C   C4        1.0  0.76645  0.18996  0.78868  1.0000
  C   C5        1.0  0.90539  0.64965  0.75038  1.0000
  C   C6        1.0  0.09461  0.85035  0.25038  1.0000
  C   C7        1.0  0.09461  0.35035  0.24962  1.0000
  C   C8        1.0  0.90539  0.14965  0.74962  1.0000
  C   C9        1.0  0.03985  0.70155  0.71929  1.0000
  C   C10       1.0  0.96015  0.79845  0.21929  1.0000
  C   C11       1.0  0.96015  0.29845  0.28071  1.0000
  C   C12       1.0  0.03985  0.20154  0.78071  1.0000
  C   C13       1.0  0.16293  0.66458  0.76229  1.0000
  C   C14       1.0  0.83707  0.83542  0.26229  1.0000
  C   C15       1.0  0.83707  0.33543  0.23771  1.0000
  C   C16       1.0  0.16293  0.16458  0.73771  1.0000
  C   C17       1.0  0.14709  0.58218  0.83877  1.0000
  C   C18       1.0  0.85290  0.91782  0.33877  1.0000
  C   C19       1.0  0.85291  0.41782  0.16123  1.0000
  C   C20       1.0  0.14709  0.08218  0.66123  1.0000
  C   C21       1.0  0.00835  0.53272  0.86409  1.0000
  C   C22       1.0  0.99165  0.96729  0.36409  1.0000
  C   C23       1.0  0.99165  0.46728  0.13591  1.0000
  C   C24       1.0  0.00835  0.03272  0.63591  1.0000
  C   C25       1.0  0.27427  0.55208  0.89638  1.0000
  C   C26       1.0  0.72574  0.94792  0.39638  1.0000
  C   C27       1.0  0.72574  0.44792  0.10362  1.0000
  C   C28       1.0  0.27427  0.05208  0.60362  1.0000
  C   C29       1.0  0.61537  0.73774  0.99108  1.0000
  C   C30       1.0  0.38464  0.76226  0.49109  1.0000
  C   C31       1.0  0.38464  0.26226  0.00891  1.0000
  C   C32       1.0  0.61537  0.23774  0.50892  1.0000
  C   C33       1.0  0.67050  0.87213  0.01264  1.0000
  C   C34       1.0  0.32950  0.62787  0.51264  1.0000
  C   C35       1.0  0.32950  0.12787  0.98736  1.0000
  C   C36       1.0  0.67050  0.37213  0.48736  1.0000
  C   C37       1.0  0.78591  0.93199  0.96239  1.0000
  C   C38       1.0  0.21409  0.56802  0.46239  1.0000
  C   C39       1.0  0.21409  0.06802  0.03761  1.0000
  C   C40       1.0  0.78591  0.43198  0.53761  1.0000
  C   C41       1.0  0.83338  0.05706  0.98378  1.0000
  C   C42       1.0  0.16662  0.44294  0.48377  1.0000
  C   C43       1.0  0.16662  0.94294  0.01623  1.0000
  C   C44       1.0  0.83338  0.55706  0.51622  1.0000
  C   C45       1.0  0.76141  0.11913  0.05255  1.0000
  C   C46       1.0  0.23859  0.38087  0.55255  1.0000
  C   C47       1.0  0.23859  0.88087  0.94745  1.0000
  C   C48       1.0  0.76141  0.61913  0.44745  1.0000
  C   C49       1.0  0.60715  0.94062  0.08233  1.0000
  C   C50       1.0  0.39285  0.55938  0.58233  1.0000
  C   C51       1.0  0.39285  0.05938  0.91767  1.0000
  C   C52       1.0  0.60715  0.44062  0.41767  1.0000
  N   N1        1.0  0.89066  0.56288  0.81945  1.0000
  N   N2        1.0  0.10934  0.93712  0.31945  1.0000
  N   N3        1.0  0.10934  0.43712  0.18055  1.0000
  N   N4        1.0  0.89066  0.06288  0.68055  1.0000
  N   N5        1.0  0.65072  0.06245  0.10140  1.0000
  N   N6        1.0  0.34928  0.43755  0.60140  1.0000
  N   N7        1.0  0.34928  0.93755  0.89860  1.0000
  N   N8        1.0  0.65072  0.56245  0.39860  1.0000
  O   O1        1.0  0.65192  0.62100  0.73198  1.0000
  O   O2        1.0  0.34808  0.87900  0.23198  1.0000
  O   O3        1.0  0.34808  0.37900  0.26802  1.0000
  O   O4        1.0  0.65192  0.12100  0.76802  1.0000
  O   O5        1.0  0.77366  0.79061  0.66301  1.0000
  O   O6        1.0  0.22634  0.70939  0.16301  1.0000
  O   O7        1.0  0.22634  0.20939  0.33699  1.0000
  O   O8        1.0  0.77366  0.29061  0.83699  1.0000
  O   O9        1.0  0.25056  0.53201  0.98262  1.0000
  O   O10       1.0  0.74944  0.96799  0.48262  1.0000
  O   O11       1.0  0.74944  0.46799  0.01738  1.0000
  O   O12       1.0  0.25056  0.03200  0.51737  1.0000
  O   O13       1.0  0.39361  0.55269  0.85452  1.0000
  O   O14       1.0  0.60638  0.94732  0.35452  1.0000
  O   O15       1.0  0.60638  0.44731  0.14548  1.0000
  O   O16       1.0  0.39361  0.05269  0.64548  1.0000
  O   O17       1.0  0.66816  0.68842  0.91991  1.0000
  O   O18       1.0  0.33184  0.81158  0.41991  1.0000
  O   O19       1.0  0.33184  0.31159  0.08009  1.0000
  O   O20       1.0  0.66816  0.18842  0.58009  1.0000
  O   O21       1.0  0.52075  0.68260  0.04446  1.0000
  O   O22       1.0  0.47925  0.81740  0.54446  1.0000
  O   O23       1.0  0.47925  0.31740  0.95554  1.0000
  O   O24       1.0  0.52074  0.18260  0.45554  1.0000
  O   O25       1.0  0.50425  0.34420  0.73846  1.0000
  O   O26       1.0  0.49574  0.15580  0.23846  1.0000
  O   O27       1.0  0.49574  0.65580  0.26154  1.0000
  O   O28       1.0  0.50425  0.84420  0.76154  1.0000
