data_image0
_chemical_formula_structural       CoH22C24S2N4O6
_chemical_formula_sum              "Co1 H22 C24 S2 N4 O6"
_cell_length_a       8.79858
_cell_length_b       8.80828
_cell_length_c       9.25387
_cell_angle_alpha    86.8683
_cell_angle_beta     72.5661
_cell_angle_gamma    62.0322

_space_group_name_H-M_alt    "P 1"
_space_group_IT_number       1

loop_
  _space_group_symop_operation_xyz
  'x, y, z'

loop_
  _atom_site_type_symbol
  _atom_site_label
  _atom_site_symmetry_multiplicity
  _atom_site_fract_x
  _atom_site_fract_y
  _atom_site_fract_z
  _atom_site_occupancy
  Co  Co1       1.0  0.50000  0.00000  0.50000  1.0000
  H   H1        1.0  0.30393  0.15201  0.76322  1.0000
  H   H2        1.0  0.69607  0.84798  0.23678  1.0000
  H   H3        1.0  0.40651  0.26651  0.71299  1.0000
  H   H4        1.0  0.59349  0.73349  0.28701  1.0000
  H   H5        1.0  0.09634  0.14217  0.65241  1.0000
  H   H6        1.0  0.90366  0.85783  0.34760  1.0000
  H   H7        1.0  0.41314  0.04477  0.20051  1.0000
  H   H8        1.0  0.58686  0.95523  0.79950  1.0000
  H   H9        1.0  0.14320  0.15759  0.11006  1.0000
  H   H10       1.0  0.85680  0.84241  0.88995  1.0000
  H   H11       1.0  0.83408  0.27938  0.30548  1.0000
  H   H12       1.0  0.16592  0.72062  0.69452  1.0000
  H   H13       1.0  0.77165  0.23505  0.72385  1.0000
  H   H14       1.0  0.22835  0.76495  0.27615  1.0000
  H   H15       1.0  0.68268  0.22801  0.57627  1.0000
  H   H16       1.0  0.31732  0.77199  0.42372  1.0000
  H   H17       1.0  0.09773  0.87250  0.05392  1.0000
  H   H18       1.0  0.90227  0.12750  0.94608  1.0000
  H   H19       1.0  0.06330  0.61269  0.15481  1.0000
  H   H20       1.0  0.93670  0.38731  0.84519  1.0000
  H   H21       1.0  0.27394  0.32670  0.00088  1.0000
  H   H22       1.0  0.72606  0.67330  0.99912  1.0000
  C   C1        1.0  0.09991  0.15206  0.53364  1.0000
  C   C2        1.0  0.90009  0.84794  0.46636  1.0000
  C   C3        1.0  0.27723  0.09703  0.28150  1.0000
  C   C4        1.0  0.72277  0.90297  0.71850  1.0000
  C   C5        1.0  0.12591  0.16278  0.23167  1.0000
  C   C6        1.0  0.87409  0.83722  0.76833  1.0000
  C   C7        1.0  0.95566  0.22699  0.33983  1.0000
  C   C8        1.0  0.04435  0.77300  0.66017  1.0000
  C   C9        1.0  0.94052  0.22023  0.49455  1.0000
  C   C10       1.0  0.05948  0.77977  0.50545  1.0000
  C   C11       1.0  0.75954  0.27844  0.61259  1.0000
  C   C12       1.0  0.24046  0.72156  0.38741  1.0000
  C   C13       1.0  0.44857  0.55155  0.78841  1.0000
  C   C14       1.0  0.55143  0.44845  0.21159  1.0000
  C   C15       1.0  0.32792  0.72180  0.86278  1.0000
  C   C16       1.0  0.67208  0.27820  0.13722  1.0000
  C   C17       1.0  0.19111  0.74255  0.99690  1.0000
  C   C18       1.0  0.80889  0.25745  0.00310  1.0000
  C   C19       1.0  0.17070  0.60031  0.05198  1.0000
  C   C20       1.0  0.82930  0.39970  0.94802  1.0000
  C   C21       1.0  0.28881  0.44092  0.96713  1.0000
  C   C22       1.0  0.71119  0.55908  0.03287  1.0000
  C   C23       1.0  0.33405  0.87684  0.79346  1.0000
  C   C24       1.0  0.66595  0.12315  0.20654  1.0000
  S   S1        1.0  0.63534  0.51405  0.62890  1.0000
  S   S2        1.0  0.36466  0.48595  0.37110  1.0000
  N   N1        1.0  0.26511  0.09185  0.43006  1.0000
  N   N2        1.0  0.73489  0.90815  0.56994  1.0000
  N   N3        1.0  0.42430  0.41573  0.83913  1.0000
  N   N4        1.0  0.57570  0.58427  0.16087  1.0000
  O   O1        1.0  0.41646  0.85262  0.65008  1.0000
  O   O2        1.0  0.58355  0.14737  0.34991  1.0000
  O   O3        1.0  0.25531  0.02035  0.87495  1.0000
  O   O4        1.0  0.74469  0.97965  0.12504  1.0000
  O   O5        1.0  0.35146  0.20757  0.67491  1.0000
  O   O6        1.0  0.64854  0.79243  0.32509  1.0000
