data_image0
_chemical_formula_structural       Yb4H36C12Se4N4O32
_chemical_formula_sum              "Yb4 H36 C12 Se4 N4 O32"
_cell_length_a       7.66698
_cell_length_b       9.2768
_cell_length_c       12.077
_cell_angle_alpha    91.7021
_cell_angle_beta     89.994
_cell_angle_gamma    90.014

_space_group_name_H-M_alt    "P 1"
_space_group_IT_number       1

loop_
  _space_group_symop_operation_xyz
  'x, y, z'

loop_
  _atom_site_type_symbol
  _atom_site_label
  _atom_site_symmetry_multiplicity
  _atom_site_fract_x
  _atom_site_fract_y
  _atom_site_fract_z
  _atom_site_occupancy
  Yb  Yb1       1.0  0.77968  0.93099  0.29097  1.0000
  Yb  Yb2       1.0  0.27958  0.06898  0.20907  1.0000
  Yb  Yb3       1.0  0.22032  0.06901  0.70903  1.0000
  Yb  Yb4       1.0  0.72042  0.93102  0.79093  1.0000
  H   H1        1.0  0.88808  0.95787  0.07071  1.0000
  H   H2        1.0  0.38799  0.04245  0.42929  1.0000
  H   H3        1.0  0.11192  0.04213  0.92929  1.0000
  H   H4        1.0  0.61201  0.95755  0.57071  1.0000
  H   H5        1.0  0.02872  0.85425  0.12627  1.0000
  H   H6        1.0  0.52864  0.14600  0.37357  1.0000
  H   H7        1.0  0.97128  0.14575  0.87373  1.0000
  H   H8        1.0  0.47136  0.85400  0.62643  1.0000
  H   H9        1.0  0.07417  0.73544  0.30249  1.0000
  H   H10       1.0  0.57409  0.26467  0.19645  1.0000
  H   H11       1.0  0.92583  0.26456  0.69751  1.0000
  H   H12       1.0  0.42591  0.73532  0.80355  1.0000
  H   H13       1.0  0.91478  0.62412  0.30309  1.0000
  H   H14       1.0  0.41462  0.37581  0.19671  1.0000
  H   H15       1.0  0.08522  0.37588  0.69691  1.0000
  H   H16       1.0  0.58538  0.62419  0.80329  1.0000
  H   H17       1.0  0.68459  0.47690  0.61373  1.0000
  H   H18       1.0  0.18421  0.52211  0.88584  1.0000
  H   H19       1.0  0.31541  0.52310  0.38627  1.0000
  H   H20       1.0  0.81579  0.47789  0.11416  1.0000
  H   H21       1.0  0.58496  0.25434  0.54419  1.0000
  H   H22       1.0  0.08567  0.74523  0.95485  1.0000
  H   H23       1.0  0.41504  0.74566  0.45581  1.0000
  H   H24       1.0  0.91433  0.25477  0.04515  1.0000
  H   H25       1.0  0.56629  0.33102  0.40949  1.0000
  H   H26       1.0  0.06733  0.66938  0.08983  1.0000
  H   H27       1.0  0.43370  0.66898  0.59051  1.0000
  H   H28       1.0  0.93266  0.33062  0.91018  1.0000
  H   H29       1.0  0.65030  0.58209  0.38755  1.0000
  H   H30       1.0  0.15046  0.41819  0.11246  1.0000
  H   H31       1.0  0.34970  0.41791  0.61245  1.0000
  H   H32       1.0  0.84953  0.58181  0.88754  1.0000
  H   H33       1.0  0.73178  0.68141  0.50398  1.0000
  H   H34       1.0  0.23110  0.31809  0.99617  1.0000
  H   H35       1.0  0.26822  0.31859  0.49602  1.0000
  H   H36       1.0  0.76890  0.68191  0.00383  1.0000
  C   C1        1.0  0.91667  0.99159  0.53374  1.0000
  C   C2        1.0  0.41667  0.00841  0.96625  1.0000
  C   C3        1.0  0.08334  0.00841  0.46626  1.0000
  C   C4        1.0  0.58333  0.99159  0.03375  1.0000
  C   C5        1.0  0.55232  0.35309  0.49982  1.0000
  C   C6        1.0  0.05287  0.64680  0.99960  1.0000
  C   C7        1.0  0.44768  0.64691  0.50018  1.0000
  C   C8        1.0  0.94713  0.35320  0.00040  1.0000
  C   C9        1.0  0.63597  0.59938  0.47733  1.0000
  C   C10       1.0  0.13570  0.40045  0.02275  1.0000
  C   C11       1.0  0.36403  0.40061  0.52267  1.0000
  C   C12       1.0  0.86430  0.59955  0.97725  1.0000
  Se  Se1       1.0  0.42986  0.70853  0.17741  1.0000
  Se  Se2       1.0  0.92997  0.29138  0.32289  1.0000
  Se  Se3       1.0  0.57014  0.29147  0.82259  1.0000
  Se  Se4       1.0  0.07004  0.70862  0.67712  1.0000
  N   N1        1.0  0.67881  0.46449  0.52936  1.0000
  N   N2        1.0  0.17884  0.53497  0.97020  1.0000
  N   N3        1.0  0.32119  0.53551  0.47064  1.0000
  N   N4        1.0  0.82116  0.46503  0.02980  1.0000
  O   O1        1.0  0.96420  0.94555  0.13810  1.0000
  O   O2        1.0  0.46404  0.05470  0.36184  1.0000
  O   O3        1.0  0.03579  0.05445  0.86190  1.0000
  O   O4        1.0  0.53596  0.94530  0.63816  1.0000
  O   O5        1.0  0.48053  0.72553  0.04675  1.0000
  O   O6        1.0  0.98009  0.27412  0.45362  1.0000
  O   O7        1.0  0.51947  0.27447  0.95326  1.0000
  O   O8        1.0  0.01991  0.72588  0.54638  1.0000
  O   O9        1.0  0.60167  0.75944  0.25846  1.0000
  O   O10       1.0  0.10218  0.24078  0.24205  1.0000
  O   O11       1.0  0.39833  0.24056  0.74154  1.0000
  O   O12       1.0  0.89782  0.75922  0.75795  1.0000
  O   O13       1.0  0.94667  0.72860  0.29992  1.0000
  O   O14       1.0  0.44665  0.27134  0.19950  1.0000
  O   O15       1.0  0.05333  0.27140  0.70008  1.0000
  O   O16       1.0  0.55335  0.72865  0.80050  1.0000
  O   O17       1.0  0.36056  0.55124  0.21996  1.0000
  O   O18       1.0  0.86080  0.44869  0.28035  1.0000
  O   O19       1.0  0.63944  0.44876  0.78004  1.0000
  O   O20       1.0  0.13920  0.55132  0.71965  1.0000
  O   O21       1.0  0.27039  0.83069  0.21526  1.0000
  O   O22       1.0  0.77068  0.16920  0.28469  1.0000
  O   O23       1.0  0.72961  0.16931  0.78474  1.0000
  O   O24       1.0  0.22932  0.83080  0.71531  1.0000
  O   O25       1.0  0.77585  0.96457  0.48008  1.0000
  O   O26       1.0  0.27585  0.03534  0.01991  1.0000
  O   O27       1.0  0.22415  0.03543  0.51993  1.0000
  O   O28       1.0  0.72415  0.96466  0.98009  1.0000
  O   O29       1.0  0.92677  0.00989  0.63824  1.0000
  O   O30       1.0  0.42684  0.99019  0.86175  1.0000
  O   O31       1.0  0.07323  0.99011  0.36176  1.0000
  O   O32       1.0  0.57316  0.00981  0.13825  1.0000
