data_image0
_chemical_formula_structural       Dy4H36C12Se4N4O32
_chemical_formula_sum              "Dy4 H36 C12 Se4 N4 O32"
_cell_length_a       7.71224
_cell_length_b       9.31489
_cell_length_c       12.2253
_cell_angle_alpha    90.6547
_cell_angle_beta     89.9736
_cell_angle_gamma    90.0241

_space_group_name_H-M_alt    "P 1"
_space_group_IT_number       1

loop_
  _space_group_symop_operation_xyz
  'x, y, z'

loop_
  _atom_site_type_symbol
  _atom_site_label
  _atom_site_symmetry_multiplicity
  _atom_site_fract_x
  _atom_site_fract_y
  _atom_site_fract_z
  _atom_site_occupancy
  Dy  Dy1       1.0  0.77113  0.92993  0.29272  1.0000
  Dy  Dy2       1.0  0.27096  0.06965  0.20745  1.0000
  Dy  Dy3       1.0  0.22887  0.07008  0.70728  1.0000
  Dy  Dy4       1.0  0.72903  0.93035  0.79255  1.0000
  H   H1        1.0  0.88726  0.96165  0.07246  1.0000
  H   H2        1.0  0.38726  0.03879  0.42751  1.0000
  H   H3        1.0  0.11274  0.03835  0.92754  1.0000
  H   H4        1.0  0.61274  0.96121  0.57249  1.0000
  H   H5        1.0  0.02527  0.85584  0.12751  1.0000
  H   H6        1.0  0.52538  0.14432  0.37196  1.0000
  H   H7        1.0  0.97473  0.14416  0.87249  1.0000
  H   H8        1.0  0.47462  0.85568  0.62804  1.0000
  H   H9        1.0  0.07153  0.73404  0.29924  1.0000
  H   H10       1.0  0.57133  0.26596  0.19869  1.0000
  H   H11       1.0  0.92846  0.26596  0.70075  1.0000
  H   H12       1.0  0.42867  0.73405  0.80131  1.0000
  H   H13       1.0  0.91323  0.62218  0.30150  1.0000
  H   H14       1.0  0.41283  0.37742  0.19811  1.0000
  H   H15       1.0  0.08677  0.37782  0.69850  1.0000
  H   H16       1.0  0.58717  0.62258  0.80190  1.0000
  H   H17       1.0  0.67845  0.46560  0.61377  1.0000
  H   H18       1.0  0.17865  0.53159  0.88567  1.0000
  H   H19       1.0  0.32155  0.53440  0.38624  1.0000
  H   H20       1.0  0.82135  0.46841  0.11432  1.0000
  H   H21       1.0  0.57445  0.25054  0.53854  1.0000
  H   H22       1.0  0.07596  0.74843  0.95852  1.0000
  H   H23       1.0  0.42555  0.74945  0.46147  1.0000
  H   H24       1.0  0.92404  0.25157  0.04148  1.0000
  H   H25       1.0  0.56278  0.33511  0.40718  1.0000
  H   H26       1.0  0.06402  0.66652  0.09079  1.0000
  H   H27       1.0  0.43722  0.66489  0.59282  1.0000
  H   H28       1.0  0.93599  0.33348  0.90920  1.0000
  H   H29       1.0  0.65665  0.58631  0.39333  1.0000
  H   H30       1.0  0.15600  0.41535  0.10759  1.0000
  H   H31       1.0  0.34335  0.41368  0.60667  1.0000
  H   H32       1.0  0.84400  0.58465  0.89240  1.0000
  H   H33       1.0  0.73643  0.67500  0.51229  1.0000
  H   H34       1.0  0.23528  0.32396  0.98967  1.0000
  H   H35       1.0  0.26357  0.32499  0.48772  1.0000
  H   H36       1.0  0.76473  0.67604  0.01033  1.0000
  C   C1        1.0  0.91764  0.99207  0.53441  1.0000
  C   C2        1.0  0.41766  0.00797  0.96558  1.0000
  C   C3        1.0  0.08235  0.00793  0.46559  1.0000
  C   C4        1.0  0.58233  0.99203  0.03441  1.0000
  C   C5        1.0  0.54682  0.35235  0.49651  1.0000
  C   C6        1.0  0.04780  0.64755  0.00168  1.0000
  C   C7        1.0  0.45319  0.64765  0.50350  1.0000
  C   C8        1.0  0.95220  0.35245  0.99832  1.0000
  C   C9        1.0  0.63955  0.59747  0.48211  1.0000
  C   C10       1.0  0.13885  0.40243  0.01894  1.0000
  C   C11       1.0  0.36045  0.40252  0.51789  1.0000
  C   C12       1.0  0.86116  0.59757  0.98106  1.0000
  Se  Se1       1.0  0.42353  0.70594  0.17829  1.0000
  Se  Se2       1.0  0.92346  0.29352  0.32216  1.0000
  Se  Se3       1.0  0.57647  0.29406  0.82171  1.0000
  Se  Se4       1.0  0.07654  0.70648  0.67784  1.0000
  N   N1        1.0  0.67528  0.45835  0.53020  1.0000
  N   N2        1.0  0.17559  0.54040  0.96917  1.0000
  N   N3        1.0  0.32472  0.54165  0.46981  1.0000
  N   N4        1.0  0.82441  0.45960  0.03082  1.0000
  O   O1        1.0  0.96472  0.94839  0.13839  1.0000
  O   O2        1.0  0.46460  0.05177  0.36143  1.0000
  O   O3        1.0  0.03527  0.05161  0.86160  1.0000
  O   O4        1.0  0.53540  0.94823  0.63857  1.0000
  O   O5        1.0  0.47697  0.72552  0.04970  1.0000
  O   O6        1.0  0.97549  0.27338  0.45092  1.0000
  O   O7        1.0  0.52304  0.27448  0.95030  1.0000
  O   O8        1.0  0.02451  0.72662  0.54908  1.0000
  O   O9        1.0  0.59285  0.75427  0.25972  1.0000
  O   O10       1.0  0.09399  0.24588  0.24144  1.0000
  O   O11       1.0  0.40714  0.24573  0.74029  1.0000
  O   O12       1.0  0.90601  0.75412  0.75856  1.0000
  O   O13       1.0  0.94454  0.72659  0.29938  1.0000
  O   O14       1.0  0.44438  0.27305  0.19953  1.0000
  O   O15       1.0  0.05546  0.27341  0.70062  1.0000
  O   O16       1.0  0.55562  0.72695  0.80047  1.0000
  O   O17       1.0  0.35233  0.54838  0.21949  1.0000
  O   O18       1.0  0.85245  0.45111  0.28106  1.0000
  O   O19       1.0  0.64767  0.45162  0.78051  1.0000
  O   O20       1.0  0.14754  0.54890  0.71894  1.0000
  O   O21       1.0  0.26463  0.82678  0.21484  1.0000
  O   O22       1.0  0.76515  0.17257  0.28477  1.0000
  O   O23       1.0  0.73536  0.17321  0.78516  1.0000
  O   O24       1.0  0.23485  0.82743  0.71523  1.0000
  O   O25       1.0  0.77602  0.96549  0.48342  1.0000
  O   O26       1.0  0.27600  0.03423  0.01661  1.0000
  O   O27       1.0  0.22398  0.03451  0.51658  1.0000
  O   O28       1.0  0.72400  0.96577  0.98339  1.0000
  O   O29       1.0  0.93012  0.01025  0.63732  1.0000
  O   O30       1.0  0.43033  0.99018  0.86265  1.0000
  O   O31       1.0  0.06988  0.98975  0.36268  1.0000
  O   O32       1.0  0.56966  0.00982  0.13735  1.0000
