data_image0
_chemical_formula_structural       Cd2H54C44N4O10
_chemical_formula_sum              "Cd2 H54 C44 N4 O10"
_cell_length_a       8.3309
_cell_length_b       10.2383
_cell_length_c       14.087
_cell_angle_alpha    90.6566
_cell_angle_beta     105.636
_cell_angle_gamma    100.268

_space_group_name_H-M_alt    "P 1"
_space_group_IT_number       1

loop_
  _space_group_symop_operation_xyz
  'x, y, z'

loop_
  _atom_site_type_symbol
  _atom_site_label
  _atom_site_symmetry_multiplicity
  _atom_site_fract_x
  _atom_site_fract_y
  _atom_site_fract_z
  _atom_site_occupancy
  Cd  Cd1       1.0  0.29157  0.38236  0.00901  1.0000
  Cd  Cd2       1.0  0.70843  0.61763  0.99098  1.0000
  H   H1        1.0  0.01387  0.20148  0.95042  1.0000
  H   H2        1.0  0.98612  0.79852  0.04958  1.0000
  H   H3        1.0  0.92202  0.32119  0.96493  1.0000
  H   H4        1.0  0.07798  0.67881  0.03507  1.0000
  H   H5        1.0  0.25810  0.87081  0.00358  1.0000
  H   H6        1.0  0.74189  0.12919  0.99642  1.0000
  H   H7        1.0  0.38008  0.68419  0.76416  1.0000
  H   H8        1.0  0.61992  0.31580  0.23584  1.0000
  H   H9        1.0  0.34606  0.10067  0.76527  1.0000
  H   H10       1.0  0.65394  0.89932  0.23473  1.0000
  H   H11       1.0  0.49348  0.79870  0.54697  1.0000
  H   H12       1.0  0.50652  0.20130  0.45303  1.0000
  H   H13       1.0  0.37657  0.69033  0.61211  1.0000
  H   H14       1.0  0.62343  0.30966  0.38789  1.0000
  H   H15       1.0  0.58607  0.77591  0.67355  1.0000
  H   H16       1.0  0.41393  0.22408  0.32645  1.0000
  H   H17       1.0  0.16575  0.98766  0.58682  1.0000
  H   H18       1.0  0.83426  0.01234  0.41318  1.0000
  H   H19       1.0  0.13246  0.81157  0.56756  1.0000
  H   H20       1.0  0.86754  0.18842  0.43244  1.0000
  H   H21       1.0  0.23983  0.91546  0.49498  1.0000
  H   H22       1.0  0.76017  0.08453  0.50502  1.0000
  H   H23       1.0  0.63865  0.03741  0.70441  1.0000
  H   H24       1.0  0.36135  0.96259  0.29559  1.0000
  H   H25       1.0  0.46782  0.12038  0.65330  1.0000
  H   H26       1.0  0.53217  0.87962  0.34670  1.0000
  H   H27       1.0  0.55253  0.03501  0.57404  1.0000
  H   H28       1.0  0.44747  0.96499  0.42596  1.0000
  H   H29       1.0  0.09148  0.19701  0.15363  1.0000
  H   H30       1.0  0.90853  0.80299  0.84637  1.0000
  H   H31       1.0  0.02837  0.30609  0.31940  1.0000
  H   H32       1.0  0.97163  0.69391  0.68060  1.0000
  H   H33       1.0  0.47049  0.61922  0.16293  1.0000
  H   H34       1.0  0.52952  0.38078  0.83707  1.0000
  H   H35       1.0  0.47391  0.66854  0.28484  1.0000
  H   H36       1.0  0.52610  0.33146  0.71516  1.0000
  H   H37       1.0  0.31153  0.70204  0.18276  1.0000
  H   H38       1.0  0.68848  0.29796  0.81724  1.0000
  H   H39       1.0  0.18436  0.66608  0.33526  1.0000
  H   H40       1.0  0.81564  0.33392  0.66474  1.0000
  H   H41       1.0  0.34524  0.59760  0.41489  1.0000
  H   H42       1.0  0.65476  0.40241  0.58511  1.0000
  H   H43       1.0  0.35967  0.40153  0.46379  1.0000
  H   H44       1.0  0.64033  0.59848  0.53621  1.0000
  H   H45       1.0  0.29658  0.29643  0.55060  1.0000
  H   H46       1.0  0.70343  0.70358  0.44941  1.0000
  H   H47       1.0  0.41714  0.45738  0.59056  1.0000
  H   H48       1.0  0.58286  0.54263  0.40944  1.0000
  H   H49       1.0  0.74058  0.61969  0.29726  1.0000
  H   H50       1.0  0.25941  0.38031  0.70274  1.0000
  H   H51       1.0  0.93315  0.63365  0.26736  1.0000
  H   H52       1.0  0.06685  0.36636  0.73264  1.0000
  H   H53       1.0  0.90352  0.75843  0.34574  1.0000
  H   H54       1.0  0.09648  0.24157  0.65426  1.0000
  C   C1        1.0  0.28302  0.11965  0.94052  1.0000
  C   C2        1.0  0.71699  0.88035  0.05947  1.0000
  C   C3        1.0  0.30182  0.99702  0.88866  1.0000
  C   C4        1.0  0.69817  0.00298  0.11134  1.0000
  C   C5        1.0  0.28641  0.87554  0.93247  1.0000
  C   C6        1.0  0.71357  0.12446  0.06752  1.0000
  C   C7        1.0  0.31490  0.76404  0.88634  1.0000
  C   C8        1.0  0.68509  0.23595  0.11366  1.0000
  C   C9        1.0  0.30182  0.63349  0.93154  1.0000
  C   C10       1.0  0.69818  0.36651  0.06845  1.0000
  C   C11       1.0  0.35543  0.77334  0.79601  1.0000
  C   C12       1.0  0.64457  0.22665  0.20398  1.0000
  C   C13       1.0  0.36266  0.89248  0.74855  1.0000
  C   C14       1.0  0.63734  0.10752  0.25145  1.0000
  C   C15       1.0  0.33732  0.00411  0.79712  1.0000
  C   C16       1.0  0.66268  0.99588  0.20288  1.0000
  C   C17       1.0  0.39405  0.90265  0.64653  1.0000
  C   C18       1.0  0.60595  0.09734  0.35347  1.0000
  C   C19       1.0  0.46689  0.78460  0.61886  1.0000
  C   C20       1.0  0.53312  0.21540  0.38113  1.0000
  C   C21       1.0  0.22292  0.90473  0.56951  1.0000
  C   C22       1.0  0.77709  0.09527  0.43048  1.0000
  C   C23       1.0  0.52065  0.03154  0.64478  1.0000
  C   C24       1.0  0.47935  0.96846  0.35522  1.0000
  C   C25       1.0  0.13934  0.29462  0.19163  1.0000
  C   C26       1.0  0.86067  0.70539  0.80837  1.0000
  C   C27       1.0  0.10797  0.34682  0.27349  1.0000
  C   C28       1.0  0.89202  0.65318  0.72651  1.0000
  C   C29       1.0  0.28433  0.49893  0.21932  1.0000
  C   C30       1.0  0.71568  0.50107  0.78068  1.0000
  C   C31       1.0  0.39091  0.62856  0.21201  1.0000
  C   C32       1.0  0.60910  0.37145  0.78800  1.0000
  C   C33       1.0  0.21272  0.57421  0.36958  1.0000
  C   C34       1.0  0.78728  0.42579  0.63042  1.0000
  C   C35       1.0  0.09842  0.53044  0.43441  1.0000
  C   C36       1.0  0.90158  0.46957  0.56559  1.0000
  C   C37       1.0  0.15352  0.45376  0.51502  1.0000
  C   C38       1.0  0.84648  0.54624  0.48498  1.0000
  C   C39       1.0  0.31496  0.40017  0.53008  1.0000
  C   C40       1.0  0.68504  0.59984  0.46992  1.0000
  C   C41       1.0  0.94321  0.57473  0.41720  1.0000
  C   C42       1.0  0.05679  0.42527  0.58280  1.0000
  C   C43       1.0  0.87823  0.65015  0.32788  1.0000
  C   C44       1.0  0.12177  0.34985  0.67211  1.0000
  N   N1        1.0  0.24863  0.38965  0.15898  1.0000
  N   N2        1.0  0.75138  0.61035  0.84102  1.0000
  N   N3        1.0  0.20057  0.47552  0.29028  1.0000
  N   N4        1.0  0.79943  0.52449  0.70972  1.0000
  O   O1        1.0  0.34764  0.23154  0.91253  1.0000
  O   O2        1.0  0.65235  0.76846  0.08746  1.0000
  O   O3        1.0  0.20700  0.10894  0.00734  1.0000
  O   O4        1.0  0.79301  0.89106  0.99267  1.0000
  O   O5        1.0  0.20438  0.60421  0.98681  1.0000
  O   O6        1.0  0.79562  0.39579  0.01319  1.0000
  O   O7        1.0  0.38985  0.55042  0.91223  1.0000
  O   O8        1.0  0.61014  0.44958  0.08777  1.0000
  O   O9        1.0  0.99498  0.28915  0.92717  1.0000
  O   O10       1.0  0.00502  0.71085  0.07284  1.0000
