data_image0
_chemical_formula_structural       Cu4H40C44S8I4N8
_chemical_formula_sum              "Cu4 H40 C44 S8 I4 N8"
_cell_length_a       8.83939
_cell_length_b       8.86379
_cell_length_c       17.1225
_cell_angle_alpha    87.1428
_cell_angle_beta     87.135
_cell_angle_gamma    80.7051

_space_group_name_H-M_alt    "P 1"
_space_group_IT_number       1

loop_
  _space_group_symop_operation_xyz
  'x, y, z'

loop_
  _atom_site_type_symbol
  _atom_site_label
  _atom_site_symmetry_multiplicity
  _atom_site_fract_x
  _atom_site_fract_y
  _atom_site_fract_z
  _atom_site_occupancy
  Cu  Cu1       1.0  0.06912  0.00357  0.42878  1.0000
  Cu  Cu2       1.0  0.99637  0.93072  0.07097  1.0000
  Cu  Cu3       1.0  0.93088  0.99643  0.57122  1.0000
  Cu  Cu4       1.0  0.00363  0.06927  0.92903  1.0000
  H   H1        1.0  0.74979  0.72574  0.12295  1.0000
  H   H2        1.0  0.27366  0.25114  0.37724  1.0000
  H   H3        1.0  0.25021  0.27426  0.87705  1.0000
  H   H4        1.0  0.72634  0.74887  0.62277  1.0000
  H   H5        1.0  0.89005  0.56116  0.13235  1.0000
  H   H6        1.0  0.43868  0.11126  0.36780  1.0000
  H   H7        1.0  0.10995  0.43885  0.86765  1.0000
  H   H8        1.0  0.56132  0.88874  0.63220  1.0000
  H   H9        1.0  0.03926  0.11884  0.26502  1.0000
  H   H10       1.0  0.88138  0.96000  0.23491  1.0000
  H   H11       1.0  0.96073  0.88117  0.73498  1.0000
  H   H12       1.0  0.11863  0.04000  0.76509  1.0000
  H   H13       1.0  0.92498  0.34814  0.19313  1.0000
  H   H14       1.0  0.65200  0.07513  0.30698  1.0000
  H   H15       1.0  0.07502  0.65187  0.80687  1.0000
  H   H16       1.0  0.34800  0.92487  0.69303  1.0000
  H   H17       1.0  0.83190  0.56698  0.41626  1.0000
  H   H18       1.0  0.43228  0.16890  0.08396  1.0000
  H   H19       1.0  0.16810  0.43303  0.58374  1.0000
  H   H20       1.0  0.56771  0.83109  0.91605  1.0000
  H   H21       1.0  0.94967  0.31920  0.47945  1.0000
  H   H22       1.0  0.68018  0.05039  0.02065  1.0000
  H   H23       1.0  0.05033  0.68081  0.52055  1.0000
  H   H24       1.0  0.31983  0.94961  0.97936  1.0000
  H   H25       1.0  0.26141  0.95389  0.16714  1.0000
  H   H26       1.0  0.04551  0.73886  0.33277  1.0000
  H   H27       1.0  0.73858  0.04611  0.83286  1.0000
  H   H28       1.0  0.95449  0.26114  0.66722  1.0000
  H   H29       1.0  0.51591  0.80304  0.18830  1.0000
  H   H30       1.0  0.19631  0.48481  0.31175  1.0000
  H   H31       1.0  0.48409  0.19696  0.81170  1.0000
  H   H32       1.0  0.80369  0.51519  0.68825  1.0000
  H   H33       1.0  0.36809  0.43689  0.06694  1.0000
  H   H34       1.0  0.56357  0.63158  0.43327  1.0000
  H   H35       1.0  0.63192  0.56310  0.93306  1.0000
  H   H36       1.0  0.43643  0.36841  0.56673  1.0000
  H   H37       1.0  0.11989  0.60257  0.05214  1.0000
  H   H38       1.0  0.39803  0.87947  0.44782  1.0000
  H   H39       1.0  0.88011  0.39742  0.94786  1.0000
  H   H40       1.0  0.60197  0.12053  0.55218  1.0000
  C   C1        1.0  0.77593  0.61415  0.15427  1.0000
  C   C2        1.0  0.38555  0.22508  0.34589  1.0000
  C   C3        1.0  0.22407  0.38585  0.84572  1.0000
  C   C4        1.0  0.61445  0.77492  0.65411  1.0000
  C   C5        1.0  0.98943  0.21914  0.29720  1.0000
  C   C6        1.0  0.78087  0.01021  0.20282  1.0000
  C   C7        1.0  0.01057  0.78087  0.70280  1.0000
  C   C8        1.0  0.21914  0.98979  0.79718  1.0000
  C   C9        1.0  0.92416  0.35097  0.25662  1.0000
  C   C10       1.0  0.64899  0.07591  0.24349  1.0000
  C   C11       1.0  0.07583  0.64904  0.74338  1.0000
  C   C12       1.0  0.35101  0.92408  0.75652  1.0000
  C   C13       1.0  0.86337  0.48021  0.29869  1.0000
  C   C14       1.0  0.51949  0.13715  0.20148  1.0000
  C   C15       1.0  0.13662  0.51980  0.70131  1.0000
  C   C16       1.0  0.48052  0.86284  0.79853  1.0000
  C   C17       1.0  0.87366  0.46873  0.38071  1.0000
  C   C18       1.0  0.53074  0.12684  0.11947  1.0000
  C   C19       1.0  0.12634  0.53129  0.61929  1.0000
  C   C20       1.0  0.46926  0.87315  0.88054  1.0000
  C   C21       1.0  0.94004  0.33189  0.41613  1.0000
  C   C22       1.0  0.66763  0.05999  0.08397  1.0000
  C   C23       1.0  0.05996  0.66812  0.58387  1.0000
  C   C24       1.0  0.33238  0.94001  0.91603  1.0000
  C   C25       1.0  0.28935  0.83801  0.14611  1.0000
  C   C26       1.0  0.16163  0.71082  0.35387  1.0000
  C   C27       1.0  0.71064  0.16198  0.85389  1.0000
  C   C28       1.0  0.83837  0.28919  0.64612  1.0000
  C   C29       1.0  0.43378  0.75312  0.15673  1.0000
  C   C30       1.0  0.24652  0.56664  0.34330  1.0000
  C   C31       1.0  0.56622  0.24688  0.84327  1.0000
  C   C32       1.0  0.75347  0.43336  0.65669  1.0000
  C   C33       1.0  0.46910  0.60643  0.12657  1.0000
  C   C34       1.0  0.39353  0.53116  0.37353  1.0000
  C   C35       1.0  0.53090  0.39357  0.87342  1.0000
  C   C36       1.0  0.60647  0.46884  0.62647  1.0000
  C   C37       1.0  0.35057  0.55013  0.09103  1.0000
  C   C38       1.0  0.45009  0.64928  0.40910  1.0000
  C   C39       1.0  0.64944  0.44986  0.90897  1.0000
  C   C40       1.0  0.54991  0.35072  0.59090  1.0000
  C   C41       1.0  0.20997  0.64259  0.08300  1.0000
  C   C42       1.0  0.35767  0.78970  0.41702  1.0000
  C   C43       1.0  0.79004  0.35740  0.91700  1.0000
  C   C44       1.0  0.64233  0.21030  0.58298  1.0000
  S   S1        1.0  0.77868  0.65469  0.25678  1.0000
  S   S2        1.0  0.34481  0.22234  0.24339  1.0000
  S   S3        1.0  0.22131  0.34532  0.74322  1.0000
  S   S4        1.0  0.65519  0.77765  0.75662  1.0000
  S   S5        1.0  0.64729  0.48834  0.12773  1.0000
  S   S6        1.0  0.51178  0.35333  0.37239  1.0000
  S   S7        1.0  0.35271  0.51166  0.87227  1.0000
  S   S8        1.0  0.48823  0.64667  0.62761  1.0000
  I   I1        1.0  0.20809  0.09457  0.55301  1.0000
  I   I2        1.0  0.90534  0.79257  0.94673  1.0000
  I   I3        1.0  0.79191  0.90543  0.44699  1.0000
  I   I4        1.0  0.09466  0.20742  0.05328  1.0000
  N   N1        1.0  0.99753  0.20638  0.37576  1.0000
  N   N2        1.0  0.79338  0.00208  0.12426  1.0000
  N   N3        1.0  0.00246  0.79363  0.62423  1.0000
  N   N4        1.0  0.20662  0.99793  0.87574  1.0000
  N   N5        1.0  0.17812  0.78758  0.10784  1.0000
  N   N6        1.0  0.21237  0.82174  0.39209  1.0000
  N   N7        1.0  0.82187  0.21241  0.89216  1.0000
  N   N8        1.0  0.78763  0.17826  0.60791  1.0000
