data_image0
_chemical_formula_structural       Cd2H38C58N10O20
_chemical_formula_sum              "Cd2 H38 C58 N10 O20"
_cell_length_a       9.25414
_cell_length_b       10.8797
_cell_length_c       14.1
_cell_angle_alpha    87.8621
_cell_angle_beta     72.9096
_cell_angle_gamma    84.7405

_space_group_name_H-M_alt    "P 1"
_space_group_IT_number       1

loop_
  _space_group_symop_operation_xyz
  'x, y, z'

loop_
  _atom_site_type_symbol
  _atom_site_label
  _atom_site_symmetry_multiplicity
  _atom_site_fract_x
  _atom_site_fract_y
  _atom_site_fract_z
  _atom_site_occupancy
  Cd  Cd1       1.0  0.25472  0.18026  0.45597  1.0000
  Cd  Cd2       1.0  0.74527  0.81975  0.54403  1.0000
  H   H1        1.0  0.57099  0.07924  0.68900  1.0000
  H   H2        1.0  0.42901  0.92077  0.31100  1.0000
  H   H3        1.0  0.83713  0.53010  0.91238  1.0000
  H   H4        1.0  0.16287  0.46990  0.08762  1.0000
  H   H5        1.0  0.14296  0.07759  0.27650  1.0000
  H   H6        1.0  0.85704  0.92242  0.72350  1.0000
  H   H7        1.0  0.31517  0.06702  0.01635  1.0000
  H   H8        1.0  0.68483  0.93298  0.98365  1.0000
  H   H9        1.0  0.65852  0.28661  0.83678  1.0000
  H   H10       1.0  0.34148  0.71339  0.16322  1.0000
  H   H11       1.0  0.48825  0.34608  0.15131  1.0000
  H   H12       1.0  0.51175  0.65393  0.84870  1.0000
  H   H13       1.0  0.56392  0.28670  0.30105  1.0000
  H   H14       1.0  0.43609  0.71330  0.69896  1.0000
  H   H15       1.0  0.68152  0.48565  0.25196  1.0000
  H   H16       1.0  0.31848  0.51435  0.74804  1.0000
  H   H17       1.0  0.55189  0.67899  0.34626  1.0000
  H   H18       1.0  0.44811  0.32100  0.65374  1.0000
  H   H19       1.0  0.33702  0.77481  0.48067  1.0000
  H   H20       1.0  0.66298  0.22519  0.51933  1.0000
  H   H21       1.0  0.09817  0.75380  0.61709  1.0000
  H   H22       1.0  0.90183  0.24620  0.38291  1.0000
  H   H23       1.0  0.89353  0.62343  0.71064  1.0000
  H   H24       1.0  0.10646  0.37657  0.28936  1.0000
  H   H25       1.0  0.79116  0.41692  0.73932  1.0000
  H   H26       1.0  0.20883  0.58308  0.26068  1.0000
  H   H27       1.0  0.94080  0.23759  0.63777  1.0000
  H   H28       1.0  0.05920  0.76240  0.36223  1.0000
  H   H29       1.0  0.78638  0.62449  0.12398  1.0000
  H   H30       1.0  0.21362  0.37551  0.87602  1.0000
  H   H31       1.0  0.83395  0.76976  0.24522  1.0000
  H   H32       1.0  0.16606  0.23024  0.75477  1.0000
  H   H33       1.0  0.02397  0.92134  0.18924  1.0000
  H   H34       1.0  0.97604  0.07866  0.81076  1.0000
  H   H35       1.0  0.17072  0.94130  0.00965  1.0000
  H   H36       1.0  0.82928  0.05869  0.99035  1.0000
  H   H37       1.0  0.18814  0.82678  0.81882  1.0000
  H   H38       1.0  0.81186  0.17322  0.18117  1.0000
  C   C1        1.0  0.39046  0.20326  0.09499  1.0000
  C   C2        1.0  0.60954  0.79674  0.90501  1.0000
  C   C3        1.0  0.38906  0.14069  0.01085  1.0000
  C   C4        1.0  0.61094  0.85931  0.98915  1.0000
  C   C5        1.0  0.48492  0.17118  0.91783  1.0000
  C   C6        1.0  0.51508  0.82883  0.08217  1.0000
  C   C7        1.0  0.58279  0.26485  0.90920  1.0000
  C   C8        1.0  0.41721  0.73515  0.09081  1.0000
  C   C9        1.0  0.58401  0.32812  0.99376  1.0000
  C   C10       1.0  0.41599  0.67188  0.00624  1.0000
  C   C11       1.0  0.48738  0.29678  0.08587  1.0000
  C   C12       1.0  0.51262  0.70323  0.91414  1.0000
  C   C13       1.0  0.29616  0.17255  0.19613  1.0000
  C   C14       1.0  0.70383  0.82745  0.80387  1.0000
  C   C15       1.0  0.48036  0.09876  0.83082  1.0000
  C   C16       1.0  0.51964  0.90124  0.16918  1.0000
  C   C17       1.0  0.68632  0.42694  0.99432  1.0000
  C   C18       1.0  0.31368  0.57307  0.00568  1.0000
  C   C19       1.0  0.51213  0.37159  0.34019  1.0000
  C   C20       1.0  0.48787  0.62841  0.65982  1.0000
  C   C21       1.0  0.57735  0.48405  0.31293  1.0000
  C   C22       1.0  0.42265  0.51594  0.68707  1.0000
  C   C23       1.0  0.50596  0.58935  0.36415  1.0000
  C   C24       1.0  0.49404  0.41065  0.63585  1.0000
  C   C25       1.0  0.36993  0.58123  0.44210  1.0000
  C   C26       1.0  0.63007  0.41877  0.55790  1.0000
  C   C27       1.0  0.28992  0.68589  0.49886  1.0000
  C   C28       1.0  0.71008  0.31411  0.50114  1.0000
  C   C29       1.0  0.15907  0.67428  0.57376  1.0000
  C   C30       1.0  0.84093  0.32572  0.42624  1.0000
  C   C31       1.0  0.09547  0.55787  0.59573  1.0000
  C   C32       1.0  0.90453  0.44213  0.40427  1.0000
  C   C33       1.0  0.95581  0.54371  0.66845  1.0000
  C   C34       1.0  0.04419  0.45629  0.33155  1.0000
  C   C35       1.0  0.89830  0.42959  0.68360  1.0000
  C   C36       1.0  0.10170  0.57041  0.31640  1.0000
  C   C37       1.0  0.98113  0.32951  0.62691  1.0000
  C   C38       1.0  0.01887  0.67049  0.37309  1.0000
  C   C39       1.0  0.17105  0.45190  0.54092  1.0000
  C   C40       1.0  0.82895  0.54809  0.45908  1.0000
  C   C41       1.0  0.31235  0.46343  0.46384  1.0000
  C   C42       1.0  0.68766  0.53657  0.53616  1.0000
  C   C43       1.0  0.99728  0.00704  0.44530  1.0000
  C   C44       1.0  0.00272  0.99296  0.55470  1.0000
  C   C45       1.0  0.49736  0.03926  0.54570  1.0000
  C   C46       1.0  0.50262  0.96075  0.45430  1.0000
  C   C47       1.0  0.95091  0.70462  0.00065  1.0000
  C   C48       1.0  0.04909  0.29538  0.99935  1.0000
  C   C49       1.0  0.86842  0.69327  0.10125  1.0000
  C   C50       1.0  0.13158  0.30673  0.89875  1.0000
  C   C51       1.0  0.89692  0.77322  0.16668  1.0000
  C   C52       1.0  0.10308  0.22678  0.83332  1.0000
  C   C53       1.0  0.00511  0.86151  0.13455  1.0000
  C   C54       1.0  0.99490  0.13848  0.86545  1.0000
  C   C55       1.0  0.08749  0.87396  0.03564  1.0000
  C   C56       1.0  0.91252  0.12603  0.96436  1.0000
  C   C57       1.0  0.05720  0.79416  0.96947  1.0000
  C   C58       1.0  0.94280  0.20584  0.03052  1.0000
  N   N1        1.0  0.38419  0.36153  0.41290  1.0000
  N   N2        1.0  0.61581  0.63847  0.58710  1.0000
  N   N3        1.0  0.11282  0.34048  0.55756  1.0000
  N   N4        1.0  0.88718  0.65952  0.44244  1.0000
  N   N5        1.0  0.94934  0.64225  0.91733  1.0000
  N   N6        1.0  0.05066  0.35774  0.08267  1.0000
  N   N7        1.0  0.04574  0.68739  0.83907  1.0000
  N   N8        1.0  0.95426  0.31261  0.16093  1.0000
  N   N9        1.0  0.11113  0.77850  0.86924  1.0000
  N   N10       1.0  0.88887  0.22149  0.13076  1.0000
  O   O1        1.0  0.39818  0.01357  0.83878  1.0000
  O   O2        1.0  0.60183  0.98644  0.16122  1.0000
  O   O3        1.0  0.57478  0.13514  0.74525  1.0000
  O   O4        1.0  0.42522  0.86486  0.25475  1.0000
  O   O5        1.0  0.76816  0.46371  0.90509  1.0000
  O   O6        1.0  0.23184  0.53628  0.09491  1.0000
  O   O7        1.0  0.69211  0.46940  0.07285  1.0000
  O   O8        1.0  0.30788  0.53060  0.92715  1.0000
  O   O9        1.0  0.30943  0.22471  0.26965  1.0000
  O   O10       1.0  0.69057  0.77529  0.73035  1.0000
  O   O11       1.0  0.19913  0.08798  0.20197  1.0000
  O   O12       1.0  0.80087  0.91203  0.79803  1.0000
  O   O13       1.0  0.41268  0.13766  0.56264  1.0000
  O   O14       1.0  0.58731  0.86234  0.43737  1.0000
  O   O15       1.0  0.58385  0.99749  0.59784  1.0000
  O   O16       1.0  0.41615  0.00252  0.40216  1.0000
  O   O17       1.0  0.08716  0.08160  0.39085  1.0000
  O   O18       1.0  0.91284  0.91840  0.60915  1.0000
  O   O19       1.0  0.90852  0.94729  0.41695  1.0000
  O   O20       1.0  0.09148  0.05271  0.58305  1.0000
