data_image0
_chemical_formula_structural       Ag8H44C56N12O24
_chemical_formula_sum              "Ag8 H44 C56 N12 O24"
_cell_length_a       7.22567
_cell_length_b       7.93205
_cell_length_c       25.608
_cell_angle_alpha    90
_cell_angle_beta     90.5239
_cell_angle_gamma    90

_space_group_name_H-M_alt    "P 1"
_space_group_IT_number       1

loop_
  _space_group_symop_operation_xyz
  'x, y, z'

loop_
  _atom_site_type_symbol
  _atom_site_label
  _atom_site_symmetry_multiplicity
  _atom_site_fract_x
  _atom_site_fract_y
  _atom_site_fract_z
  _atom_site_occupancy
  Ag  Ag1       1.0  0.17990  0.28791  0.07968  1.0000
  Ag  Ag2       1.0  0.82011  0.78790  0.42032  1.0000
  Ag  Ag3       1.0  0.82011  0.71210  0.92032  1.0000
  Ag  Ag4       1.0  0.17989  0.21210  0.57968  1.0000
  Ag  Ag5       1.0  0.28533  0.97788  0.02329  1.0000
  Ag  Ag6       1.0  0.71467  0.47788  0.47671  1.0000
  Ag  Ag7       1.0  0.71467  0.02212  0.97671  1.0000
  Ag  Ag8       1.0  0.28534  0.52212  0.52329  1.0000
  H   H1        1.0  0.52636  0.17073  0.20552  1.0000
  H   H2        1.0  0.47364  0.67073  0.29448  1.0000
  H   H3        1.0  0.47365  0.82926  0.79448  1.0000
  H   H4        1.0  0.52636  0.32926  0.70552  1.0000
  H   H5        1.0  0.33237  0.14252  0.16264  1.0000
  H   H6        1.0  0.66763  0.64252  0.33736  1.0000
  H   H7        1.0  0.66763  0.85748  0.83736  1.0000
  H   H8        1.0  0.33237  0.35747  0.66265  1.0000
  H   H9        1.0  0.50098  0.98025  0.16978  1.0000
  H   H10       1.0  0.49902  0.48025  0.33022  1.0000
  H   H11       1.0  0.49903  0.01975  0.83022  1.0000
  H   H12       1.0  0.50098  0.51974  0.66979  1.0000
  H   H13       1.0  0.53688  0.51613  0.20761  1.0000
  H   H14       1.0  0.46312  0.01614  0.29239  1.0000
  H   H15       1.0  0.46311  0.48386  0.79239  1.0000
  H   H16       1.0  0.53688  0.98385  0.70761  1.0000
  H   H17       1.0  0.50415  0.36804  0.00949  1.0000
  H   H18       1.0  0.49586  0.86803  0.49051  1.0000
  H   H19       1.0  0.49585  0.63197  0.99051  1.0000
  H   H20       1.0  0.50414  0.13197  0.50949  1.0000
  H   H21       1.0  0.85270  0.47164  0.24565  1.0000
  H   H22       1.0  0.14730  0.97165  0.25435  1.0000
  H   H23       1.0  0.14729  0.52835  0.75435  1.0000
  H   H24       1.0  0.85270  0.02835  0.74565  1.0000
  H   H25       1.0  0.01440  0.04781  0.14774  1.0000
  H   H26       1.0  0.98560  0.54782  0.35226  1.0000
  H   H27       1.0  0.98559  0.95219  0.85226  1.0000
  H   H28       1.0  0.01441  0.45218  0.64774  1.0000
  H   H29       1.0  0.94556  0.20787  0.19247  1.0000
  H   H30       1.0  0.05444  0.70788  0.30753  1.0000
  H   H31       1.0  0.05444  0.79212  0.80753  1.0000
  H   H32       1.0  0.94556  0.29212  0.69247  1.0000
  H   H33       1.0  0.81473  0.01805  0.18720  1.0000
  H   H34       1.0  0.18527  0.51805  0.31280  1.0000
  H   H35       1.0  0.18527  0.98195  0.81280  1.0000
  H   H36       1.0  0.81473  0.48195  0.68720  1.0000
  H   H37       1.0  0.50077  0.65948  0.12138  1.0000
  H   H38       1.0  0.49922  0.15949  0.37862  1.0000
  H   H39       1.0  0.49921  0.34051  0.87862  1.0000
  H   H40       1.0  0.50079  0.84050  0.62138  1.0000
  H   H41       1.0  0.85205  0.37910  0.01018  1.0000
  H   H42       1.0  0.14796  0.87910  0.48982  1.0000
  H   H43       1.0  0.14795  0.62091  0.98982  1.0000
  H   H44       1.0  0.85204  0.12090  0.51018  1.0000
  C   C1        1.0  0.58563  0.19128  0.12357  1.0000
  C   C2        1.0  0.41438  0.69129  0.37643  1.0000
  C   C3        1.0  0.41438  0.80872  0.87643  1.0000
  C   C4        1.0  0.58562  0.30872  0.62357  1.0000
  C   C5        1.0  0.48072  0.11766  0.16795  1.0000
  C   C6        1.0  0.51928  0.61766  0.33205  1.0000
  C   C7        1.0  0.51929  0.88234  0.83205  1.0000
  C   C8        1.0  0.48072  0.38234  0.66795  1.0000
  C   C9        1.0  0.13900  0.71491  0.09924  1.0000
  C   C10       1.0  0.86099  0.21491  0.40076  1.0000
  C   C11       1.0  0.86099  0.28510  0.90076  1.0000
  C   C12       1.0  0.13902  0.78509  0.59924  1.0000
  C   C13       1.0  0.97173  0.66751  0.13105  1.0000
  C   C14       1.0  0.02826  0.16751  0.36895  1.0000
  C   C15       1.0  0.02826  0.33249  0.86895  1.0000
  C   C16       1.0  0.97175  0.83248  0.63105  1.0000
  C   C17       1.0  0.79293  0.69256  0.11037  1.0000
  C   C18       1.0  0.20706  0.19257  0.38963  1.0000
  C   C19       1.0  0.20706  0.30744  0.88963  1.0000
  C   C20       1.0  0.79295  0.80743  0.61037  1.0000
  C   C21       1.0  0.65828  0.55819  0.18645  1.0000
  C   C22       1.0  0.34172  0.05820  0.31355  1.0000
  C   C23       1.0  0.34171  0.44180  0.81355  1.0000
  C   C24       1.0  0.65828  0.94179  0.68645  1.0000
  C   C25       1.0  0.77167  0.76491  0.05609  1.0000
  C   C26       1.0  0.22832  0.26492  0.44390  1.0000
  C   C27       1.0  0.22832  0.23510  0.94391  1.0000
  C   C28       1.0  0.77169  0.73508  0.55609  1.0000
  C   C29       1.0  0.58406  0.32031  0.04250  1.0000
  C   C30       1.0  0.41595  0.82031  0.45750  1.0000
  C   C31       1.0  0.41595  0.67970  0.95750  1.0000
  C   C32       1.0  0.58405  0.17969  0.54250  1.0000
  C   C33       1.0  0.83346  0.53218  0.20780  1.0000
  C   C34       1.0  0.16653  0.03219  0.29220  1.0000
  C   C35       1.0  0.16653  0.46781  0.79220  1.0000
  C   C36       1.0  0.83347  0.96780  0.70780  1.0000
  C   C37       1.0  0.78211  0.19013  0.12281  1.0000
  C   C38       1.0  0.21790  0.69013  0.37719  1.0000
  C   C39       1.0  0.21790  0.80988  0.87719  1.0000
  C   C40       1.0  0.78210  0.30987  0.62281  1.0000
  C   C41       1.0  0.89444  0.11086  0.16518  1.0000
  C   C42       1.0  0.10556  0.61087  0.33482  1.0000
  C   C43       1.0  0.10556  0.88913  0.83482  1.0000
  C   C44       1.0  0.89444  0.38913  0.66518  1.0000
  C   C45       1.0  0.63797  0.64044  0.13844  1.0000
  C   C46       1.0  0.36202  0.14046  0.36156  1.0000
  C   C47       1.0  0.36201  0.35955  0.86156  1.0000
  C   C48       1.0  0.63799  0.85954  0.63844  1.0000
  C   C49       1.0  0.77603  0.32369  0.04233  1.0000
  C   C50       1.0  0.22398  0.82369  0.45767  1.0000
  C   C51       1.0  0.22397  0.67632  0.95767  1.0000
  C   C52       1.0  0.77602  0.17631  0.54233  1.0000
  C   C53       1.0  0.98581  0.59003  0.17998  1.0000
  C   C54       1.0  0.01419  0.09003  0.32002  1.0000
  C   C55       1.0  0.01418  0.40997  0.82002  1.0000
  C   C56       1.0  0.98582  0.90996  0.67998  1.0000
  N   N1        1.0  0.87423  0.26059  0.08290  1.0000
  N   N2        1.0  0.12577  0.76060  0.41710  1.0000
  N   N3        1.0  0.12577  0.73941  0.91710  1.0000
  N   N4        1.0  0.87423  0.23940  0.58290  1.0000
  N   N5        1.0  0.48940  0.25782  0.08326  1.0000
  N   N6        1.0  0.51060  0.75782  0.41674  1.0000
  N   N7        1.0  0.51060  0.74218  0.91674  1.0000
  N   N8        1.0  0.48940  0.24218  0.58326  1.0000
  N   N9        1.0  0.16695  0.57318  0.20482  1.0000
  N   N10       1.0  0.83305  0.07319  0.29518  1.0000
  N   N11       1.0  0.83304  0.42682  0.79519  1.0000
  N   N12       1.0  0.16696  0.92682  0.70482  1.0000
  O   O1        1.0  0.24527  0.60020  0.08377  1.0000
  O   O2        1.0  0.75473  0.10020  0.41622  1.0000
  O   O3        1.0  0.75472  0.39981  0.91623  1.0000
  O   O4        1.0  0.24528  0.89980  0.58377  1.0000
  O   O5        1.0  0.15391  0.87289  0.09034  1.0000
  O   O6        1.0  0.84608  0.37289  0.40966  1.0000
  O   O7        1.0  0.84609  0.12712  0.90967  1.0000
  O   O8        1.0  0.15392  0.62711  0.59034  1.0000
  O   O9        1.0  0.66602  0.89434  0.05103  1.0000
  O   O10       1.0  0.33397  0.39435  0.44897  1.0000
  O   O11       1.0  0.33396  0.10566  0.94897  1.0000
  O   O12       1.0  0.66604  0.60565  0.55103  1.0000
  O   O13       1.0  0.85867  0.69226  0.02026  1.0000
  O   O14       1.0  0.14133  0.19226  0.47974  1.0000
  O   O15       1.0  0.14135  0.30777  0.97974  1.0000
  O   O16       1.0  0.85868  0.80775  0.52026  1.0000
  O   O17       1.0  0.26743  0.70045  0.20630  1.0000
  O   O18       1.0  0.73256  0.20045  0.29370  1.0000
  O   O19       1.0  0.73256  0.29955  0.79371  1.0000
  O   O20       1.0  0.26745  0.79955  0.70630  1.0000
  O   O21       1.0  0.20902  0.43457  0.22439  1.0000
  O   O22       1.0  0.79098  0.93458  0.27561  1.0000
  O   O23       1.0  0.79097  0.56543  0.77561  1.0000
  O   O24       1.0  0.20902  0.06543  0.72439  1.0000
