data_image0
_chemical_formula_structural       Ag8H40C60N4O16
_chemical_formula_sum              "Ag8 H40 C60 N4 O16"
_cell_length_a       8.01808
_cell_length_b       10.2883
_cell_length_c       17.378
_cell_angle_alpha    98.8406
_cell_angle_beta     96.7705
_cell_angle_gamma    104.98

_space_group_name_H-M_alt    "P 1"
_space_group_IT_number       1

loop_
  _space_group_symop_operation_xyz
  'x, y, z'

loop_
  _atom_site_type_symbol
  _atom_site_label
  _atom_site_symmetry_multiplicity
  _atom_site_fract_x
  _atom_site_fract_y
  _atom_site_fract_z
  _atom_site_occupancy
  Ag  Ag1       1.0  0.41755  0.95514  0.41614  1.0000
  Ag  Ag2       1.0  0.58245  0.04486  0.58386  1.0000
  Ag  Ag3       1.0  0.24448  0.09019  0.51963  1.0000
  Ag  Ag4       1.0  0.75552  0.90981  0.48037  1.0000
  Ag  Ag5       1.0  0.42294  0.53575  0.91582  1.0000
  Ag  Ag6       1.0  0.57706  0.46425  0.08418  1.0000
  Ag  Ag7       1.0  0.35893  0.64618  0.06284  1.0000
  Ag  Ag8       1.0  0.64108  0.35382  0.93716  1.0000
  H   H1        1.0  0.66939  0.47847  0.54232  1.0000
  H   H2        1.0  0.33061  0.52153  0.45768  1.0000
  H   H3        1.0  0.06338  0.64533  0.28823  1.0000
  H   H4        1.0  0.93662  0.35468  0.71177  1.0000
  H   H5        1.0  0.75299  0.24332  0.16778  1.0000
  H   H6        1.0  0.24701  0.75668  0.83222  1.0000
  H   H7        1.0  0.62525  0.20532  0.28782  1.0000
  H   H8        1.0  0.37475  0.79468  0.71218  1.0000
  H   H9        1.0  0.89509  0.69571  0.54462  1.0000
  H   H10       1.0  0.10491  0.30429  0.45538  1.0000
  H   H11       1.0  0.97374  0.46335  0.16767  1.0000
  H   H12       1.0  0.02626  0.53666  0.83233  1.0000
  H   H13       1.0  0.52041  0.35856  0.61332  1.0000
  H   H14       1.0  0.47960  0.64143  0.38668  1.0000
  H   H15       1.0  0.23205  0.22954  0.83160  1.0000
  H   H16       1.0  0.76795  0.77046  0.16840  1.0000
  H   H17       1.0  0.73124  0.56358  0.80226  1.0000
  H   H18       1.0  0.26877  0.43642  0.19774  1.0000
  H   H19       1.0  0.69405  0.57316  0.70000  1.0000
  H   H20       1.0  0.30596  0.42684  0.30000  1.0000
  H   H21       1.0  0.56992  0.63885  0.76735  1.0000
  H   H22       1.0  0.43008  0.36115  0.23265  1.0000
  H   H23       1.0  0.18021  0.95028  0.66332  1.0000
  H   H24       1.0  0.81979  0.04972  0.33668  1.0000
  H   H25       1.0  0.09291  0.99982  0.74993  1.0000
  H   H26       1.0  0.90709  0.00018  0.25007  1.0000
  H   H27       1.0  0.00734  0.02793  0.65666  1.0000
  H   H28       1.0  0.99266  0.97207  0.34334  1.0000
  H   H29       1.0  0.94885  0.33041  0.85739  1.0000
  H   H30       1.0  0.05115  0.66959  0.14261  1.0000
  H   H31       1.0  0.05748  0.23246  0.11616  1.0000
  H   H32       1.0  0.94253  0.76754  0.88384  1.0000
  H   H33       1.0  0.53460  0.87280  0.84552  1.0000
  H   H34       1.0  0.46541  0.12720  0.15448  1.0000
  H   H35       1.0  0.83860  0.00801  0.11194  1.0000
  H   H36       1.0  0.16140  0.99199  0.88806  1.0000
  H   H37       1.0  0.73316  0.21619  0.73631  1.0000
  H   H38       1.0  0.26684  0.78381  0.26369  1.0000
  H   H39       1.0  0.52888  0.98578  0.72980  1.0000
  H   H40       1.0  0.47112  0.01421  0.27020  1.0000
  C   C1        1.0  0.77008  0.40267  0.35800  1.0000
  C   C2        1.0  0.22992  0.59733  0.64200  1.0000
  C   C3        1.0  0.89818  0.53044  0.35830  1.0000
  C   C4        1.0  0.10183  0.46956  0.64170  1.0000
  C   C5        1.0  0.94450  0.63531  0.42804  1.0000
  C   C6        1.0  0.05550  0.36469  0.57196  1.0000
  C   C7        1.0  0.73368  0.49157  0.49120  1.0000
  C   C8        1.0  0.26632  0.50843  0.50880  1.0000
  C   C9        1.0  0.96838  0.54868  0.28813  1.0000
  C   C10       1.0  0.03163  0.45132  0.71187  1.0000
  C   C11       1.0  0.56263  0.25333  0.43387  1.0000
  C   C12       1.0  0.43737  0.74667  0.56613  1.0000
  C   C13       1.0  0.69046  0.38486  0.42670  1.0000
  C   C14       1.0  0.30953  0.61514  0.57329  1.0000
  C   C15       1.0  0.79331  0.32272  0.22099  1.0000
  C   C16       1.0  0.20670  0.67728  0.77901  1.0000
  C   C17       1.0  0.72169  0.30120  0.28785  1.0000
  C   C18       1.0  0.27832  0.69880  0.71215  1.0000
  C   C19       1.0  0.86048  0.61496  0.49219  1.0000
  C   C20       1.0  0.13952  0.38504  0.50781  1.0000
  C   C21       1.0  0.91799  0.44772  0.22099  1.0000
  C   C22       1.0  0.08201  0.55228  0.77901  1.0000
  C   C23       1.0  0.08231  0.76891  0.43623  1.0000
  C   C24       1.0  0.91769  0.23109  0.56377  1.0000
  C   C25       1.0  0.45753  0.33078  0.66305  1.0000
  C   C26       1.0  0.54248  0.66922  0.33695  1.0000
  C   C27       1.0  0.49757  0.41991  0.73634  1.0000
  C   C28       1.0  0.50244  0.58009  0.26366  1.0000
  C   C29       1.0  0.29637  0.25687  0.78210  1.0000
  C   C30       1.0  0.70363  0.74313  0.21790  1.0000
  C   C31       1.0  0.25812  0.16677  0.70914  1.0000
  C   C32       1.0  0.74188  0.83322  0.29087  1.0000
  C   C33       1.0  0.63086  0.55637  0.75166  1.0000
  C   C34       1.0  0.36914  0.44363  0.24834  1.0000
  C   C35       1.0  0.12803  0.02852  0.69450  1.0000
  C   C36       1.0  0.87197  0.97148  0.30550  1.0000
  C   C37       1.0  0.85639  0.23136  0.85501  1.0000
  C   C38       1.0  0.14361  0.76864  0.14499  1.0000
  C   C39       1.0  0.97931  0.23788  0.99520  1.0000
  C   C40       1.0  0.02069  0.76212  0.00480  1.0000
  C   C41       1.0  0.86276  0.16928  0.92298  1.0000
  C   C42       1.0  0.13723  0.83072  0.07702  1.0000
  C   C43       1.0  0.96766  0.17970  0.06176  1.0000
  C   C44       1.0  0.03234  0.82030  0.93824  1.0000
  C   C45       1.0  0.12056  0.36816  0.99911  1.0000
  C   C46       1.0  0.87944  0.63184  0.00089  1.0000
  C   C47       1.0  0.73708  0.97929  0.98957  1.0000
  C   C48       1.0  0.26293  0.02071  0.01043  1.0000
  C   C49       1.0  0.74169  0.03702  0.91963  1.0000
  C   C50       1.0  0.25830  0.96298  0.08037  1.0000
  C   C51       1.0  0.62446  0.97291  0.84801  1.0000
  C   C52       1.0  0.37554  0.02708  0.15199  1.0000
  C   C53       1.0  0.84621  0.05242  0.05902  1.0000
  C   C54       1.0  0.15379  0.94758  0.94098  1.0000
  C   C55       1.0  0.73776  0.16635  0.78721  1.0000
  C   C56       1.0  0.26223  0.83365  0.21279  1.0000
  C   C57       1.0  0.61687  0.84087  0.99113  1.0000
  C   C58       1.0  0.38312  0.15913  0.00887  1.0000
  C   C59       1.0  0.62199  0.03594  0.78369  1.0000
  C   C60       1.0  0.37800  0.96406  0.21631  1.0000
  N   N1        1.0  0.34095  0.20656  0.64975  1.0000
  N   N2        1.0  0.65905  0.79343  0.35025  1.0000
  N   N3        1.0  0.41388  0.38056  0.79558  1.0000
  N   N4        1.0  0.58612  0.61944  0.20442  1.0000
  O   O1        1.0  0.59375  0.14150  0.40335  1.0000
  O   O2        1.0  0.40625  0.85850  0.59665  1.0000
  O   O3        1.0  0.43860  0.26195  0.47111  1.0000
  O   O4        1.0  0.56140  0.73805  0.52889  1.0000
  O   O5        1.0  0.22082  0.76673  0.40679  1.0000
  O   O6        1.0  0.77918  0.23326  0.59321  1.0000
  O   O7        1.0  0.05410  0.87574  0.47364  1.0000
  O   O8        1.0  0.94590  0.12426  0.52636  1.0000
  O   O9        1.0  0.15577  0.45875  0.06248  1.0000
  O   O10       1.0  0.84423  0.54125  0.93752  1.0000
  O   O11       1.0  0.55943  0.82792  0.05567  1.0000
  O   O12       1.0  0.44057  0.17208  0.94433  1.0000
  O   O13       1.0  0.58509  0.74857  0.92915  1.0000
  O   O14       1.0  0.41490  0.25143  0.07085  1.0000
  O   O15       1.0  0.19617  0.37600  0.93915  1.0000
  O   O16       1.0  0.80383  0.62400  0.06085  1.0000
