data_image0
_chemical_formula_structural       Sm2H30C52N4O20
_chemical_formula_sum              "Sm2 H30 C52 N4 O20"
_cell_length_a       7.67799
_cell_length_b       10.7311
_cell_length_c       14.428
_cell_angle_alpha    75.3543
_cell_angle_beta     84.5668
_cell_angle_gamma    75.8896

_space_group_name_H-M_alt    "P 1"
_space_group_IT_number       1

loop_
  _space_group_symop_operation_xyz
  'x, y, z'

loop_
  _atom_site_type_symbol
  _atom_site_label
  _atom_site_symmetry_multiplicity
  _atom_site_fract_x
  _atom_site_fract_y
  _atom_site_fract_z
  _atom_site_occupancy
  Sm  Sm1       1.0  0.69904  0.08770  0.33476  1.0000
  Sm  Sm2       1.0  0.30096  0.91230  0.66524  1.0000
  H   H1        1.0  0.99680  0.22521  0.10853  1.0000
  H   H2        1.0  0.00320  0.77479  0.89147  1.0000
  H   H3        1.0  0.11868  0.78407  0.19606  1.0000
  H   H4        1.0  0.88132  0.21593  0.80394  1.0000
  H   H5        1.0  0.46167  0.80428  0.94016  1.0000
  H   H6        1.0  0.53833  0.19572  0.05984  1.0000
  H   H7        1.0  0.35680  0.04655  0.90183  1.0000
  H   H8        1.0  0.64320  0.95344  0.09817  1.0000
  H   H9        1.0  0.09045  0.61280  0.12715  1.0000
  H   H10       1.0  0.90955  0.38720  0.87285  1.0000
  H   H11       1.0  0.18326  0.36889  0.19366  1.0000
  H   H12       1.0  0.81674  0.63111  0.80634  1.0000
  H   H13       1.0  0.73802  0.39986  0.13487  1.0000
  H   H14       1.0  0.26197  0.60014  0.86513  1.0000
  H   H15       1.0  0.62680  0.64177  0.07477  1.0000
  H   H16       1.0  0.37320  0.35823  0.92523  1.0000
  H   H17       1.0  0.41761  0.38646  0.43712  1.0000
  H   H18       1.0  0.58238  0.61354  0.56288  1.0000
  H   H19       1.0  0.94413  0.68544  0.33269  1.0000
  H   H20       1.0  0.05587  0.31456  0.66731  1.0000
  H   H21       1.0  0.78743  0.50507  0.33894  1.0000
  H   H22       1.0  0.21257  0.49493  0.66106  1.0000
  H   H23       1.0  0.50720  0.53618  0.30836  1.0000
  H   H24       1.0  0.49280  0.46382  0.69164  1.0000
  H   H25       1.0  0.66708  0.72214  0.25614  1.0000
  H   H26       1.0  0.33292  0.27786  0.74386  1.0000
  H   H27       1.0  0.22431  0.96266  0.38918  1.0000
  H   H28       1.0  0.77569  0.03734  0.61082  1.0000
  H   H29       1.0  0.07572  0.77513  0.42697  1.0000
  H   H30       1.0  0.92428  0.22487  0.57303  1.0000
  C   C1        1.0  0.98309  0.02551  0.18646  1.0000
  C   C2        1.0  0.01691  0.97449  0.81354  1.0000
  C   C3        1.0  0.11762  0.97865  0.11215  1.0000
  C   C4        1.0  0.88238  0.02135  0.88785  1.0000
  C   C5        1.0  0.17524  0.84058  0.13189  1.0000
  C   C6        1.0  0.82476  0.15942  0.86811  1.0000
  C   C7        1.0  0.29894  0.77714  0.07235  1.0000
  C   C8        1.0  0.70106  0.22286  0.92765  1.0000
  C   C9        1.0  0.36776  0.85116  0.98942  1.0000
  C   C10       1.0  0.63224  0.14884  0.01058  1.0000
  C   C11       1.0  0.30877  0.98798  0.96798  1.0000
  C   C12       1.0  0.69123  0.01201  0.03201  1.0000
  C   C13       1.0  0.18568  0.05526  0.02749  1.0000
  C   C14       1.0  0.81432  0.94474  0.97251  1.0000
  C   C15       1.0  0.13913  0.20395  0.98918  1.0000
  C   C16       1.0  0.86087  0.79605  0.01082  1.0000
  C   C17       1.0  0.23116  0.56021  0.13214  1.0000
  C   C18       1.0  0.76884  0.43979  0.86786  1.0000
  C   C19       1.0  0.28393  0.42668  0.16786  1.0000
  C   C20       1.0  0.71607  0.57332  0.83215  1.0000
  C   C21       1.0  0.47041  0.36101  0.17406  1.0000
  C   C22       1.0  0.52959  0.63899  0.82594  1.0000
  C   C23       1.0  0.59434  0.44294  0.13415  1.0000
  C   C24       1.0  0.40566  0.55706  0.86585  1.0000
  C   C25       1.0  0.53489  0.57611  0.09870  1.0000
  C   C26       1.0  0.46511  0.42389  0.90130  1.0000
  C   C27       1.0  0.28998  0.17503  0.46772  1.0000
  C   C28       1.0  0.71002  0.82497  0.53228  1.0000
  C   C29       1.0  0.18705  0.31332  0.42268  1.0000
  C   C30       1.0  0.81294  0.68669  0.57732  1.0000
  C   C31       1.0  0.27784  0.41384  0.41642  1.0000
  C   C32       1.0  0.72216  0.58617  0.58358  1.0000
  C   C33       1.0  0.19107  0.54640  0.38398  1.0000
  C   C34       1.0  0.80892  0.45360  0.61602  1.0000
  C   C35       1.0  0.01158  0.58171  0.35843  1.0000
  C   C36       1.0  0.98842  0.41830  0.64157  1.0000
  C   C37       1.0  0.92446  0.48144  0.36204  1.0000
  C   C38       1.0  0.07554  0.51857  0.63795  1.0000
  C   C39       1.0  0.00858  0.34725  0.39221  1.0000
  C   C40       1.0  0.99142  0.65275  0.60779  1.0000
  C   C41       1.0  0.90289  0.25019  0.38290  1.0000
  C   C42       1.0  0.09711  0.74981  0.61710  1.0000
  C   C43       1.0  0.45412  0.63257  0.32431  1.0000
  C   C44       1.0  0.54587  0.36743  0.67569  1.0000
  C   C45       1.0  0.54042  0.73401  0.29743  1.0000
  C   C46       1.0  0.45958  0.26599  0.70257  1.0000
  C   C47       1.0  0.46160  0.86008  0.31851  1.0000
  C   C48       1.0  0.53840  0.13992  0.68149  1.0000
  C   C49       1.0  0.29263  0.87001  0.37070  1.0000
  C   C50       1.0  0.70737  0.12999  0.62930  1.0000
  C   C51       1.0  0.20945  0.76681  0.39285  1.0000
  C   C52       1.0  0.79055  0.23320  0.60715  1.0000
  N   N1        1.0  0.35535  0.63555  0.09897  1.0000
  N   N2        1.0  0.64465  0.36445  0.90103  1.0000
  N   N3        1.0  0.28855  0.64817  0.37069  1.0000
  N   N4        1.0  0.71144  0.35183  0.62931  1.0000
  O   O1        1.0  0.21886  0.11117  0.54172  1.0000
  O   O2        1.0  0.78114  0.88883  0.45829  1.0000
  O   O3        1.0  0.44566  0.13757  0.43273  1.0000
  O   O4        1.0  0.55433  0.86243  0.56727  1.0000
  O   O5        1.0  0.97679  0.12843  0.39113  1.0000
  O   O6        1.0  0.02321  0.87157  0.60887  1.0000
  O   O7        1.0  0.73606  0.29605  0.36272  1.0000
  O   O8        1.0  0.26394  0.70395  0.63728  1.0000
  O   O9        1.0  0.53654  0.95764  0.28995  1.0000
  O   O10       1.0  0.46347  0.04236  0.71005  1.0000
  O   O11       1.0  0.92777  0.14929  0.18579  1.0000
  O   O12       1.0  0.07223  0.85071  0.81421  1.0000
  O   O13       1.0  0.92341  0.94040  0.25049  1.0000
  O   O14       1.0  0.07659  0.05960  0.74951  1.0000
  O   O15       1.0  0.04616  0.28125  0.04298  1.0000
  O   O16       1.0  0.95384  0.71875  0.95702  1.0000
  O   O17       1.0  0.19072  0.25281  0.90680  1.0000
  O   O18       1.0  0.80929  0.74719  0.09320  1.0000
  O   O19       1.0  0.52043  0.23732  0.21231  1.0000
  O   O20       1.0  0.47956  0.76268  0.78769  1.0000
