data_image0
_chemical_formula_structural       H32Au4C20S8N4
_chemical_formula_sum              "H32 Au4 C20 S8 N4"
_cell_length_a       6.29565
_cell_length_b       7.55632
_cell_length_c       16.5395
_cell_angle_alpha    90.0002
_cell_angle_beta     90.0001
_cell_angle_gamma    98.8369

_space_group_name_H-M_alt    "P 1"
_space_group_IT_number       1

loop_
  _space_group_symop_operation_xyz
  'x, y, z'

loop_
  _atom_site_type_symbol
  _atom_site_label
  _atom_site_symmetry_multiplicity
  _atom_site_fract_x
  _atom_site_fract_y
  _atom_site_fract_z
  _atom_site_occupancy
  H   H1        1.0  0.22346  0.46907  0.43927  1.0000
  H   H2        1.0  0.77657  0.03094  0.93929  1.0000
  H   H3        1.0  0.77650  0.53102  0.56073  1.0000
  H   H4        1.0  0.22352  0.96896  0.06074  1.0000
  H   H5        1.0  0.12112  0.66888  0.46770  1.0000
  H   H6        1.0  0.87893  0.83109  0.96770  1.0000
  H   H7        1.0  0.87879  0.33118  0.53229  1.0000
  H   H8        1.0  0.12123  0.16879  0.03227  1.0000
  H   H9        1.0  0.06046  0.55419  0.31381  1.0000
  H   H10       1.0  0.93952  0.94586  0.81381  1.0000
  H   H11       1.0  0.93955  0.44583  0.68617  1.0000
  H   H12       1.0  0.06043  0.05418  0.18617  1.0000
  H   H13       1.0  0.15921  0.78485  0.32885  1.0000
  H   H14       1.0  0.84079  0.71517  0.82885  1.0000
  H   H15       1.0  0.84075  0.21518  0.67113  1.0000
  H   H16       1.0  0.15926  0.28485  0.17110  1.0000
  H   H17       1.0  0.41199  0.67049  0.23209  1.0000
  H   H18       1.0  0.58798  0.82956  0.73210  1.0000
  H   H19       1.0  0.58805  0.32955  0.76790  1.0000
  H   H20       1.0  0.41194  0.17047  0.26791  1.0000
  H   H21       1.0  0.43047  0.48609  0.29757  1.0000
  H   H22       1.0  0.56947  0.01388  0.79758  1.0000
  H   H23       1.0  0.56955  0.51392  0.70245  1.0000
  H   H24       1.0  0.43043  0.98608  0.20247  1.0000
  H   H25       1.0  0.60791  0.88194  0.32632  1.0000
  H   H26       1.0  0.39213  0.61805  0.82633  1.0000
  H   H27       1.0  0.39207  0.11811  0.67369  1.0000
  H   H28       1.0  0.60799  0.38186  0.17369  1.0000
  H   H29       1.0  0.74143  0.69050  0.33677  1.0000
  H   H30       1.0  0.25853  0.80944  0.83678  1.0000
  H   H31       1.0  0.25854  0.30953  0.66326  1.0000
  H   H32       1.0  0.74144  0.19041  0.16327  1.0000
  Au  Au1       1.0  0.99996  0.00001  0.49998  1.0000
  Au  Au2       1.0  0.00004  0.49997  0.00000  1.0000
  Au  Au3       1.0  0.49994  0.00004  0.50000  1.0000
  Au  Au4       1.0  0.50007  0.49995  0.00000  1.0000
  C   C1        1.0  0.15854  0.75935  0.63281  1.0000
  C   C2        1.0  0.84149  0.74070  0.13283  1.0000
  C   C3        1.0  0.84144  0.24076  0.36715  1.0000
  C   C4        1.0  0.15858  0.25932  0.86717  1.0000
  C   C5        1.0  0.22981  0.61244  0.42666  1.0000
  C   C6        1.0  0.77019  0.88753  0.92667  1.0000
  C   C7        1.0  0.77013  0.38762  0.57333  1.0000
  C   C8        1.0  0.22986  0.11236  0.07333  1.0000
  C   C9        1.0  0.19648  0.64841  0.33739  1.0000
  C   C10       1.0  0.80351  0.85161  0.83737  1.0000
  C   C11       1.0  0.80350  0.35164  0.66260  1.0000
  C   C12       1.0  0.19648  0.14837  0.16259  1.0000
  C   C13       1.0  0.40689  0.62706  0.29545  1.0000
  C   C14       1.0  0.59313  0.87296  0.79545  1.0000
  C   C15       1.0  0.59314  0.37298  0.70456  1.0000
  C   C16       1.0  0.40688  0.12704  0.20456  1.0000
  C   C17       1.0  0.58758  0.73979  0.34237  1.0000
  C   C18       1.0  0.41244  0.76019  0.84239  1.0000
  C   C19       1.0  0.41242  0.26025  0.65763  1.0000
  C   C20       1.0  0.58760  0.23973  0.15763  1.0000
  S   S1        1.0  0.95410  0.87448  0.62802  1.0000
  S   S2        1.0  0.04589  0.62550  0.12804  1.0000
  S   S3        1.0  0.04582  0.12557  0.37194  1.0000
  S   S4        1.0  0.95414  0.37444  0.87196  1.0000
  S   S5        1.0  0.50768  0.71438  0.44980  1.0000
  S   S6        1.0  0.49233  0.78562  0.94980  1.0000
  S   S7        1.0  0.49224  0.28571  0.55021  1.0000
  S   S8        1.0  0.50775  0.21426  0.05020  1.0000
  N   N1        1.0  0.29851  0.67267  0.63824  1.0000
  N   N2        1.0  0.70147  0.82735  0.13824  1.0000
  N   N3        1.0  0.70144  0.32746  0.36175  1.0000
  N   N4        1.0  0.29855  0.17259  0.86175  1.0000
