data_image0
_chemical_formula_structural       Na4H12C24O26
_chemical_formula_sum              "Na4 H12 C24 O26"
_cell_length_a       6.65677
_cell_length_b       10.3248
_cell_length_c       11.2783
_cell_angle_alpha    97.3235
_cell_angle_beta     89.9994
_cell_angle_gamma    108.817

_space_group_name_H-M_alt    "P 1"
_space_group_IT_number       1

loop_
  _space_group_symop_operation_xyz
  'x, y, z'

loop_
  _atom_site_type_symbol
  _atom_site_label
  _atom_site_symmetry_multiplicity
  _atom_site_fract_x
  _atom_site_fract_y
  _atom_site_fract_z
  _atom_site_occupancy
  Na  Na1       1.0  0.45054  0.10883  0.62547  1.0000
  Na  Na2       1.0  0.34184  0.89117  0.87467  1.0000
  Na  Na3       1.0  0.54946  0.89117  0.37453  1.0000
  Na  Na4       1.0  0.65816  0.10883  0.12533  1.0000
  H   H1        1.0  0.63509  0.59682  0.70746  1.0000
  H   H2        1.0  0.03862  0.40361  0.79257  1.0000
  H   H3        1.0  0.36490  0.40318  0.29254  1.0000
  H   H4        1.0  0.96138  0.59639  0.20743  1.0000
  H   H5        1.0  0.79139  0.77274  0.22050  1.0000
  H   H6        1.0  0.01844  0.22685  0.27955  1.0000
  H   H7        1.0  0.20861  0.22726  0.77951  1.0000
  H   H8        1.0  0.98156  0.77314  0.72045  1.0000
  H   H9        1.0  0.69538  0.92666  0.71373  1.0000
  H   H10       1.0  0.76885  0.07360  0.78634  1.0000
  H   H11       1.0  0.30462  0.07334  0.28627  1.0000
  H   H12       1.0  0.23115  0.92640  0.21366  1.0000
  C   C1        1.0  0.16948  0.79677  0.58066  1.0000
  C   C2        1.0  0.37297  0.20333  0.91911  1.0000
  C   C3        1.0  0.83052  0.20323  0.41934  1.0000
  C   C4        1.0  0.62703  0.79667  0.08089  1.0000
  C   C5        1.0  0.07930  0.64260  0.54087  1.0000
  C   C6        1.0  0.43690  0.35743  0.95905  1.0000
  C   C7        1.0  0.92070  0.35740  0.45913  1.0000
  C   C8        1.0  0.56311  0.64257  0.04095  1.0000
  C   C9        1.0  0.17112  0.55150  0.58347  1.0000
  C   C10       1.0  0.61966  0.44870  0.91644  1.0000
  C   C11       1.0  0.82887  0.44850  0.41653  1.0000
  C   C12       1.0  0.38034  0.55130  0.08356  1.0000
  C   C13       1.0  0.36231  0.60997  0.66749  1.0000
  C   C14       1.0  0.75254  0.39037  0.83240  1.0000
  C   C15       1.0  0.63768  0.39003  0.33251  1.0000
  C   C16       1.0  0.24747  0.60963  0.16760  1.0000
  C   C17       1.0  0.90986  0.59126  0.45553  1.0000
  C   C18       1.0  0.31873  0.40857  0.04450  1.0000
  C   C19       1.0  0.09013  0.40874  0.54447  1.0000
  C   C20       1.0  0.68128  0.59143  0.95550  1.0000
  C   C21       1.0  0.83017  0.69075  0.39738  1.0000
  C   C22       1.0  0.13953  0.30887  0.10251  1.0000
  C   C23       1.0  0.16983  0.30925  0.60262  1.0000
  C   C24       1.0  0.86048  0.69113  0.89749  1.0000
  O   O1        1.0  0.30957  0.87159  0.52436  1.0000
  O   O2        1.0  0.43832  0.12845  0.97527  1.0000
  O   O3        1.0  0.69043  0.12841  0.47563  1.0000
  O   O4        1.0  0.56168  0.87155  0.02473  1.0000
  O   O5        1.0  0.09362  0.84953  0.67545  1.0000
  O   O6        1.0  0.24424  0.15072  0.82436  1.0000
  O   O7        1.0  0.90638  0.15047  0.32455  1.0000
  O   O8        1.0  0.75576  0.84928  0.17564  1.0000
  O   O9        1.0  0.38261  0.71002  0.74481  1.0000
  O   O10       1.0  0.67292  0.29032  0.75507  1.0000
  O   O11       1.0  0.61739  0.28998  0.25519  1.0000
  O   O12       1.0  0.32709  0.70968  0.24493  1.0000
  O   O13       1.0  0.50590  0.54759  0.64821  1.0000
  O   O14       1.0  0.95854  0.45281  0.85177  1.0000
  O   O15       1.0  0.49409  0.45241  0.35179  1.0000
  O   O16       1.0  0.04147  0.54719  0.14823  1.0000
  O   O17       1.0  0.76695  0.77797  0.45787  1.0000
  O   O18       1.0  0.98918  0.22166  0.04191  1.0000
  O   O19       1.0  0.23305  0.22202  0.54213  1.0000
  O   O20       1.0  0.01081  0.77834  0.95808  1.0000
  O   O21       1.0  0.84312  0.67796  0.28146  1.0000
  O   O22       1.0  0.16516  0.32152  0.21843  1.0000
  O   O23       1.0  0.15688  0.32204  0.71854  1.0000
  O   O24       1.0  0.83485  0.67848  0.78157  1.0000
  O   O25       1.0  0.64378  0.00010  0.75005  1.0000
  O   O26       1.0  0.35621  0.99990  0.24996  1.0000
