data_image0
_chemical_formula_structural       Hg4H40C32N20O20
_chemical_formula_sum              "Hg4 H40 C32 N20 O20"
_cell_length_a       5.32444
_cell_length_b       13.5989
_cell_length_c       16.956
_cell_angle_alpha    100.797
_cell_angle_beta     90
_cell_angle_gamma    101.29

_space_group_name_H-M_alt    "P 1"
_space_group_IT_number       1

loop_
  _space_group_symop_operation_xyz
  'x, y, z'

loop_
  _atom_site_type_symbol
  _atom_site_label
  _atom_site_symmetry_multiplicity
  _atom_site_fract_x
  _atom_site_fract_y
  _atom_site_fract_z
  _atom_site_occupancy
  Hg  Hg1       1.0  0.06145  0.05651  0.19682  1.0000
  Hg  Hg2       1.0  0.00474  0.94311  0.30328  1.0000
  Hg  Hg3       1.0  0.93855  0.94349  0.80318  1.0000
  Hg  Hg4       1.0  0.99526  0.05689  0.69672  1.0000
  H   H1        1.0  0.90159  0.14616  0.03621  1.0000
  H   H2        1.0  0.75484  0.85337  0.46382  1.0000
  H   H3        1.0  0.09842  0.85384  0.96378  1.0000
  H   H4        1.0  0.24518  0.14663  0.53618  1.0000
  H   H5        1.0  0.22776  0.46201  0.16463  1.0000
  H   H6        1.0  0.76586  0.53773  0.33538  1.0000
  H   H7        1.0  0.77225  0.53800  0.83538  1.0000
  H   H8        1.0  0.23413  0.46227  0.66462  1.0000
  H   H9        1.0  0.02443  0.55271  0.18594  1.0000
  H   H10       1.0  0.47169  0.44711  0.31402  1.0000
  H   H11       1.0  0.97558  0.44730  0.81407  1.0000
  H   H12       1.0  0.52830  0.55288  0.68599  1.0000
  H   H13       1.0  0.08449  0.50291  0.08363  1.0000
  H   H14       1.0  0.58168  0.49676  0.41634  1.0000
  H   H15       1.0  0.91552  0.49709  0.91637  1.0000
  H   H16       1.0  0.41830  0.50324  0.58366  1.0000
  H   H17       1.0  0.58637  0.16604  0.27657  1.0000
  H   H18       1.0  0.41939  0.83368  0.22345  1.0000
  H   H19       1.0  0.41364  0.83396  0.72343  1.0000
  H   H20       1.0  0.58061  0.16631  0.77655  1.0000
  H   H21       1.0  0.65115  0.29454  0.33193  1.0000
  H   H22       1.0  0.35656  0.70511  0.16820  1.0000
  H   H23       1.0  0.34886  0.70546  0.66807  1.0000
  H   H24       1.0  0.64344  0.29489  0.83180  1.0000
  H   H25       1.0  0.33169  0.23513  0.29632  1.0000
  H   H26       1.0  0.09582  0.76423  0.20368  1.0000
  H   H27       1.0  0.66831  0.76487  0.70368  1.0000
  H   H28       1.0  0.90419  0.23577  0.79632  1.0000
  H   H29       1.0  0.22702  0.36948  0.95432  1.0000
  H   H30       1.0  0.85766  0.63037  0.54593  1.0000
  H   H31       1.0  0.77300  0.63052  0.04568  1.0000
  H   H32       1.0  0.14233  0.36962  0.45407  1.0000
  H   H33       1.0  0.97994  0.25573  0.93409  1.0000
  H   H34       1.0  0.72417  0.74410  0.56603  1.0000
  H   H35       1.0  0.02008  0.74427  0.06591  1.0000
  H   H36       1.0  0.27582  0.25591  0.43397  1.0000
  H   H37       1.0  0.30206  0.24982  0.90690  1.0000
  H   H38       1.0  0.05218  0.75012  0.59324  1.0000
  H   H39       1.0  0.69796  0.75018  0.09310  1.0000
  H   H40       1.0  0.94782  0.24988  0.40676  1.0000
  C   C1        1.0  0.05849  0.48535  0.14374  1.0000
  C   C2        1.0  0.57319  0.51442  0.35627  1.0000
  C   C3        1.0  0.94152  0.51465  0.85626  1.0000
  C   C4        1.0  0.42680  0.48557  0.64373  1.0000
  C   C5        1.0  0.80650  0.35559  0.20758  1.0000
  C   C6        1.0  0.45089  0.64424  0.29249  1.0000
  C   C7        1.0  0.19349  0.64441  0.79242  1.0000
  C   C8        1.0  0.54911  0.35576  0.70751  1.0000
  C   C9        1.0  0.53483  0.24128  0.28305  1.0000
  C   C10       1.0  0.29302  0.75835  0.21701  1.0000
  C   C11       1.0  0.46518  0.75872  0.71695  1.0000
  C   C12       1.0  0.70698  0.24165  0.78299  1.0000
  C   C13       1.0  0.40933  0.25780  0.14600  1.0000
  C   C14       1.0  0.15151  0.74196  0.35415  1.0000
  C   C15       1.0  0.59068  0.74220  0.85400  1.0000
  C   C16       1.0  0.84848  0.25804  0.64585  1.0000
  C   C17       1.0  0.44460  0.30479  0.07996  1.0000
  C   C18       1.0  0.13990  0.69501  0.42019  1.0000
  C   C19       1.0  0.55542  0.69521  0.92004  1.0000
  C   C20       1.0  0.86008  0.30499  0.57980  1.0000
  C   C21       1.0  0.66297  0.38224  0.07286  1.0000
  C   C22       1.0  0.28092  0.61753  0.42724  1.0000
  C   C23       1.0  0.33705  0.61776  0.92714  1.0000
  C   C24       1.0  0.71904  0.38246  0.57275  1.0000
  C   C25       1.0  0.18202  0.28667  0.95091  1.0000
  C   C26       1.0  0.89536  0.71317  0.54924  1.0000
  C   C27       1.0  0.81800  0.71334  0.04909  1.0000
  C   C28       1.0  0.10463  0.28683  0.45076  1.0000
  C   C29       1.0  0.07938  0.19351  0.06400  1.0000
  C   C30       1.0  0.88556  0.80613  0.43609  1.0000
  C   C31       1.0  0.92063  0.80649  0.93600  1.0000
  C   C32       1.0  0.11443  0.19386  0.56391  1.0000
  N   N1        1.0  0.83410  0.40290  0.14073  1.0000
  N   N2        1.0  0.43138  0.59694  0.35935  1.0000
  N   N3        1.0  0.16591  0.59711  0.85927  1.0000
  N   N4        1.0  0.56860  0.40305  0.64064  1.0000
  N   N5        1.0  0.58180  0.28306  0.20997  1.0000
  N   N6        1.0  0.29858  0.71672  0.29014  1.0000
  N   N7        1.0  0.41821  0.71694  0.79003  1.0000
  N   N8        1.0  0.70141  0.28328  0.70985  1.0000
  N   N9        1.0  0.23001  0.26336  0.02937  1.0000
  N   N10       1.0  0.96667  0.73638  0.47075  1.0000
  N   N11       1.0  0.77000  0.73664  0.97063  1.0000
  N   N12       1.0  0.03332  0.26361  0.52924  1.0000
  N   N13       1.0  0.18152  0.18854  0.13566  1.0000
  N   N14       1.0  0.99264  0.81111  0.36443  1.0000
  N   N15       1.0  0.81848  0.81147  0.86434  1.0000
  N   N16       1.0  0.00736  0.18890  0.63557  1.0000
  N   N17       1.0  0.54680  0.96815  0.09735  1.0000
  N   N18       1.0  0.57911  0.03188  0.40280  1.0000
  N   N19       1.0  0.45320  0.03186  0.90265  1.0000
  N   N20       1.0  0.42089  0.96811  0.59720  1.0000
  O   O1        1.0  0.97150  0.37740  0.26270  1.0000
  O   O2        1.0  0.59387  0.62236  0.23733  1.0000
  O   O3        1.0  0.02851  0.62260  0.73730  1.0000
  O   O4        1.0  0.40613  0.37764  0.76267  1.0000
  O   O5        1.0  0.70650  0.42724  0.01586  1.0000
  O   O6        1.0  0.27936  0.57249  0.48421  1.0000
  O   O7        1.0  0.29352  0.57276  0.98414  1.0000
  O   O8        1.0  0.72056  0.42749  0.51577  1.0000
  O   O9        1.0  0.55149  0.05105  0.14840  1.0000
  O   O10       1.0  0.50016  0.94889  0.35192  1.0000
  O   O11       1.0  0.44850  0.94895  0.85160  1.0000
  O   O12       1.0  0.49983  0.05111  0.64808  1.0000
  O   O13       1.0  0.33775  0.90648  0.07728  1.0000
  O   O14       1.0  0.43217  0.09369  0.42297  1.0000
  O   O15       1.0  0.66225  0.09352  0.92272  1.0000
  O   O16       1.0  0.56785  0.90631  0.57704  1.0000
  O   O17       1.0  0.75676  0.94966  0.06901  1.0000
  O   O18       1.0  0.80781  0.05027  0.43094  1.0000
  O   O19       1.0  0.24323  0.05035  0.93099  1.0000
  O   O20       1.0  0.19218  0.94971  0.56907  1.0000
