data_image0
_chemical_formula_structural       Zn4H40C60N4O16
_chemical_formula_sum              "Zn4 H40 C60 N4 O16"
_cell_length_a       10.3266
_cell_length_b       13.2781
_cell_length_c       13.1953
_cell_angle_alpha    101.123
_cell_angle_beta     105.896
_cell_angle_gamma    105.68

_space_group_name_H-M_alt    "P 1"
_space_group_IT_number       1

loop_
  _space_group_symop_operation_xyz
  'x, y, z'

loop_
  _atom_site_type_symbol
  _atom_site_label
  _atom_site_symmetry_multiplicity
  _atom_site_fract_x
  _atom_site_fract_y
  _atom_site_fract_z
  _atom_site_occupancy
  Zn  Zn1       1.0  0.90592  0.27811  0.83041  1.0000
  Zn  Zn2       1.0  0.59464  0.17100  0.72153  1.0000
  Zn  Zn3       1.0  0.09408  0.72189  0.16959  1.0000
  Zn  Zn4       1.0  0.40536  0.82900  0.27847  1.0000
  H   H1        1.0  0.59272  0.84046  0.66937  1.0000
  H   H2        1.0  0.90584  0.33054  0.16036  1.0000
  H   H3        1.0  0.40727  0.15954  0.33063  1.0000
  H   H4        1.0  0.09416  0.66946  0.83965  1.0000
  H   H5        1.0  0.59614  0.66049  0.68895  1.0000
  H   H6        1.0  0.90244  0.30966  0.34119  1.0000
  H   H7        1.0  0.40386  0.33951  0.31105  1.0000
  H   H8        1.0  0.09756  0.69034  0.65881  1.0000
  H   H9        1.0  0.01400  0.99556  0.91274  1.0000
  H   H10       1.0  0.48588  0.08767  0.00208  1.0000
  H   H11       1.0  0.98600  0.00445  0.08726  1.0000
  H   H12       1.0  0.51412  0.91233  0.99792  1.0000
  H   H13       1.0  0.35887  0.61385  0.99302  1.0000
  H   H14       1.0  0.13956  0.00587  0.38427  1.0000
  H   H15       1.0  0.64113  0.38614  0.00698  1.0000
  H   H16       1.0  0.86045  0.99413  0.61573  1.0000
  H   H17       1.0  0.09872  0.50896  0.92227  1.0000
  H   H18       1.0  0.40008  0.07750  0.48919  1.0000
  H   H19       1.0  0.90128  0.49104  0.07773  1.0000
  H   H20       1.0  0.59992  0.92251  0.51081  1.0000
  H   H21       1.0  0.16905  0.21415  0.88445  1.0000
  H   H22       1.0  0.33330  0.11700  0.78701  1.0000
  H   H23       1.0  0.83094  0.78585  0.11555  1.0000
  H   H24       1.0  0.66669  0.88300  0.21299  1.0000
  H   H25       1.0  0.43271  0.30475  0.95040  1.0000
  H   H26       1.0  0.06920  0.05009  0.69648  1.0000
  H   H27       1.0  0.56729  0.69525  0.04960  1.0000
  H   H28       1.0  0.93079  0.94991  0.30352  1.0000
  H   H29       1.0  0.01592  0.81453  0.93924  1.0000
  H   H30       1.0  0.48450  0.05987  0.18422  1.0000
  H   H31       1.0  0.98408  0.18547  0.06076  1.0000
  H   H32       1.0  0.51550  0.94013  0.81578  1.0000
  H   H33       1.0  0.60154  0.51328  0.72748  1.0000
  H   H34       1.0  0.89831  0.27074  0.48639  1.0000
  H   H35       1.0  0.39846  0.48672  0.27252  1.0000
  H   H36       1.0  0.10169  0.72926  0.51361  1.0000
  H   H37       1.0  0.91547  0.62077  0.88396  1.0000
  H   H38       1.0  0.58472  0.11483  0.37939  1.0000
  H   H39       1.0  0.08454  0.37924  0.11605  1.0000
  H   H40       1.0  0.41528  0.88517  0.62061  1.0000
  C   C1        1.0  0.79499  0.03886  0.78242  1.0000
  C   C2        1.0  0.70454  0.21899  0.96074  1.0000
  C   C3        1.0  0.20501  0.96114  0.21757  1.0000
  C   C4        1.0  0.29546  0.78102  0.03927  1.0000
  C   C5        1.0  0.80248  0.92973  0.79098  1.0000
  C   C6        1.0  0.69675  0.20941  0.06986  1.0000
  C   C7        1.0  0.19752  0.07027  0.20902  1.0000
  C   C8        1.0  0.30326  0.79059  0.93015  1.0000
  C   C9        1.0  0.68532  0.83435  0.72813  1.0000
  C   C10       1.0  0.81369  0.27171  0.16611  1.0000
  C   C11       1.0  0.31468  0.16565  0.27187  1.0000
  C   C12       1.0  0.18631  0.72829  0.83390  1.0000
  C   C13       1.0  0.68750  0.73343  0.73999  1.0000
  C   C14       1.0  0.81156  0.25913  0.26729  1.0000
  C   C15       1.0  0.31250  0.26657  0.26001  1.0000
  C   C16       1.0  0.18844  0.74086  0.73272  1.0000
  C   C17       1.0  0.92281  0.92146  0.86499  1.0000
  C   C18       1.0  0.57671  0.13502  0.07706  1.0000
  C   C19       1.0  0.07719  0.07854  0.13501  1.0000
  C   C20       1.0  0.42329  0.86498  0.92294  1.0000
  C   C21       1.0  0.32324  0.52526  0.96923  1.0000
  C   C22       1.0  0.17594  0.03033  0.47352  1.0000
  C   C23       1.0  0.67676  0.47474  0.03076  1.0000
  C   C24       1.0  0.82407  0.96967  0.52647  1.0000
  C   C25       1.0  0.17718  0.46761  0.92988  1.0000
  C   C26       1.0  0.32225  0.07016  0.53120  1.0000
  C   C27       1.0  0.82282  0.53239  0.07011  1.0000
  C   C28       1.0  0.67775  0.92984  0.46880  1.0000
  C   C29       1.0  0.21720  0.30286  0.90888  1.0000
  C   C30       1.0  0.28421  0.09201  0.69766  1.0000
  C   C31       1.0  0.78280  0.69714  0.09112  1.0000
  C   C32       1.0  0.71579  0.90799  0.30234  1.0000
  C   C33       1.0  0.36467  0.35493  0.94693  1.0000
  C   C34       1.0  0.13659  0.05356  0.64566  1.0000
  C   C35       1.0  0.63533  0.64507  0.05307  1.0000
  C   C36       1.0  0.86341  0.94644  0.35434  1.0000
  C   C37       1.0  0.92381  0.82045  0.87920  1.0000
  C   C38       1.0  0.57595  0.11997  0.17838  1.0000
  C   C39       1.0  0.07619  0.17955  0.12080  1.0000
  C   C40       1.0  0.42406  0.88003  0.82162  1.0000
  C   C41       1.0  0.42179  0.46978  0.97890  1.0000
  C   C42       1.0  0.07835  0.02114  0.53001  1.0000
  C   C43       1.0  0.57821  0.53022  0.02110  1.0000
  C   C44       1.0  0.92165  0.97887  0.46999  1.0000
  C   C45       1.0  0.80618  0.72450  0.81675  1.0000
  C   C46       1.0  0.69324  0.18206  0.27515  1.0000
  C   C47       1.0  0.19382  0.27550  0.18325  1.0000
  C   C48       1.0  0.30676  0.81794  0.72486  1.0000
  C   C49       1.0  0.81355  0.61946  0.82959  1.0000
  C   C50       1.0  0.68615  0.16888  0.38053  1.0000
  C   C51       1.0  0.18646  0.38054  0.17041  1.0000
  C   C52       1.0  0.31385  0.83112  0.61948  1.0000
  C   C53       1.0  0.70829  0.52166  0.77955  1.0000
  C   C54       1.0  0.79214  0.21901  0.47861  1.0000
  C   C55       1.0  0.29171  0.47834  0.22045  1.0000
  C   C56       1.0  0.20786  0.78099  0.52140  1.0000
  C   C57       1.0  0.72935  0.41726  0.78792  1.0000
  C   C58       1.0  0.77183  0.21114  0.58359  1.0000
  C   C59       1.0  0.27065  0.58274  0.21208  1.0000
  C   C60       1.0  0.22816  0.78886  0.41642  1.0000
  N   N1        1.0  0.12413  0.35770  0.90001  1.0000
  N   N2        1.0  0.37633  0.10082  0.64189  1.0000
  N   N3        1.0  0.87586  0.64230  0.09999  1.0000
  N   N4        1.0  0.62366  0.89918  0.35811  1.0000
  O   O1        1.0  0.91250  0.11926  0.81663  1.0000
  O   O2        1.0  0.58717  0.18546  0.87959  1.0000
  O   O3        1.0  0.08750  0.88074  0.18337  1.0000
  O   O4        1.0  0.41284  0.81455  0.12041  1.0000
  O   O5        1.0  0.85465  0.41885  0.83882  1.0000
  O   O6        1.0  0.64653  0.16092  0.58173  1.0000
  O   O7        1.0  0.14535  0.58115  0.16119  1.0000
  O   O8        1.0  0.35347  0.83908  0.41827  1.0000
  O   O9        1.0  0.61728  0.33194  0.74028  1.0000
  O   O10       1.0  0.88403  0.25831  0.66948  1.0000
  O   O11       1.0  0.38272  0.66806  0.25972  1.0000
  O   O12       1.0  0.11597  0.74169  0.33052  1.0000
  O   O13       1.0  0.66981  0.04271  0.74191  1.0000
  O   O14       1.0  0.82979  0.25944  0.95751  1.0000
  O   O15       1.0  0.33019  0.95729  0.25809  1.0000
  O   O16       1.0  0.17021  0.74056  0.04250  1.0000
