data_image0
_chemical_formula_structural       Gd4H44C36S18N12O34
_chemical_formula_sum              "Gd4 H44 C36 S18 N12 O34"
_cell_length_a       9.53338
_cell_length_b       13.3028
_cell_length_c       14.9519
_cell_angle_alpha    65.5357
_cell_angle_beta     82.0314
_cell_angle_gamma    80.0123

_space_group_name_H-M_alt    "P 1"
_space_group_IT_number       1

loop_
  _space_group_symop_operation_xyz
  'x, y, z'

loop_
  _atom_site_type_symbol
  _atom_site_label
  _atom_site_symmetry_multiplicity
  _atom_site_fract_x
  _atom_site_fract_y
  _atom_site_fract_z
  _atom_site_occupancy
  Gd  Gd1       1.0  0.65894  0.05573  0.04314  1.0000
  Gd  Gd2       1.0  0.34106  0.94427  0.95685  1.0000
  Gd  Gd3       1.0  0.78884  0.53627  0.94947  1.0000
  Gd  Gd4       1.0  0.21117  0.46374  0.05053  1.0000
  H   H1        1.0  0.66453  0.96109  0.27309  1.0000
  H   H2        1.0  0.33548  0.03891  0.72691  1.0000
  H   H3        1.0  0.55765  0.07573  0.23365  1.0000
  H   H4        1.0  0.44235  0.92426  0.76636  1.0000
  H   H5        1.0  0.70733  0.65061  0.66861  1.0000
  H   H6        1.0  0.29265  0.34939  0.33140  1.0000
  H   H7        1.0  0.82901  0.74768  0.64890  1.0000
  H   H8        1.0  0.17098  0.25233  0.35110  1.0000
  H   H9        1.0  0.82534  0.85878  0.19284  1.0000
  H   H10       1.0  0.17466  0.14122  0.80716  1.0000
  H   H11       1.0  0.93350  0.91130  0.09813  1.0000
  H   H12       1.0  0.06651  0.08869  0.90187  1.0000
  H   H13       1.0  0.41270  0.21144  0.10536  1.0000
  H   H14       1.0  0.58730  0.78855  0.89464  1.0000
  H   H15       1.0  0.35941  0.11335  0.08857  1.0000
  H   H16       1.0  0.64059  0.88665  0.91142  1.0000
  H   H17       1.0  0.82644  0.24498  0.00332  1.0000
  H   H18       1.0  0.17356  0.75502  0.99668  1.0000
  H   H19       1.0  0.74459  0.22861  0.10356  1.0000
  H   H20       1.0  0.25540  0.77139  0.89644  1.0000
  H   H21       1.0  0.91270  0.70433  0.18587  1.0000
  H   H22       1.0  0.08730  0.29566  0.81413  1.0000
  H   H23       1.0  0.08327  0.73812  0.19020  1.0000
  H   H24       1.0  0.91673  0.26188  0.80980  1.0000
  H   H25       1.0  0.76882  0.73335  0.99628  1.0000
  H   H26       1.0  0.23118  0.26665  0.00373  1.0000
  H   H27       1.0  0.93293  0.68257  0.00992  1.0000
  H   H28       1.0  0.06707  0.31744  0.99008  1.0000
  H   H29       1.0  0.59511  0.47298  0.75056  1.0000
  H   H30       1.0  0.40489  0.52702  0.24944  1.0000
  H   H31       1.0  0.49286  0.59648  0.75638  1.0000
  H   H32       1.0  0.50714  0.40352  0.24361  1.0000
  H   H33       1.0  0.47428  0.85040  0.28240  1.0000
  H   H34       1.0  0.52571  0.14960  0.71760  1.0000
  H   H35       1.0  0.57551  0.72758  0.27542  1.0000
  H   H36       1.0  0.42449  0.27242  0.72458  1.0000
  H   H37       1.0  0.98049  0.75899  0.75736  1.0000
  H   H38       1.0  0.01951  0.24101  0.24265  1.0000
  H   H39       1.0  0.05756  0.65541  0.71202  1.0000
  H   H40       1.0  0.94244  0.34459  0.28798  1.0000
  H   H41       1.0  0.03594  0.90271  0.26038  1.0000
  H   H42       1.0  0.96406  0.09728  0.73962  1.0000
  H   H43       1.0  0.96206  0.04159  0.19079  1.0000
  H   H44       1.0  0.03794  0.95841  0.80922  1.0000
  C   C1        1.0  0.63744  0.76309  0.74145  1.0000
  C   C2        1.0  0.36256  0.23691  0.25855  1.0000
  C   C3        1.0  0.71547  0.73676  0.65646  1.0000
  C   C4        1.0  0.28453  0.26324  0.34354  1.0000
  C   C5        1.0  0.73695  0.78690  0.46285  1.0000
  C   C6        1.0  0.26305  0.21309  0.53715  1.0000
  C   C7        1.0  0.89010  0.68820  0.37652  1.0000
  C   C8        1.0  0.10990  0.31180  0.62348  1.0000
  C   C9        1.0  0.01966  0.66894  0.21183  1.0000
  C   C10       1.0  0.98034  0.33107  0.78817  1.0000
  C   C11       1.0  0.08769  0.59322  0.16179  1.0000
  C   C12       1.0  0.91231  0.40678  0.83821  1.0000
  C   C13       1.0  0.49367  0.45615  0.89412  1.0000
  C   C14       1.0  0.50633  0.54386  0.10588  1.0000
  C   C15       1.0  0.49688  0.50579  0.78250  1.0000
  C   C16       1.0  0.50312  0.49422  0.21750  1.0000
  C   C17       1.0  0.37666  0.55490  0.61524  1.0000
  C   C18       1.0  0.62333  0.44510  0.38476  1.0000
  C   C19       1.0  0.37004  0.65030  0.44048  1.0000
  C   C20       1.0  0.62996  0.34970  0.55952  1.0000
  C   C21       1.0  0.47388  0.78271  0.25862  1.0000
  C   C22       1.0  0.52612  0.21729  0.74138  1.0000
  C   C23       1.0  0.45484  0.82932  0.14961  1.0000
  C   C24       1.0  0.54516  0.17068  0.85039  1.0000
  C   C25       1.0  0.12489  0.62817  0.85230  1.0000
  C   C26       1.0  0.87511  0.37183  0.14771  1.0000
  C   C27       1.0  0.07933  0.70476  0.75078  1.0000
  C   C28       1.0  0.92067  0.29524  0.24922  1.0000
  C   C29       1.0  0.16435  0.84435  0.56666  1.0000
  C   C30       1.0  0.83565  0.15564  0.43334  1.0000
  C   C31       1.0  0.14257  0.94499  0.39416  1.0000
  C   C32       1.0  0.85744  0.05500  0.60584  1.0000
  C   C33       1.0  0.06273  0.98534  0.20944  1.0000
  C   C34       1.0  0.93727  0.01466  0.79056  1.0000
  C   C35       1.0  0.14340  0.98058  0.11582  1.0000
  C   C36       1.0  0.85660  0.01943  0.88418  1.0000
  S   S1        1.0  0.63326  0.83387  0.54497  1.0000
  S   S2        1.0  0.36674  0.16613  0.45503  1.0000
  S   S3        1.0  0.84967  0.66165  0.49962  1.0000
  S   S4        1.0  0.15034  0.33835  0.50038  1.0000
  S   S5        1.0  0.00687  0.59221  0.34331  1.0000
  S   S6        1.0  0.99314  0.40779  0.65669  1.0000
  S   S7        1.0  0.34232  0.47965  0.74095  1.0000
  S   S8        1.0  0.65767  0.52035  0.25905  1.0000
  S   S9        1.0  0.24739  0.58019  0.53376  1.0000
  S   S10       1.0  0.75261  0.41981  0.46624  1.0000
  S   S11       1.0  0.32552  0.70437  0.31936  1.0000
  S   S12       1.0  0.67448  0.29563  0.68064  1.0000
  S   S13       1.0  0.22188  0.78732  0.68482  1.0000
  S   S14       1.0  0.77812  0.21268  0.31518  1.0000
  S   S15       1.0  0.27832  0.91985  0.47019  1.0000
  S   S16       1.0  0.72169  0.08014  0.52981  1.0000
  S   S17       1.0  0.17199  0.03294  0.27078  1.0000
  S   S18       1.0  0.82801  0.96706  0.72922  1.0000
  N   N1        1.0  0.73687  0.83995  0.36627  1.0000
  N   N2        1.0  0.26313  0.16004  0.63373  1.0000
  N   N3        1.0  0.82313  0.78320  0.31708  1.0000
  N   N4        1.0  0.17687  0.21680  0.68293  1.0000
  N   N5        1.0  0.49444  0.59853  0.57207  1.0000
  N   N6        1.0  0.50556  0.40147  0.42792  1.0000
  N   N7        1.0  0.49091  0.65305  0.47179  1.0000
  N   N8        1.0  0.50909  0.34695  0.52820  1.0000
  N   N9        1.0  0.04153  0.83802  0.53917  1.0000
  N   N10       1.0  0.95848  0.16198  0.46083  1.0000
  N   N11       1.0  0.02919  0.89620  0.43972  1.0000
  N   N12       1.0  0.97081  0.10380  0.56028  1.0000
  O   O1        1.0  0.54131  0.84502  0.71955  1.0000
  O   O2        1.0  0.45868  0.15498  0.28045  1.0000
  O   O3        1.0  0.62427  0.02135  0.21222  1.0000
  O   O4        1.0  0.37573  0.97864  0.78778  1.0000
  O   O5        1.0  0.67485  0.70200  0.82909  1.0000
  O   O6        1.0  0.32515  0.29800  0.17091  1.0000
  O   O7        1.0  0.82958  0.90473  0.11970  1.0000
  O   O8        1.0  0.17042  0.09526  0.88030  1.0000
  O   O9        1.0  0.09097  0.63674  0.06653  1.0000
  O   O10       1.0  0.90903  0.36326  0.93347  1.0000
  O   O11       1.0  0.43504  0.16329  0.06789  1.0000
  O   O12       1.0  0.56496  0.83671  0.93211  1.0000
  O   O13       1.0  0.13794  0.49380  0.20872  1.0000
  O   O14       1.0  0.86206  0.50620  0.79127  1.0000
  O   O15       1.0  0.77684  0.18894  0.06000  1.0000
  O   O16       1.0  0.22316  0.81106  0.94000  1.0000
  O   O17       1.0  0.60309  0.45917  0.93131  1.0000
  O   O18       1.0  0.39693  0.54083  0.06869  1.0000
  O   O19       1.0  0.85155  0.69711  0.96945  1.0000
  O   O20       1.0  0.14845  0.30290  0.03055  1.0000
  O   O21       1.0  0.38153  0.41661  0.94305  1.0000
  O   O22       1.0  0.61848  0.58340  0.05695  1.0000
  O   O23       1.0  0.52351  0.90891  0.09015  1.0000
  O   O24       1.0  0.47649  0.09109  0.90985  1.0000
  O   O25       1.0  0.36700  0.79173  0.11893  1.0000
  O   O26       1.0  0.63301  0.20827  0.88107  1.0000
  O   O27       1.0  0.23625  0.63833  0.88330  1.0000
  O   O28       1.0  0.76374  0.36168  0.11670  1.0000
  O   O29       1.0  0.04699  0.55217  0.90722  1.0000
  O   O30       1.0  0.95301  0.44783  0.09278  1.0000
  O   O31       1.0  0.25377  0.02961  0.07949  1.0000
  O   O32       1.0  0.74623  0.97039  0.92051  1.0000
  O   O33       1.0  0.10110  0.92558  0.07444  1.0000
  O   O34       1.0  0.89890  0.07442  0.92556  1.0000
