data_image0
_chemical_formula_structural       Gd4H44C36S18N12O34
_chemical_formula_sum              "Gd4 H44 C36 S18 N12 O34"
_cell_length_a       9.58337
_cell_length_b       13.2385
_cell_length_c       14.9369
_cell_angle_alpha    65.4874
_cell_angle_beta     82.0517
_cell_angle_gamma    79.995

_space_group_name_H-M_alt    "P 1"
_space_group_IT_number       1

loop_
  _space_group_symop_operation_xyz
  'x, y, z'

loop_
  _atom_site_type_symbol
  _atom_site_label
  _atom_site_symmetry_multiplicity
  _atom_site_fract_x
  _atom_site_fract_y
  _atom_site_fract_z
  _atom_site_occupancy
  Gd  Gd1       1.0  0.83539  0.44815  0.45906  1.0000
  Gd  Gd2       1.0  0.16461  0.55185  0.54095  1.0000
  Gd  Gd3       1.0  0.70757  0.96136  0.55021  1.0000
  Gd  Gd4       1.0  0.29243  0.03864  0.44979  1.0000
  H   H1        1.0  0.98379  0.10398  0.26089  1.0000
  H   H2        1.0  0.01620  0.89601  0.73911  1.0000
  H   H3        1.0  0.09356  0.98557  0.24911  1.0000
  H   H4        1.0  0.90644  0.01443  0.75089  1.0000
  H   H5        1.0  0.07527  0.22893  0.77555  1.0000
  H   H6        1.0  0.92472  0.77107  0.22445  1.0000
  H   H7        1.0  0.96983  0.35066  0.78275  1.0000
  H   H8        1.0  0.03017  0.64934  0.21725  1.0000
  H   H9        1.0  0.54326  0.39686  0.76052  1.0000
  H   H10       1.0  0.45674  0.60314  0.23948  1.0000
  H   H11       1.0  0.46414  0.53713  0.69736  1.0000
  H   H12       1.0  0.53586  0.46287  0.30263  1.0000
  H   H13       1.0  0.47928  0.25716  0.26276  1.0000
  H   H14       1.0  0.52072  0.74285  0.73724  1.0000
  H   H15       1.0  0.55614  0.15710  0.21301  1.0000
  H   H16       1.0  0.44386  0.84291  0.78699  1.0000
  H   H17       1.0  0.41140  0.20370  0.68524  1.0000
  H   H18       1.0  0.58860  0.79631  0.31476  1.0000
  H   H19       1.0  0.57982  0.24046  0.68898  1.0000
  H   H20       1.0  0.42019  0.75953  0.31103  1.0000
  H   H21       1.0  0.21442  0.15239  0.16542  1.0000
  H   H22       1.0  0.78557  0.84761  0.83458  1.0000
  H   H23       1.0  0.33292  0.25304  0.14213  1.0000
  H   H24       1.0  0.66709  0.74695  0.85787  1.0000
  H   H25       1.0  0.83674  0.54381  0.22751  1.0000
  H   H26       1.0  0.16327  0.45619  0.77249  1.0000
  H   H27       1.0  0.66999  0.64319  0.30673  1.0000
  H   H28       1.0  0.33002  0.35681  0.69327  1.0000
  H   H29       1.0  0.94164  0.42902  0.26564  1.0000
  H   H30       1.0  0.05836  0.57098  0.73435  1.0000
  H   H31       1.0  0.56537  0.80665  0.49605  1.0000
  H   H32       1.0  0.43463  0.19335  0.50395  1.0000
  H   H33       1.0  0.56233  0.58931  0.40187  1.0000
  H   H34       1.0  0.43767  0.41069  0.59813  1.0000
  H   H35       1.0  0.74653  0.28318  0.39463  1.0000
  H   H36       1.0  0.25346  0.71683  0.60537  1.0000
  H   H37       1.0  0.04384  0.23414  0.48529  1.0000
  H   H38       1.0  0.95616  0.76586  0.51471  1.0000
  H   H39       1.0  0.05361  0.30944  0.37293  1.0000
  H   H40       1.0  0.94640  0.69055  0.62707  1.0000
  H   H41       1.0  0.70310  0.72451  0.54454  1.0000
  H   H42       1.0  0.29690  0.27549  0.45546  1.0000
  H   H43       1.0  0.65683  0.26434  0.49246  1.0000
  H   H44       1.0  0.34317  0.73566  0.50755  1.0000
  C   C1        1.0  0.99680  0.95716  0.39510  1.0000
  C   C2        1.0  0.00320  0.04284  0.60489  1.0000
  C   C3        1.0  0.99431  0.01283  0.28383  1.0000
  C   C4        1.0  0.00569  0.98716  0.71617  1.0000
  C   C5        1.0  0.87788  0.05649  0.11645  1.0000
  C   C6        1.0  0.12211  0.94350  0.88356  1.0000
  C   C7        1.0  0.87168  0.14879  0.94118  1.0000
  C   C8        1.0  0.12831  0.85121  0.05883  1.0000
  C   C9        1.0  0.97271  0.28223  0.75895  1.0000
  C   C10       1.0  0.02729  0.71776  0.24105  1.0000
  C   C11       1.0  0.95344  0.32885  0.64990  1.0000
  C   C12       1.0  0.04656  0.67115  0.35011  1.0000
  C   C13       1.0  0.64337  0.48491  0.61483  1.0000
  C   C14       1.0  0.35663  0.51509  0.38517  1.0000
  C   C15       1.0  0.56571  0.48181  0.71174  1.0000
  C   C16       1.0  0.43429  0.51819  0.28826  1.0000
  C   C17       1.0  0.64410  0.44307  0.89582  1.0000
  C   C18       1.0  0.35590  0.55693  0.10418  1.0000
  C   C19       1.0  0.66195  0.34528  0.06932  1.0000
  C   C20       1.0  0.33806  0.65472  0.93068  1.0000
  C   C21       1.0  0.57819  0.20468  0.25354  1.0000
  C   C22       1.0  0.42181  0.79532  0.74645  1.0000
  C   C23       1.0  0.62637  0.12509  0.35366  1.0000
  C   C24       1.0  0.37363  0.87491  0.64634  1.0000
  C   C25       1.0  0.58747  0.09491  0.65977  1.0000
  C   C26       1.0  0.41254  0.90509  0.34023  1.0000
  C   C27       1.0  0.51848  0.16981  0.71061  1.0000
  C   C28       1.0  0.48153  0.83019  0.28940  1.0000
  C   C29       1.0  0.38989  0.18696  0.87597  1.0000
  C   C30       1.0  0.61011  0.81303  0.12403  1.0000
  C   C31       1.0  0.23598  0.28677  0.96132  1.0000
  C   C32       1.0  0.76402  0.71323  0.03868  1.0000
  C   C33       1.0  0.22043  0.23949  0.15277  1.0000
  C   C34       1.0  0.77957  0.76051  0.84723  1.0000
  C   C35       1.0  0.14916  0.26110  0.24123  1.0000
  C   C36       1.0  0.85083  0.73891  0.75876  1.0000
  S   S1        1.0  0.84436  0.98124  0.24250  1.0000
  S   S2        1.0  0.15564  0.01876  0.75750  1.0000
  S   S3        1.0  0.74928  0.08032  0.03534  1.0000
  S   S4        1.0  0.25071  0.91968  0.96466  1.0000
  S   S5        1.0  0.82784  0.20054  0.81999  1.0000
  S   S6        1.0  0.17216  0.79946  0.18001  1.0000
  S   S7        1.0  0.68011  0.52643  0.77191  1.0000
  S   S8        1.0  0.31988  0.47358  0.22809  1.0000
  S   S9        1.0  0.77729  0.41888  0.97316  1.0000
  S   S10       1.0  0.22271  0.58112  0.02684  1.0000
  S   S11       1.0  0.71795  0.28975  0.18787  1.0000
  S   S12       1.0  0.28206  0.71025  0.81212  1.0000
  S   S13       1.0  0.50758  0.09163  0.84227  1.0000
  S   S14       1.0  0.49243  0.90838  0.15773  1.0000
  S   S15       1.0  0.34951  0.16131  0.99898  1.0000
  S   S16       1.0  0.65049  0.83869  0.00102  1.0000
  S   S17       1.0  0.13282  0.33448  0.04311  1.0000
  S   S18       1.0  0.86718  0.66552  0.95689  1.0000
  N   N1        1.0  0.99510  0.09983  0.07266  1.0000
  N   N2        1.0  0.00489  0.90017  0.92734  1.0000
  N   N3        1.0  0.99183  0.15254  0.97212  1.0000
  N   N4        1.0  0.00817  0.84746  0.02789  1.0000
  N   N5        1.0  0.53046  0.39499  0.94104  1.0000
  N   N6        1.0  0.46954  0.60501  0.05896  1.0000
  N   N7        1.0  0.54051  0.33867  0.04114  1.0000
  N   N8        1.0  0.45950  0.66133  0.95886  1.0000
  N   N9        1.0  0.32223  0.28169  0.81611  1.0000
  N   N10       1.0  0.67777  0.71831  0.18389  1.0000
  N   N11       1.0  0.23576  0.33900  0.86465  1.0000
  N   N12       1.0  0.76424  0.66100  0.13535  1.0000
  O   O1        1.0  0.89034  0.90753  0.44541  1.0000
  O   O2        1.0  0.10966  0.09247  0.55459  1.0000
  O   O3        1.0  0.10401  0.96191  0.43230  1.0000
  O   O4        1.0  0.89600  0.03809  0.56770  1.0000
  O   O5        1.0  0.86505  0.29102  0.61981  1.0000
  O   O6        1.0  0.13495  0.70898  0.38019  1.0000
  O   O7        1.0  0.02205  0.40801  0.58956  1.0000
  O   O8        1.0  0.97795  0.59199  0.41044  1.0000
  O   O9        1.0  0.74643  0.54144  0.57764  1.0000
  O   O10       1.0  0.25357  0.45856  0.42236  1.0000
  O   O11       1.0  0.60552  0.42726  0.57346  1.0000
  O   O12       1.0  0.39448  0.57274  0.42654  1.0000
  O   O13       1.0  0.73771  0.13414  0.38472  1.0000
  O   O14       1.0  0.26229  0.86586  0.61527  1.0000
  O   O15       1.0  0.54978  0.04736  0.40782  1.0000
  O   O16       1.0  0.45022  0.95264  0.59218  1.0000
  O   O17       1.0  0.59108  0.13870  0.56451  1.0000
  O   O18       1.0  0.40892  0.86130  0.43549  1.0000
  O   O19       1.0  0.63790  0.99496  0.70661  1.0000
  O   O20       1.0  0.36211  0.00504  0.29339  1.0000
  O   O21       1.0  0.05080  0.34135  0.22732  1.0000
  O   O22       1.0  0.94920  0.65866  0.77267  1.0000
  O   O23       1.0  0.19471  0.19644  0.32528  1.0000
  O   O24       1.0  0.80528  0.80356  0.67472  1.0000
  O   O25       1.0  0.66525  0.59705  0.37999  1.0000
  O   O26       1.0  0.33476  0.40295  0.62001  1.0000
  O   O27       1.0  0.87670  0.48217  0.28839  1.0000
  O   O28       1.0  0.12330  0.51783  0.71161  1.0000
  O   O29       1.0  0.02164  0.31237  0.43738  1.0000
  O   O30       1.0  0.97835  0.68762  0.56262  1.0000
  O   O31       1.0  0.70157  0.32361  0.43548  1.0000
  O   O32       1.0  0.29843  0.67639  0.56453  1.0000
  O   O33       1.0  0.64325  0.79487  0.53797  1.0000
  O   O34       1.0  0.35675  0.20514  0.46203  1.0000
