data_image0
_chemical_formula_structural       Hg4H48C52N8Cl8O4
_chemical_formula_sum              "Hg4 H48 C52 N8 Cl8 O4"
_cell_length_a       7.07953
_cell_length_b       9.2633
_cell_length_c       20.6719
_cell_angle_alpha    95.0661
_cell_angle_beta     90
_cell_angle_gamma    90

_space_group_name_H-M_alt    "P 1"
_space_group_IT_number       1

loop_
  _space_group_symop_operation_xyz
  'x, y, z'

loop_
  _atom_site_type_symbol
  _atom_site_label
  _atom_site_symmetry_multiplicity
  _atom_site_fract_x
  _atom_site_fract_y
  _atom_site_fract_z
  _atom_site_occupancy
  Hg  Hg1       1.0  0.22370  0.32710  0.23720  1.0000
  Hg  Hg2       1.0  0.72370  0.67290  0.26280  1.0000
  Hg  Hg3       1.0  0.77630  0.67290  0.76280  1.0000
  Hg  Hg4       1.0  0.27630  0.32710  0.73720  1.0000
  H   H1        1.0  0.40988  0.97963  0.41898  1.0000
  H   H2        1.0  0.90988  0.02037  0.08102  1.0000
  H   H3        1.0  0.59012  0.02037  0.58102  1.0000
  H   H4        1.0  0.09012  0.97963  0.91898  1.0000
  H   H5        1.0  0.41485  0.17208  0.51463  1.0000
  H   H6        1.0  0.91485  0.82792  0.98537  1.0000
  H   H7        1.0  0.58514  0.82792  0.48537  1.0000
  H   H8        1.0  0.08514  0.17209  0.01463  1.0000
  H   H9        1.0  0.34818  0.42894  0.49355  1.0000
  H   H10       1.0  0.84818  0.57106  0.00645  1.0000
  H   H11       1.0  0.65182  0.57106  0.50645  1.0000
  H   H12       1.0  0.15182  0.42894  0.99355  1.0000
  H   H13       1.0  0.27625  0.48474  0.37916  1.0000
  H   H14       1.0  0.77625  0.51526  0.12084  1.0000
  H   H15       1.0  0.72375  0.51526  0.62084  1.0000
  H   H16       1.0  0.22375  0.48474  0.87916  1.0000
  H   H17       1.0  0.36944  0.91192  0.30792  1.0000
  H   H18       1.0  0.86944  0.08808  0.19208  1.0000
  H   H19       1.0  0.63056  0.08808  0.69208  1.0000
  H   H20       1.0  0.13056  0.91192  0.80792  1.0000
  H   H21       1.0  0.24650  0.76287  0.23484  1.0000
  H   H22       1.0  0.74649  0.23713  0.26516  1.0000
  H   H23       1.0  0.75350  0.23713  0.76516  1.0000
  H   H24       1.0  0.25350  0.76287  0.73484  1.0000
  H   H25       1.0  0.27582  0.59084  0.13792  1.0000
  H   H26       1.0  0.77582  0.40916  0.36208  1.0000
  H   H27       1.0  0.72418  0.40916  0.86208  1.0000
  H   H28       1.0  0.22418  0.59084  0.63792  1.0000
  H   H29       1.0  0.39826  0.94294  0.02109  1.0000
  H   H30       1.0  0.89826  0.05706  0.47891  1.0000
  H   H31       1.0  0.60174  0.05706  0.97891  1.0000
  H   H32       1.0  0.10174  0.94294  0.52109  1.0000
  H   H33       1.0  0.37310  0.11715  0.11945  1.0000
  H   H34       1.0  0.87310  0.88285  0.38055  1.0000
  H   H35       1.0  0.62690  0.88285  0.88055  1.0000
  H   H36       1.0  0.12690  0.11715  0.61945  1.0000
  H   H37       1.0  0.54909  0.76289  0.96714  1.0000
  H   H38       1.0  0.04909  0.23711  0.53286  1.0000
  H   H39       1.0  0.45091  0.23711  0.03286  1.0000
  H   H40       1.0  0.95091  0.76289  0.46714  1.0000
  H   H41       1.0  0.30844  0.74891  0.93850  1.0000
  H   H42       1.0  0.80844  0.25109  0.56150  1.0000
  H   H43       1.0  0.69156  0.25109  0.06150  1.0000
  H   H44       1.0  0.19156  0.74891  0.43850  1.0000
  H   H45       1.0  0.46042  0.59358  0.93252  1.0000
  H   H46       1.0  0.96042  0.40642  0.56748  1.0000
  H   H47       1.0  0.53958  0.40642  0.06748  1.0000
  H   H48       1.0  0.03958  0.59358  0.43252  1.0000
  C   C1        1.0  0.33423  0.13262  0.35133  1.0000
  C   C2        1.0  0.83423  0.86738  0.14867  1.0000
  C   C3        1.0  0.66577  0.86738  0.64867  1.0000
  C   C4        1.0  0.16577  0.13262  0.85133  1.0000
  C   C5        1.0  0.37805  0.09304  0.41343  1.0000
  C   C6        1.0  0.87805  0.90696  0.08657  1.0000
  C   C7        1.0  0.62195  0.90696  0.58657  1.0000
  C   C8        1.0  0.12195  0.09304  0.91343  1.0000
  C   C9        1.0  0.38293  0.19906  0.46549  1.0000
  C   C10       1.0  0.88293  0.80094  0.03451  1.0000
  C   C11       1.0  0.61707  0.80094  0.53451  1.0000
  C   C12       1.0  0.11707  0.19906  0.96549  1.0000
  C   C13       1.0  0.34677  0.34262  0.45422  1.0000
  C   C14       1.0  0.84676  0.65738  0.04578  1.0000
  C   C15       1.0  0.65323  0.65738  0.54578  1.0000
  C   C16       1.0  0.15323  0.34262  0.95422  1.0000
  C   C17       1.0  0.30405  0.37466  0.39115  1.0000
  C   C18       1.0  0.80405  0.62534  0.10885  1.0000
  C   C19       1.0  0.69595  0.62534  0.60885  1.0000
  C   C20       1.0  0.19595  0.37466  0.89115  1.0000
  C   C21       1.0  0.33669  0.02266  0.29620  1.0000
  C   C22       1.0  0.83668  0.97734  0.20380  1.0000
  C   C23       1.0  0.66332  0.97734  0.70380  1.0000
  C   C24       1.0  0.16332  0.02266  0.79620  1.0000
  C   C25       1.0  0.31827  0.95296  0.18421  1.0000
  C   C26       1.0  0.81826  0.04704  0.31579  1.0000
  C   C27       1.0  0.68173  0.04704  0.81579  1.0000
  C   C28       1.0  0.18174  0.95296  0.68421  1.0000
  C   C29       1.0  0.28712  0.80358  0.18890  1.0000
  C   C30       1.0  0.78712  0.19642  0.31110  1.0000
  C   C31       1.0  0.71288  0.19642  0.81110  1.0000
  C   C32       1.0  0.21288  0.80358  0.68890  1.0000
  C   C33       1.0  0.30071  0.70602  0.13450  1.0000
  C   C34       1.0  0.80070  0.29397  0.36550  1.0000
  C   C35       1.0  0.69930  0.29397  0.86550  1.0000
  C   C36       1.0  0.19930  0.70602  0.63450  1.0000
  C   C37       1.0  0.34734  0.75465  0.07395  1.0000
  C   C38       1.0  0.84734  0.24535  0.42605  1.0000
  C   C39       1.0  0.65266  0.24536  0.92605  1.0000
  C   C40       1.0  0.15266  0.75465  0.57395  1.0000
  C   C41       1.0  0.37084  0.90345  0.06818  1.0000
  C   C42       1.0  0.87085  0.09655  0.43182  1.0000
  C   C43       1.0  0.62916  0.09655  0.93182  1.0000
  C   C44       1.0  0.12916  0.90345  0.56818  1.0000
  C   C45       1.0  0.35560  0.00133  0.12306  1.0000
  C   C46       1.0  0.85560  0.99867  0.37694  1.0000
  C   C47       1.0  0.64440  0.99867  0.87694  1.0000
  C   C48       1.0  0.14440  0.00133  0.62306  1.0000
  C   C49       1.0  0.42353  0.69317  0.96204  1.0000
  C   C50       1.0  0.92353  0.30683  0.53796  1.0000
  C   C51       1.0  0.57647  0.30683  0.03796  1.0000
  C   C52       1.0  0.07647  0.69317  0.46204  1.0000
  N   N1        1.0  0.29516  0.27180  0.34163  1.0000
  N   N2        1.0  0.79516  0.72820  0.15838  1.0000
  N   N3        1.0  0.70484  0.72820  0.65837  1.0000
  N   N4        1.0  0.20484  0.27180  0.84162  1.0000
  N   N5        1.0  0.31229  0.05640  0.23762  1.0000
  N   N6        1.0  0.81229  0.94360  0.26238  1.0000
  N   N7        1.0  0.68771  0.94360  0.76238  1.0000
  N   N8        1.0  0.18771  0.05640  0.73762  1.0000
  Cl  Cl1       1.0  0.04651  0.30508  0.13461  1.0000
  Cl  Cl2       1.0  0.54651  0.69492  0.36540  1.0000
  Cl  Cl3       1.0  0.95349  0.69492  0.86539  1.0000
  Cl  Cl4       1.0  0.45349  0.30508  0.63461  1.0000
  Cl  Cl5       1.0  0.55938  0.42200  0.20707  1.0000
  Cl  Cl6       1.0  0.05938  0.57800  0.29293  1.0000
  Cl  Cl7       1.0  0.44062  0.57800  0.79293  1.0000
  Cl  Cl8       1.0  0.94062  0.42200  0.70707  1.0000
  O   O1        1.0  0.36542  0.64986  0.02395  1.0000
  O   O2        1.0  0.86542  0.35014  0.47605  1.0000
  O   O3        1.0  0.63458  0.35014  0.97605  1.0000
  O   O4        1.0  0.13457  0.64986  0.52395  1.0000
