data_image0
_chemical_formula_structural       Hg3H24C26N22O2
_chemical_formula_sum              "Hg3 H24 C26 N22 O2"
_cell_length_a       8.54475
_cell_length_b       9.71384
_cell_length_c       11.544
_cell_angle_alpha    67.709
_cell_angle_beta     79.1907
_cell_angle_gamma    83.2978

_space_group_name_H-M_alt    "P 1"
_space_group_IT_number       1

loop_
  _space_group_symop_operation_xyz
  'x, y, z'

loop_
  _atom_site_type_symbol
  _atom_site_label
  _atom_site_symmetry_multiplicity
  _atom_site_fract_x
  _atom_site_fract_y
  _atom_site_fract_z
  _atom_site_occupancy
  Hg  Hg1       1.0  0.58496  0.17459  0.35003  1.0000
  Hg  Hg2       1.0  0.41504  0.82541  0.64997  1.0000
  Hg  Hg3       1.0  0.00000  1.00000  0.50000  1.0000
  H   H1        1.0  0.13304  0.62316  0.27129  1.0000
  H   H2        1.0  0.86696  0.37684  0.72871  1.0000
  H   H3        1.0  0.09688  0.64949  0.48274  1.0000
  H   H4        1.0  0.90312  0.35052  0.51726  1.0000
  H   H5        1.0  0.26121  0.47883  0.64551  1.0000
  H   H6        1.0  0.73879  0.52117  0.35449  1.0000
  H   H7        1.0  0.45778  0.29464  0.58769  1.0000
  H   H8        1.0  0.54222  0.70536  0.41231  1.0000
  H   H9        1.0  0.26078  0.49898  0.12949  1.0000
  H   H10       1.0  0.73922  0.50102  0.87051  1.0000
  H   H11       1.0  0.20263  0.35684  0.03849  1.0000
  H   H12       1.0  0.79737  0.64316  0.96151  1.0000
  H   H13       1.0  0.22336  0.27250  0.85798  1.0000
  H   H14       1.0  0.77664  0.72749  0.14202  1.0000
  H   H15       1.0  0.47758  0.15307  0.78857  1.0000
  H   H16       1.0  0.52243  0.84692  0.21143  1.0000
  H   H17       1.0  0.71394  0.12604  0.89093  1.0000
  H   H18       1.0  0.28606  0.87397  0.10907  1.0000
  H   H19       1.0  0.91731  0.23026  0.94527  1.0000
  H   H20       1.0  0.08269  0.76974  0.05473  1.0000
  H   H21       1.0  0.86050  0.04520  0.04856  1.0000
  H   H22       1.0  0.13950  0.95480  0.95144  1.0000
  H   H23       1.0  0.94936  0.15804  0.10746  1.0000
  H   H24       1.0  0.05064  0.84196  0.89254  1.0000
  C   C1        1.0  0.31764  0.44784  0.31861  1.0000
  C   C2        1.0  0.68236  0.55216  0.68138  1.0000
  C   C3        1.0  0.20458  0.55388  0.34317  1.0000
  C   C4        1.0  0.79542  0.44612  0.65682  1.0000
  C   C5        1.0  0.18346  0.56765  0.46109  1.0000
  C   C6        1.0  0.81654  0.43235  0.53891  1.0000
  C   C7        1.0  0.27460  0.47417  0.55148  1.0000
  C   C8        1.0  0.72540  0.52584  0.44852  1.0000
  C   C9        1.0  0.38522  0.37153  0.51988  1.0000
  C   C10       1.0  0.61478  0.62847  0.48011  1.0000
  C   C11       1.0  0.33779  0.42760  0.19742  1.0000
  C   C12       1.0  0.66220  0.57240  0.80258  1.0000
  C   C13       1.0  0.44771  0.29335  0.06593  1.0000
  C   C14       1.0  0.55229  0.70665  0.93408  1.0000
  C   C15       1.0  0.31593  0.31022  0.00406  1.0000
  C   C16       1.0  0.68407  0.68978  0.99594  1.0000
  C   C17       1.0  0.32707  0.26207  0.90356  1.0000
  C   C18       1.0  0.67293  0.73792  0.09644  1.0000
  C   C19       1.0  0.47046  0.19547  0.86439  1.0000
  C   C20       1.0  0.52954  0.80453  0.13561  1.0000
  C   C21       1.0  0.60396  0.17875  0.92309  1.0000
  C   C22       1.0  0.39604  0.82125  0.07691  1.0000
  C   C23       1.0  0.59408  0.22802  0.02360  1.0000
  C   C24       1.0  0.40592  0.77198  0.97641  1.0000
  C   C25       1.0  0.87023  0.15945  0.04261  1.0000
  C   C26       1.0  0.12977  0.84055  0.95739  1.0000
  N   N1        1.0  0.40645  0.35946  0.40663  1.0000
  N   N2        1.0  0.59354  0.64054  0.59337  1.0000
  N   N3        1.0  0.43832  0.32854  0.17353  1.0000
  N   N4        1.0  0.56167  0.67146  0.82647  1.0000
  N   N5        1.0  0.46355  0.96976  0.37791  1.0000
  N   N6        1.0  0.53645  0.03024  0.62209  1.0000
  N   N7        1.0  0.34171  0.98898  0.33378  1.0000
  N   N8        1.0  0.65829  0.01101  0.66622  1.0000
  N   N9        1.0  0.22333  0.99953  0.29344  1.0000
  N   N10       1.0  0.77668  0.00046  0.70656  1.0000
  N   N11       1.0  0.82562  0.23157  0.35099  1.0000
  N   N12       1.0  0.17438  0.76843  0.64901  1.0000
  N   N13       1.0  0.89103  0.33272  0.26267  1.0000
  N   N14       1.0  0.10897  0.66728  0.73733  1.0000
  N   N15       1.0  0.96119  0.42901  0.18250  1.0000
  N   N16       1.0  0.03881  0.57099  0.81750  1.0000
  N   N17       1.0  0.14006  0.13742  0.53978  1.0000
  N   N18       1.0  0.85994  0.86258  0.46022  1.0000
  N   N19       1.0  0.10692  0.14922  0.64265  1.0000
  N   N20       1.0  0.89308  0.85078  0.35735  1.0000
  N   N21       1.0  0.08466  0.16976  0.73742  1.0000
  N   N22       1.0  0.91534  0.83023  0.26258  1.0000
  O   O1        1.0  0.71848  0.22059  0.08477  1.0000
  O   O2        1.0  0.28152  0.77941  0.91523  1.0000
