data_image0
_chemical_formula_structural       Mn2H12C8O16
_chemical_formula_sum              "Mn2 H12 C8 O16"
_cell_length_a       7.6538
_cell_length_b       7.65379
_cell_length_c       7.79403
_cell_angle_alpha    87.5243
_cell_angle_beta     87.5269
_cell_angle_gamma    73.7938

_space_group_name_H-M_alt    "P 1"
_space_group_IT_number       1

loop_
  _space_group_symop_operation_xyz
  'x, y, z'

loop_
  _atom_site_type_symbol
  _atom_site_label
  _atom_site_symmetry_multiplicity
  _atom_site_fract_x
  _atom_site_fract_y
  _atom_site_fract_z
  _atom_site_occupancy
  Mn  Mn1       1.0  1.00000  0.50000  0.99999  1.0000
  Mn  Mn2       1.0  0.50000  0.00000  0.49999  1.0000
  H   H1        1.0  0.67646  0.68128  0.23991  1.0000
  H   H2        1.0  0.31870  0.32355  0.26010  1.0000
  H   H3        1.0  0.32355  0.31870  0.76009  1.0000
  H   H4        1.0  0.68125  0.67646  0.73991  1.0000
  H   H5        1.0  0.12335  0.85957  0.07375  1.0000
  H   H6        1.0  0.14043  0.87665  0.42624  1.0000
  H   H7        1.0  0.87666  0.14042  0.92626  1.0000
  H   H8        1.0  0.85957  0.12336  0.57377  1.0000
  H   H9        1.0  0.38635  0.90071  0.12275  1.0000
  H   H10       1.0  0.09926  0.61366  0.37725  1.0000
  H   H11       1.0  0.61366  0.09928  0.87724  1.0000
  H   H12       1.0  0.90074  0.38634  0.62275  1.0000
  C   C1        1.0  0.79076  0.70842  0.30548  1.0000
  C   C2        1.0  0.29157  0.20925  0.19454  1.0000
  C   C3        1.0  0.20925  0.29157  0.69452  1.0000
  C   C4        1.0  0.70840  0.79076  0.80546  1.0000
  C   C5        1.0  0.24530  0.75181  0.03116  1.0000
  C   C6        1.0  0.24816  0.75469  0.46884  1.0000
  C   C7        1.0  0.75470  0.24816  0.96885  1.0000
  C   C8        1.0  0.75184  0.24532  0.53117  1.0000
  O   O1        1.0  0.95115  0.61145  0.26043  1.0000
  O   O2        1.0  0.38855  0.04885  0.23955  1.0000
  O   O3        1.0  0.04886  0.38854  0.73956  1.0000
  O   O4        1.0  0.61144  0.95116  0.76044  1.0000
  O   O5        1.0  0.76167  0.82848  0.41642  1.0000
  O   O6        1.0  0.17153  0.23832  0.08356  1.0000
  O   O7        1.0  0.23835  0.17153  0.58356  1.0000
  O   O8        1.0  0.82846  0.76167  0.91642  1.0000
  O   O9        1.0  0.23250  0.61127  0.96616  1.0000
  O   O10       1.0  0.38874  0.76748  0.53384  1.0000
  O   O11       1.0  0.76749  0.38874  0.03384  1.0000
  O   O12       1.0  0.61128  0.23252  0.46617  1.0000
  O   O13       1.0  0.40210  0.78174  0.05450  1.0000
  O   O14       1.0  0.21822  0.59790  0.44551  1.0000
  O   O15       1.0  0.59790  0.21824  0.94550  1.0000
  O   O16       1.0  0.78178  0.40211  0.55450  1.0000
