data_image0
_chemical_formula_structural       Ca4H60C20N4Cl8O16
_chemical_formula_sum              "Ca4 H60 C20 N4 Cl8 O16"
_cell_length_a       9.9201
_cell_length_b       10.813
_cell_length_c       10.9212
_cell_angle_alpha    90
_cell_angle_beta     90
_cell_angle_gamma    90

_space_group_name_H-M_alt    "P 1"
_space_group_IT_number       1

loop_
  _space_group_symop_operation_xyz
  'x, y, z'

loop_
  _atom_site_type_symbol
  _atom_site_label
  _atom_site_symmetry_multiplicity
  _atom_site_fract_x
  _atom_site_fract_y
  _atom_site_fract_z
  _atom_site_occupancy
  Ca  Ca1       1.0  0.25000  0.22592  0.19022  1.0000
  Ca  Ca2       1.0  0.75000  0.72592  0.30978  1.0000
  Ca  Ca3       1.0  0.25000  0.27408  0.69022  1.0000
  Ca  Ca4       1.0  0.75000  0.77408  0.80978  1.0000
  H   H1        1.0  0.15879  0.69151  0.87184  1.0000
  H   H2        1.0  0.84121  0.19151  0.62816  1.0000
  H   H3        1.0  0.34121  0.80849  0.37184  1.0000
  H   H4        1.0  0.65879  0.30849  0.12816  1.0000
  H   H5        1.0  0.84121  0.30849  0.12816  1.0000
  H   H6        1.0  0.15879  0.80849  0.37184  1.0000
  H   H7        1.0  0.65879  0.19151  0.62816  1.0000
  H   H8        1.0  0.34121  0.69151  0.87184  1.0000
  H   H9        1.0  0.25000  0.62929  0.99891  1.0000
  H   H10       1.0  0.75000  0.12929  0.50109  1.0000
  H   H11       1.0  0.25000  0.87071  0.49891  1.0000
  H   H12       1.0  0.75000  0.37071  0.00109  1.0000
  H   H13       1.0  0.12195  0.75796  0.12772  1.0000
  H   H14       1.0  0.87805  0.25796  0.37228  1.0000
  H   H15       1.0  0.37805  0.74204  0.62772  1.0000
  H   H16       1.0  0.62195  0.24204  0.87228  1.0000
  H   H17       1.0  0.87805  0.24204  0.87228  1.0000
  H   H18       1.0  0.12195  0.74204  0.62772  1.0000
  H   H19       1.0  0.62195  0.25796  0.37228  1.0000
  H   H20       1.0  0.37805  0.75796  0.12772  1.0000
  H   H21       1.0  0.03798  0.83338  0.00468  1.0000
  H   H22       1.0  0.96202  0.33338  0.49532  1.0000
  H   H23       1.0  0.46202  0.66662  0.50468  1.0000
  H   H24       1.0  0.53798  0.16662  0.99532  1.0000
  H   H25       1.0  0.96202  0.16662  0.99532  1.0000
  H   H26       1.0  0.03798  0.66662  0.50468  1.0000
  H   H27       1.0  0.53798  0.33338  0.49532  1.0000
  H   H28       1.0  0.46202  0.83338  0.00468  1.0000
  H   H29       1.0  0.12972  0.92426  0.11546  1.0000
  H   H30       1.0  0.87028  0.42426  0.38454  1.0000
  H   H31       1.0  0.37028  0.57574  0.61546  1.0000
  H   H32       1.0  0.62972  0.07574  0.88454  1.0000
  H   H33       1.0  0.87028  0.07574  0.88454  1.0000
  H   H34       1.0  0.12972  0.57574  0.61546  1.0000
  H   H35       1.0  0.62972  0.42426  0.38454  1.0000
  H   H36       1.0  0.37028  0.92426  0.11546  1.0000
  H   H37       1.0  0.15987  0.90388  0.82972  1.0000
  H   H38       1.0  0.84013  0.40388  0.67028  1.0000
  H   H39       1.0  0.34013  0.59612  0.32972  1.0000
  H   H40       1.0  0.65987  0.09612  0.17028  1.0000
  H   H41       1.0  0.84013  0.09612  0.17028  1.0000
  H   H42       1.0  0.15987  0.59612  0.32972  1.0000
  H   H43       1.0  0.65987  0.40388  0.67028  1.0000
  H   H44       1.0  0.34013  0.90388  0.82972  1.0000
  H   H45       1.0  0.41438  0.36733  0.99655  1.0000
  H   H46       1.0  0.58562  0.86733  0.50345  1.0000
  H   H47       1.0  0.08562  0.13267  0.49655  1.0000
  H   H48       1.0  0.91438  0.63267  0.00345  1.0000
  H   H49       1.0  0.58562  0.63267  0.00345  1.0000
  H   H50       1.0  0.41438  0.13267  0.49655  1.0000
  H   H51       1.0  0.91438  0.86733  0.50345  1.0000
  H   H52       1.0  0.08562  0.36733  0.99655  1.0000
  H   H53       1.0  0.45004  0.42442  0.12506  1.0000
  H   H54       1.0  0.54996  0.92442  0.37494  1.0000
  H   H55       1.0  0.04996  0.07558  0.62506  1.0000
  H   H56       1.0  0.95004  0.57558  0.87494  1.0000
  H   H57       1.0  0.54996  0.57558  0.87494  1.0000
  H   H58       1.0  0.45004  0.07558  0.62506  1.0000
  H   H59       1.0  0.95004  0.92442  0.37494  1.0000
  H   H60       1.0  0.04997  0.42442  0.12506  1.0000
  C   C1        1.0  0.25000  0.70020  0.92736  1.0000
  C   C2        1.0  0.75000  0.20020  0.57264  1.0000
  C   C3        1.0  0.25000  0.79980  0.42736  1.0000
  C   C4        1.0  0.75000  0.29980  0.07264  1.0000
  C   C5        1.0  0.12581  0.83699  0.06522  1.0000
  C   C6        1.0  0.87419  0.33699  0.43478  1.0000
  C   C7        1.0  0.37419  0.66301  0.56522  1.0000
  C   C8        1.0  0.62581  0.16301  0.93478  1.0000
  C   C9        1.0  0.87419  0.16301  0.93478  1.0000
  C   C10       1.0  0.12581  0.66301  0.56522  1.0000
  C   C11       1.0  0.62581  0.33699  0.43478  1.0000
  C   C12       1.0  0.37419  0.83699  0.06522  1.0000
  C   C13       1.0  0.25000  0.92018  0.88633  1.0000
  C   C14       1.0  0.75000  0.42018  0.61367  1.0000
  C   C15       1.0  0.25000  0.57982  0.38633  1.0000
  C   C16       1.0  0.75000  0.07982  0.11367  1.0000
  C   C17       1.0  0.25000  0.05566  0.92472  1.0000
  C   C18       1.0  0.75000  0.55566  0.57528  1.0000
  C   C19       1.0  0.25000  0.44434  0.42472  1.0000
  C   C20       1.0  0.75000  0.94434  0.07528  1.0000
  N   N1        1.0  0.25000  0.82527  0.98745  1.0000
  N   N2        1.0  0.75000  0.32527  0.51255  1.0000
  N   N3        1.0  0.25000  0.67473  0.48745  1.0000
  N   N4        1.0  0.75000  0.17473  0.01255  1.0000
  Cl  Cl1       1.0  0.44846  0.08449  0.30484  1.0000
  Cl  Cl2       1.0  0.55154  0.58449  0.19516  1.0000
  Cl  Cl3       1.0  0.05154  0.41551  0.80484  1.0000
  Cl  Cl4       1.0  0.94846  0.91551  0.69516  1.0000
  Cl  Cl5       1.0  0.55154  0.91551  0.69516  1.0000
  Cl  Cl6       1.0  0.44846  0.41551  0.80484  1.0000
  Cl  Cl7       1.0  0.94846  0.58449  0.19516  1.0000
  Cl  Cl8       1.0  0.05154  0.08449  0.30484  1.0000
  O   O1        1.0  0.25000  0.08504  0.03652  1.0000
  O   O2        1.0  0.75000  0.58504  0.46348  1.0000
  O   O3        1.0  0.25000  0.41496  0.53652  1.0000
  O   O4        1.0  0.75000  0.91496  0.96348  1.0000
  O   O5        1.0  0.25000  0.12984  0.83587  1.0000
  O   O6        1.0  0.75000  0.62984  0.66413  1.0000
  O   O7        1.0  0.25000  0.37016  0.33587  1.0000
  O   O8        1.0  0.75000  0.87016  0.16413  1.0000
  O   O9        1.0  0.41208  0.34966  0.08556  1.0000
  O   O10       1.0  0.58792  0.84966  0.41444  1.0000
  O   O11       1.0  0.08792  0.15034  0.58556  1.0000
  O   O12       1.0  0.91208  0.65034  0.91444  1.0000
  O   O13       1.0  0.58792  0.65034  0.91444  1.0000
  O   O14       1.0  0.41208  0.15034  0.58556  1.0000
  O   O15       1.0  0.91208  0.84966  0.41444  1.0000
  O   O16       1.0  0.08792  0.34966  0.08556  1.0000
