data_image0
_chemical_formula_structural       Ca4H60C20N4Cl8O16
_chemical_formula_sum              "Ca4 H60 C20 N4 Cl8 O16"
_cell_length_a       9.8954
_cell_length_b       10.8
_cell_length_c       10.8532
_cell_angle_alpha    90
_cell_angle_beta     90
_cell_angle_gamma    90

_space_group_name_H-M_alt    "P 1"
_space_group_IT_number       1

loop_
  _space_group_symop_operation_xyz
  'x, y, z'

loop_
  _atom_site_type_symbol
  _atom_site_label
  _atom_site_symmetry_multiplicity
  _atom_site_fract_x
  _atom_site_fract_y
  _atom_site_fract_z
  _atom_site_occupancy
  Ca  Ca1       1.0  0.23722  0.22725  0.19226  1.0000
  Ca  Ca2       1.0  0.23722  0.27275  0.69226  1.0000
  Ca  Ca3       1.0  0.73722  0.72725  0.30774  1.0000
  Ca  Ca4       1.0  0.73722  0.77275  0.80774  1.0000
  H   H1        1.0  0.34199  0.80047  0.36395  1.0000
  H   H2        1.0  0.34199  0.69953  0.86395  1.0000
  H   H3        1.0  0.84199  0.30047  0.13605  1.0000
  H   H4        1.0  0.84199  0.19953  0.63605  1.0000
  H   H5        1.0  0.16347  0.82107  0.39384  1.0000
  H   H6        1.0  0.16347  0.67893  0.89384  1.0000
  H   H7        1.0  0.66347  0.32107  0.10616  1.0000
  H   H8        1.0  0.66347  0.17893  0.60616  1.0000
  H   H9        1.0  0.28707  0.86798  0.50554  1.0000
  H   H10       1.0  0.28707  0.63202  0.00554  1.0000
  H   H11       1.0  0.78707  0.36798  0.99446  1.0000
  H   H12       1.0  0.78707  0.13202  0.49446  1.0000
  H   H13       1.0  0.41884  0.72236  0.60961  1.0000
  H   H14       1.0  0.41884  0.77764  0.10960  1.0000
  H   H15       1.0  0.91884  0.22236  0.89040  1.0000
  H   H16       1.0  0.91884  0.27764  0.39040  1.0000
  H   H17       1.0  0.17181  0.74916  0.65395  1.0000
  H   H18       1.0  0.17181  0.75084  0.15395  1.0000
  H   H19       1.0  0.67181  0.24916  0.84606  1.0000
  H   H20       1.0  0.67181  0.25084  0.34606  1.0000
  H   H21       1.0  0.46563  0.63869  0.47378  1.0000
  H   H22       1.0  0.46563  0.86131  0.97378  1.0000
  H   H23       1.0  0.96563  0.13869  0.02622  1.0000
  H   H24       1.0  0.96563  0.36131  0.52622  1.0000
  H   H25       1.0  0.05212  0.69379  0.54462  1.0000
  H   H26       1.0  0.05212  0.80621  0.04462  1.0000
  H   H27       1.0  0.55212  0.19379  0.95538  1.0000
  H   H28       1.0  0.55212  0.30621  0.45538  1.0000
  H   H29       1.0  0.38421  0.55883  0.59971  1.0000
  H   H30       1.0  0.38421  0.94117  0.09971  1.0000
  H   H31       1.0  0.88421  0.05883  0.90029  1.0000
  H   H32       1.0  0.88421  0.44117  0.40029  1.0000
  H   H33       1.0  0.14753  0.58449  0.63523  1.0000
  H   H34       1.0  0.14753  0.91551  0.13523  1.0000
  H   H35       1.0  0.64753  0.08449  0.86477  1.0000
  H   H36       1.0  0.64753  0.41551  0.36477  1.0000
  H   H37       1.0  0.30157  0.59505  0.31905  1.0000
  H   H38       1.0  0.30157  0.90495  0.81905  1.0000
  H   H39       1.0  0.80157  0.09505  0.18095  1.0000
  H   H40       1.0  0.80157  0.40495  0.68095  1.0000
  H   H41       1.0  0.12517  0.60736  0.35168  1.0000
  H   H42       1.0  0.12517  0.89264  0.85168  1.0000
  H   H43       1.0  0.62517  0.10736  0.14832  1.0000
  H   H44       1.0  0.62517  0.39264  0.64832  1.0000
  H   H45       1.0  0.40897  0.36172  0.00861  1.0000
  H   H46       1.0  0.40897  0.13828  0.50861  1.0000
  H   H47       1.0  0.90897  0.86172  0.49139  1.0000
  H   H48       1.0  0.90897  0.63828  0.99139  1.0000
  H   H49       1.0  0.08304  0.37303  0.98749  1.0000
  H   H50       1.0  0.08304  0.12697  0.48749  1.0000
  H   H51       1.0  0.58304  0.87303  0.51251  1.0000
  H   H52       1.0  0.58304  0.62697  0.01251  1.0000
  H   H53       1.0  0.44811  0.41696  0.13740  1.0000
  H   H54       1.0  0.44811  0.08304  0.63740  1.0000
  H   H55       1.0  0.94811  0.91696  0.36260  1.0000
  H   H56       1.0  0.94811  0.58304  0.86260  1.0000
  H   H57       1.0  0.04997  0.43333  0.11607  1.0000
  H   H58       1.0  0.04997  0.06667  0.61607  1.0000
  H   H59       1.0  0.54997  0.93333  0.38393  1.0000
  H   H60       1.0  0.54997  0.56667  0.88393  1.0000
  C   C1        1.0  0.22258  0.44593  0.42585  1.0000
  C   C2        1.0  0.22258  0.05407  0.92586  1.0000
  C   C3        1.0  0.72258  0.94593  0.07414  1.0000
  C   C4        1.0  0.72258  0.55407  0.57414  1.0000
  C   C5        1.0  0.22423  0.58276  0.39086  1.0000
  C   C6        1.0  0.22423  0.91724  0.89086  1.0000
  C   C7        1.0  0.72423  0.08276  0.10914  1.0000
  C   C8        1.0  0.72423  0.41724  0.60914  1.0000
  C   C9        1.0  0.26241  0.80035  0.43385  1.0000
  C   C10       1.0  0.26241  0.69966  0.93385  1.0000
  C   C11       1.0  0.76241  0.30035  0.06615  1.0000
  C   C12       1.0  0.76241  0.19965  0.56615  1.0000
  C   C13       1.0  0.39173  0.64560  0.54848  1.0000
  C   C14       1.0  0.39173  0.85440  0.04848  1.0000
  C   C15       1.0  0.89173  0.14560  0.95152  1.0000
  C   C16       1.0  0.89173  0.35440  0.45152  1.0000
  C   C17       1.0  0.14894  0.67445  0.58917  1.0000
  C   C18       1.0  0.14894  0.82555  0.08917  1.0000
  C   C19       1.0  0.64894  0.17445  0.91083  1.0000
  C   C20       1.0  0.64894  0.32555  0.41083  1.0000
  N   N1        1.0  0.25661  0.67404  0.49187  1.0000
  N   N2        1.0  0.25661  0.82596  0.99187  1.0000
  N   N3        1.0  0.75661  0.17404  0.00813  1.0000
  N   N4        1.0  0.75661  0.32596  0.50813  1.0000
  Cl  Cl1       1.0  0.42395  0.08641  0.31949  1.0000
  Cl  Cl2       1.0  0.42395  0.41359  0.81949  1.0000
  Cl  Cl3       1.0  0.92395  0.58641  0.18051  1.0000
  Cl  Cl4       1.0  0.92395  0.91359  0.68051  1.0000
  Cl  Cl5       1.0  0.02574  0.08814  0.29438  1.0000
  Cl  Cl6       1.0  0.02574  0.41186  0.79438  1.0000
  Cl  Cl7       1.0  0.52574  0.58814  0.20562  1.0000
  Cl  Cl8       1.0  0.52574  0.91186  0.70562  1.0000
  O   O1        1.0  0.41710  0.33954  0.09725  1.0000
  O   O2        1.0  0.41710  0.16046  0.59726  1.0000
  O   O3        1.0  0.91710  0.83954  0.40274  1.0000
  O   O4        1.0  0.91710  0.66046  0.90274  1.0000
  O   O5        1.0  0.09482  0.36154  0.07714  1.0000
  O   O6        1.0  0.09482  0.13846  0.57714  1.0000
  O   O7        1.0  0.59482  0.86154  0.42286  1.0000
  O   O8        1.0  0.59482  0.63846  0.92286  1.0000
  O   O9        1.0  0.20684  0.37455  0.33522  1.0000
  O   O10       1.0  0.20685  0.12545  0.83522  1.0000
  O   O11       1.0  0.70684  0.87455  0.16478  1.0000
  O   O12       1.0  0.70684  0.62545  0.66478  1.0000
  O   O13       1.0  0.23533  0.08675  0.03687  1.0000
  O   O14       1.0  0.23533  0.41325  0.53687  1.0000
  O   O15       1.0  0.73533  0.58675  0.46313  1.0000
  O   O16       1.0  0.73533  0.91325  0.96313  1.0000
