data_image0
_chemical_formula_structural       Cd4H48C52N8O20
_chemical_formula_sum              "Cd4 H48 C52 N8 O20"
_cell_length_a       10.3888
_cell_length_b       10.9067
_cell_length_c       12.9737
_cell_angle_alpha    90
_cell_angle_beta     90
_cell_angle_gamma    113.535

_space_group_name_H-M_alt    "P 1"
_space_group_IT_number       1

loop_
  _space_group_symop_operation_xyz
  'x, y, z'

loop_
  _atom_site_type_symbol
  _atom_site_label
  _atom_site_symmetry_multiplicity
  _atom_site_fract_x
  _atom_site_fract_y
  _atom_site_fract_z
  _atom_site_occupancy
  Cd  Cd1       1.0  0.16993  0.47335  0.01357  1.0000
  Cd  Cd2       1.0  0.83008  0.52665  0.51357  1.0000
  Cd  Cd3       1.0  0.31258  0.61304  0.70320  1.0000
  Cd  Cd4       1.0  0.68742  0.38696  0.20320  1.0000
  H   H1        1.0  0.08880  0.62948  0.82913  1.0000
  H   H2        1.0  0.91120  0.37052  0.32913  1.0000
  H   H3        1.0  0.06932  0.67505  0.71248  1.0000
  H   H4        1.0  0.93068  0.32495  0.21248  1.0000
  H   H5        1.0  0.61009  0.64893  0.65394  1.0000
  H   H6        1.0  0.38991  0.35107  0.15394  1.0000
  H   H7        1.0  0.51940  0.53030  0.58889  1.0000
  H   H8        1.0  0.48060  0.46970  0.08889  1.0000
  H   H9        1.0  0.09206  0.99938  0.53873  1.0000
  H   H10       1.0  0.90794  0.00062  0.03873  1.0000
  H   H11       1.0  0.19657  0.23074  0.61176  1.0000
  H   H12       1.0  0.80343  0.76926  0.11176  1.0000
  H   H13       1.0  0.95852  0.09147  0.88875  1.0000
  H   H14       1.0  0.04148  0.90853  0.38875  1.0000
  H   H15       1.0  0.64046  0.83648  0.81791  1.0000
  H   H16       1.0  0.35954  0.16352  0.31791  1.0000
  H   H17       1.0  0.62901  0.49308  0.98774  1.0000
  H   H18       1.0  0.37099  0.50692  0.48774  1.0000
  H   H19       1.0  0.02078  0.77804  0.87399  1.0000
  H   H20       1.0  0.97922  0.22196  0.37399  1.0000
  H   H21       1.0  0.45760  0.63931  0.17189  1.0000
  H   H22       1.0  0.54240  0.36069  0.67189  1.0000
  H   H23       1.0  0.04668  0.62398  0.19590  1.0000
  H   H24       1.0  0.95332  0.37602  0.69590  1.0000
  H   H25       1.0  0.20057  0.75563  0.36785  1.0000
  H   H26       1.0  0.79943  0.24437  0.86785  1.0000
  H   H27       1.0  0.54381  0.71700  0.35869  1.0000
  H   H28       1.0  0.45619  0.28300  0.85869  1.0000
  H   H29       1.0  0.44110  0.77913  0.43419  1.0000
  H   H30       1.0  0.55890  0.22087  0.93419  1.0000
  H   H31       1.0  0.51636  0.98301  0.31405  1.0000
  H   H32       1.0  0.48364  0.01699  0.81405  1.0000
  H   H33       1.0  0.61593  0.91446  0.24310  1.0000
  H   H34       1.0  0.38407  0.08554  0.74310  1.0000
  H   H35       1.0  0.74511  0.91960  0.42195  1.0000
  H   H36       1.0  0.25489  0.08040  0.92195  1.0000
  H   H37       1.0  0.79178  0.06315  0.34364  1.0000
  H   H38       1.0  0.20822  0.93685  0.84364  1.0000
  H   H39       1.0  0.77360  0.11246  0.53098  1.0000
  H   H40       1.0  0.22640  0.88754  0.03098  1.0000
  H   H41       1.0  0.66425  0.16029  0.44960  1.0000
  H   H42       1.0  0.33575  0.83971  0.94960  1.0000
  H   H43       1.0  0.63325  0.85767  0.61402  1.0000
  H   H44       1.0  0.36675  0.14234  0.11402  1.0000
  H   H45       1.0  0.40971  0.07197  0.48764  1.0000
  H   H46       1.0  0.59029  0.92803  0.98764  1.0000
  H   H47       1.0  0.22358  0.85019  0.59679  1.0000
  H   H48       1.0  0.77642  0.14981  0.09679  1.0000
  C   C1        1.0  0.92877  0.93852  0.77369  1.0000
  C   C2        1.0  0.07123  0.06147  0.27369  1.0000
  C   C3        1.0  0.96716  0.91463  0.67383  1.0000
  C   C4        1.0  0.03284  0.08537  0.17383  1.0000
  C   C5        1.0  0.06325  0.01933  0.61576  1.0000
  C   C6        1.0  0.93675  0.98067  0.11576  1.0000
  C   C7        1.0  0.12106  0.14828  0.65570  1.0000
  C   C8        1.0  0.87894  0.85172  0.15570  1.0000
  C   C9        1.0  0.08159  0.17376  0.75378  1.0000
  C   C10       1.0  0.91841  0.82624  0.25378  1.0000
  C   C11       1.0  0.98530  0.06895  0.81185  1.0000
  C   C12       1.0  0.01470  0.93105  0.31185  1.0000
  C   C13       1.0  0.84117  0.82146  0.83800  1.0000
  C   C14       1.0  0.15883  0.17854  0.33800  1.0000
  C   C15       1.0  0.69632  0.78001  0.85149  1.0000
  C   C16       1.0  0.30368  0.21999  0.35149  1.0000
  C   C17       1.0  0.61973  0.66255  0.90648  1.0000
  C   C18       1.0  0.38027  0.33746  0.40648  1.0000
  C   C19       1.0  0.68809  0.58627  0.94771  1.0000
  C   C20       1.0  0.31191  0.41373  0.44771  1.0000
  C   C21       1.0  0.83274  0.62784  0.93718  1.0000
  C   C22       1.0  0.16726  0.37215  0.43718  1.0000
  C   C23       1.0  0.90787  0.74533  0.88253  1.0000
  C   C24       1.0  0.09213  0.25467  0.38253  1.0000
  C   C25       1.0  0.89932  0.77842  0.62638  1.0000
  C   C26       1.0  0.10068  0.22158  0.12638  1.0000
  C   C27       1.0  0.14397  0.31299  0.79700  1.0000
  C   C28       1.0  0.85603  0.68701  0.29700  1.0000
  C   C29       1.0  0.46494  0.61883  0.92195  1.0000
  C   C30       1.0  0.53506  0.38117  0.42195  1.0000
  C   C31       1.0  0.90754  0.54901  0.98517  1.0000
  C   C32       1.0  0.09246  0.45099  0.48517  1.0000
  C   C33       1.0  0.36667  0.65540  0.19835  1.0000
  C   C34       1.0  0.63333  0.34460  0.69835  1.0000
  C   C35       1.0  0.15572  0.64959  0.21533  1.0000
  C   C36       1.0  0.84428  0.35041  0.71533  1.0000
  C   C37       1.0  0.23083  0.71524  0.30026  1.0000
  C   C38       1.0  0.76917  0.28475  0.80026  1.0000
  C   C39       1.0  0.48414  0.78063  0.35697  1.0000
  C   C40       1.0  0.51586  0.21937  0.85697  1.0000
  C   C41       1.0  0.57878  0.92212  0.32121  1.0000
  C   C42       1.0  0.42122  0.07788  0.82121  1.0000
  C   C43       1.0  0.70665  0.99286  0.39097  1.0000
  C   C44       1.0  0.29335  0.00714  0.89097  1.0000
  C   C45       1.0  0.68211  0.07422  0.47949  1.0000
  C   C46       1.0  0.31789  0.92578  0.97949  1.0000
  C   C47       1.0  0.54580  0.88604  0.59893  1.0000
  C   C48       1.0  0.45420  0.11396  0.09893  1.0000
  C   C49       1.0  0.42618  0.99460  0.53112  1.0000
  C   C50       1.0  0.57382  0.00540  0.03112  1.0000
  C   C51       1.0  0.33616  0.88569  0.58546  1.0000
  C   C52       1.0  0.66384  0.11431  0.08546  1.0000
  N   N1        1.0  0.24162  0.61283  0.15247  1.0000
  N   N2        1.0  0.75838  0.38717  0.65247  1.0000
  N   N3        1.0  0.36415  0.71764  0.28826  1.0000
  N   N4        1.0  0.63585  0.28236  0.78826  1.0000
  N   N5        1.0  0.55824  0.99348  0.54054  1.0000
  N   N6        1.0  0.44176  0.00653  0.04054  1.0000
  N   N7        1.0  0.41227  0.81890  0.62728  1.0000
  N   N8        1.0  0.58773  0.18110  0.12728  1.0000
  O   O1        1.0  0.77388  0.74148  0.59648  1.0000
  O   O2        1.0  0.22612  0.25852  0.09648  1.0000
  O   O3        1.0  0.97309  0.70919  0.61484  1.0000
  O   O4        1.0  0.02691  0.29081  0.11484  1.0000
  O   O5        1.0  0.24513  0.39826  0.74629  1.0000
  O   O6        1.0  0.75487  0.60174  0.24629  1.0000
  O   O7        1.0  0.08940  0.33255  0.87958  1.0000
  O   O8        1.0  0.91060  0.66746  0.37958  1.0000
  O   O9        1.0  0.39972  0.67792  0.87402  1.0000
  O   O10       1.0  0.60028  0.32208  0.37402  1.0000
  O   O11       1.0  0.40637  0.52355  0.98631  1.0000
  O   O12       1.0  0.59363  0.47645  0.48631  1.0000
  O   O13       1.0  0.84807  0.46305  0.05357  1.0000
  O   O14       1.0  0.15194  0.53695  0.55357  1.0000
  O   O15       1.0  0.03321  0.57773  0.95179  1.0000
  O   O16       1.0  0.96679  0.42227  0.45179  1.0000
  O   O17       1.0  0.13809  0.67143  0.76415  1.0000
  O   O18       1.0  0.86191  0.32857  0.26415  1.0000
  O   O19       1.0  0.51472  0.57697  0.65375  1.0000
  O   O20       1.0  0.48528  0.42303  0.15375  1.0000
