data_image0
_chemical_formula_structural       Ba2H32C24N16O16
_chemical_formula_sum              "Ba2 H32 C24 N16 O16"
_cell_length_a       9.08371
_cell_length_b       10.3596
_cell_length_c       11.6829
_cell_angle_alpha    102.559
_cell_angle_beta     95.4628
_cell_angle_gamma    105.264

_space_group_name_H-M_alt    "P 1"
_space_group_IT_number       1

loop_
  _space_group_symop_operation_xyz
  'x, y, z'

loop_
  _atom_site_type_symbol
  _atom_site_label
  _atom_site_symmetry_multiplicity
  _atom_site_fract_x
  _atom_site_fract_y
  _atom_site_fract_z
  _atom_site_occupancy
  Ba  Ba1       1.0  0.75123  0.50980  0.00046  1.0000
  Ba  Ba2       1.0  0.24877  0.49020  0.99954  1.0000
  H   H1        1.0  0.42264  0.46514  0.36182  1.0000
  H   H2        1.0  0.57736  0.53486  0.63818  1.0000
  H   H3        1.0  0.35856  0.31002  0.24575  1.0000
  H   H4        1.0  0.64143  0.68998  0.75425  1.0000
  H   H5        1.0  0.50452  0.93270  0.27415  1.0000
  H   H6        1.0  0.49549  0.06730  0.72585  1.0000
  H   H7        1.0  0.56524  0.71239  0.27279  1.0000
  H   H8        1.0  0.43477  0.28761  0.72721  1.0000
  H   H9        1.0  0.75384  0.70079  0.43785  1.0000
  H   H10       1.0  0.24616  0.29921  0.56215  1.0000
  H   H11       1.0  0.82823  0.13439  0.59718  1.0000
  H   H12       1.0  0.17176  0.86561  0.40282  1.0000
  H   H13       1.0  0.22526  0.80658  0.84351  1.0000
  H   H14       1.0  0.77475  0.19343  0.15650  1.0000
  H   H15       1.0  0.12106  0.66155  0.72564  1.0000
  H   H16       1.0  0.87895  0.33846  0.27436  1.0000
  H   H17       1.0  0.62238  0.18688  0.91025  1.0000
  H   H18       1.0  0.37762  0.81312  0.08975  1.0000
  H   H19       1.0  0.48283  0.21051  0.97494  1.0000
  H   H20       1.0  0.51717  0.78949  0.02506  1.0000
  H   H21       1.0  0.87239  0.33133  0.78092  1.0000
  H   H22       1.0  0.12761  0.66868  0.21908  1.0000
  H   H23       1.0  0.72840  0.32985  0.69582  1.0000
  H   H24       1.0  0.27160  0.67015  0.30418  1.0000
  H   H25       1.0  0.95322  0.78801  0.24967  1.0000
  H   H26       1.0  0.04678  0.21199  0.75033  1.0000
  H   H27       1.0  0.86893  0.63162  0.25593  1.0000
  H   H28       1.0  0.13108  0.36838  0.74406  1.0000
  H   H29       1.0  0.76964  0.79296  0.97849  1.0000
  H   H30       1.0  0.23036  0.20704  0.02151  1.0000
  H   H31       1.0  0.77173  0.88383  0.10564  1.0000
  H   H32       1.0  0.22826  0.11617  0.89436  1.0000
  C   C1        1.0  0.57144  0.45845  0.22852  1.0000
  C   C2        1.0  0.42855  0.54155  0.77148  1.0000
  C   C3        1.0  0.46090  0.38673  0.30253  1.0000
  C   C4        1.0  0.53910  0.61326  0.69747  1.0000
  C   C5        1.0  0.62661  0.17540  0.43274  1.0000
  C   C6        1.0  0.37338  0.82460  0.56726  1.0000
  C   C7        1.0  0.66337  0.04708  0.43495  1.0000
  C   C8        1.0  0.33662  0.95292  0.56505  1.0000
  C   C9        1.0  0.58940  0.92746  0.34403  1.0000
  C   C10       1.0  0.41060  0.07254  0.65597  1.0000
  C   C11       1.0  0.62250  0.80391  0.34462  1.0000
  C   C12       1.0  0.37750  0.19609  0.65538  1.0000
  C   C13       1.0  0.72816  0.79748  0.43633  1.0000
  C   C14       1.0  0.27184  0.20252  0.56367  1.0000
  C   C15       1.0  0.80259  0.91676  0.52769  1.0000
  C   C16       1.0  0.19741  0.08324  0.47231  1.0000
  C   C17       1.0  0.77045  0.04158  0.52675  1.0000
  C   C18       1.0  0.22955  0.95842  0.47325  1.0000
  C   C19       1.0  0.91512  0.91099  0.62271  1.0000
  C   C20       1.0  0.08488  0.08901  0.37729  1.0000
  C   C21       1.0  0.11010  0.75003  0.79188  1.0000
  C   C22       1.0  0.88991  0.24997  0.20812  1.0000
  C   C23       1.0  0.99879  0.69866  0.87484  1.0000
  C   C24       1.0  0.00121  0.30135  0.12516  1.0000
  N   N1        1.0  0.54120  0.19094  0.33917  1.0000
  N   N2        1.0  0.45880  0.80905  0.66083  1.0000
  N   N3        1.0  0.53482  0.31948  0.37703  1.0000
  N   N4        1.0  0.46518  0.68052  0.62297  1.0000
  N   N5        1.0  0.61199  0.38346  0.48608  1.0000
  N   N6        1.0  0.38801  0.61654  0.51391  1.0000
  N   N7        1.0  0.67043  0.29307  0.52305  1.0000
  N   N8        1.0  0.32957  0.70693  0.47695  1.0000
  N   N9        1.0  0.94538  0.79444  0.63613  1.0000
  N   N10       1.0  0.05462  0.20556  0.36387  1.0000
  N   N11       1.0  0.05459  0.84032  0.73132  1.0000
  N   N12       1.0  0.94542  0.15968  0.26868  1.0000
  N   N13       1.0  0.09120  0.97609  0.77700  1.0000
  N   N14       1.0  0.90880  0.02391  0.22300  1.0000
  N   N15       1.0  0.00471  0.02277  0.70892  1.0000
  N   N16       1.0  0.99529  0.97722  0.29107  1.0000
  O   O1        1.0  0.71521  0.48437  0.25996  1.0000
  O   O2        1.0  0.28479  0.51562  0.74004  1.0000
  O   O3        1.0  0.50744  0.49023  0.14108  1.0000
  O   O4        1.0  0.49256  0.50977  0.85892  1.0000
  O   O5        1.0  0.03994  0.62303  0.93568  1.0000
  O   O6        1.0  0.96007  0.37698  0.06432  1.0000
  O   O7        1.0  0.87491  0.73277  0.87505  1.0000
  O   O8        1.0  0.12510  0.26723  0.12495  1.0000
  O   O9        1.0  0.59798  0.23139  0.98541  1.0000
  O   O10       1.0  0.40202  0.76861  0.01459  1.0000
  O   O11       1.0  0.76502  0.33850  0.78032  1.0000
  O   O12       1.0  0.23498  0.66150  0.21968  1.0000
  O   O13       1.0  0.94537  0.68878  0.21823  1.0000
  O   O14       1.0  0.05463  0.31122  0.78177  1.0000
  O   O15       1.0  0.70876  0.80030  0.04456  1.0000
  O   O16       1.0  0.29124  0.19970  0.95544  1.0000
