data_image0
_chemical_formula_structural       H28Pb2C20N8O12
_chemical_formula_sum              "H28 Pb2 C20 N8 O12"
_cell_length_a       8.19095
_cell_length_b       8.44483
_cell_length_c       11.2907
_cell_angle_alpha    81.5324
_cell_angle_beta     77.9828
_cell_angle_gamma    66.4375

_space_group_name_H-M_alt    "P 1"
_space_group_IT_number       1

loop_
  _space_group_symop_operation_xyz
  'x, y, z'

loop_
  _atom_site_type_symbol
  _atom_site_label
  _atom_site_symmetry_multiplicity
  _atom_site_fract_x
  _atom_site_fract_y
  _atom_site_fract_z
  _atom_site_occupancy
  H   H1        1.0  0.92321  0.99895  0.78386  1.0000
  H   H2        1.0  0.07679  0.00104  0.21614  1.0000
  H   H3        1.0  0.92140  0.21125  0.77279  1.0000
  H   H4        1.0  0.07860  0.78875  0.22722  1.0000
  H   H5        1.0  0.98414  0.07097  0.90263  1.0000
  H   H6        1.0  0.01585  0.92902  0.09738  1.0000
  H   H7        1.0  0.30847  0.18459  0.78409  1.0000
  H   H8        1.0  0.69153  0.81541  0.21592  1.0000
  H   H9        1.0  0.60844  0.27577  0.88063  1.0000
  H   H10       1.0  0.39156  0.72424  0.11936  1.0000
  H   H11       1.0  0.50893  0.12058  0.90085  1.0000
  H   H12       1.0  0.49107  0.87942  0.09913  1.0000
  H   H13       1.0  0.67421  0.09623  0.98861  1.0000
  H   H14       1.0  0.32579  0.90378  0.01138  1.0000
  H   H15       1.0  0.15232  0.28361  0.02684  1.0000
  H   H16       1.0  0.84768  0.71638  0.97316  1.0000
  H   H17       1.0  0.19310  0.81713  0.63562  1.0000
  H   H18       1.0  0.80690  0.18287  0.36438  1.0000
  H   H19       1.0  0.57023  0.36892  0.13679  1.0000
  H   H20       1.0  0.42977  0.63109  0.86320  1.0000
  H   H21       1.0  0.01214  0.18998  0.47494  1.0000
  H   H22       1.0  0.98786  0.81002  0.52507  1.0000
  H   H23       1.0  0.83328  0.15897  0.55520  1.0000
  H   H24       1.0  0.16672  0.84104  0.44481  1.0000
  H   H25       1.0  0.66002  0.53764  0.30110  1.0000
  H   H26       1.0  0.33998  0.46236  0.69889  1.0000
  H   H27       1.0  0.47290  0.70269  0.34281  1.0000
  H   H28       1.0  0.52711  0.29732  0.65719  1.0000
  Pb  Pb1       1.0  0.71773  0.55981  0.54616  1.0000
  Pb  Pb2       1.0  0.28228  0.44020  0.45384  1.0000
  C   C1        1.0  0.99368  0.07584  0.80365  1.0000
  C   C2        1.0  0.00632  0.92416  0.19635  1.0000
  C   C3        1.0  0.18521  0.01319  0.74290  1.0000
  C   C4        1.0  0.81479  0.98680  0.25711  1.0000
  C   C5        1.0  0.32141  0.07351  0.74015  1.0000
  C   C6        1.0  0.67859  0.92649  0.25986  1.0000
  C   C7        1.0  0.47275  0.96509  0.66425  1.0000
  C   C8        1.0  0.52725  0.03491  0.33576  1.0000
  C   C9        1.0  0.65625  0.96721  0.62580  1.0000
  C   C10       1.0  0.34375  0.03280  0.37421  1.0000
  C   C11       1.0  0.55845  0.19138  0.94878  1.0000
  C   C12       1.0  0.44155  0.80862  0.05121  1.0000
  C   C13       1.0  0.41433  0.29045  0.04444  1.0000
  C   C14       1.0  0.58566  0.70957  0.95557  1.0000
  C   C15       1.0  0.23062  0.32334  0.07386  1.0000
  C   C16       1.0  0.76940  0.67664  0.92613  1.0000
  C   C17       1.0  0.16689  0.42058  0.17722  1.0000
  C   C18       1.0  0.83309  0.57941  0.82278  1.0000
  C   C19       1.0  0.98437  0.48120  0.25430  1.0000
  C   C20       1.0  0.01563  0.51878  0.74569  1.0000
  N   N1        1.0  0.43180  0.84615  0.62255  1.0000
  N   N2        1.0  0.56820  0.15385  0.37746  1.0000
  N   N3        1.0  0.25950  0.87574  0.67262  1.0000
  N   N4        1.0  0.74050  0.12426  0.32738  1.0000
  N   N5        1.0  0.30236  0.44896  0.20897  1.0000
  N   N6        1.0  0.69764  0.55103  0.79102  1.0000
  N   N7        1.0  0.44887  0.36992  0.12769  1.0000
  N   N8        1.0  0.55112  0.63007  0.87230  1.0000
  O   O1        1.0  0.77447  0.84395  0.56432  1.0000
  O   O2        1.0  0.22553  0.15605  0.43569  1.0000
  O   O3        1.0  0.68574  0.09187  0.65587  1.0000
  O   O4        1.0  0.31425  0.90814  0.34414  1.0000
  O   O5        1.0  0.97266  0.54167  0.35495  1.0000
  O   O6        1.0  0.02734  0.45834  0.64504  1.0000
  O   O7        1.0  0.85591  0.46828  0.21553  1.0000
  O   O8        1.0  0.14408  0.53171  0.78448  1.0000
  O   O9        1.0  0.87637  0.23197  0.48824  1.0000
  O   O10       1.0  0.12364  0.76802  0.51176  1.0000
  O   O11       1.0  0.54322  0.57691  0.36180  1.0000
  O   O12       1.0  0.45677  0.42311  0.63820  1.0000
