data_image0
_chemical_formula_structural       Co2H36C54N4O12
_chemical_formula_sum              "Co2 H36 C54 N4 O12"
_cell_length_a       7.68792
_cell_length_b       11.2742
_cell_length_c       13.3723
_cell_angle_alpha    83.6013
_cell_angle_beta     83.5642
_cell_angle_gamma    70.8048

_space_group_name_H-M_alt    "P 1"
_space_group_IT_number       1

loop_
  _space_group_symop_operation_xyz
  'x, y, z'

loop_
  _atom_site_type_symbol
  _atom_site_label
  _atom_site_symmetry_multiplicity
  _atom_site_fract_x
  _atom_site_fract_y
  _atom_site_fract_z
  _atom_site_occupancy
  Co  Co1       1.0  0.20191  0.37371  0.49230  1.0000
  Co  Co2       1.0  0.79818  0.62584  0.50759  1.0000
  H   H1        1.0  0.91153  0.25501  0.31335  1.0000
  H   H2        1.0  0.09021  0.74353  0.68696  1.0000
  H   H3        1.0  0.75055  0.19255  0.18507  1.0000
  H   H4        1.0  0.25090  0.80610  0.81514  1.0000
  H   H5        1.0  0.18693  0.21140  0.95923  1.0000
  H   H6        1.0  0.81093  0.79191  0.04000  1.0000
  H   H7        1.0  0.34756  0.27348  0.08735  1.0000
  H   H8        1.0  0.65062  0.72961  0.91190  1.0000
  H   H9        1.0  0.90050  0.38371  0.90409  1.0000
  H   H10       1.0  0.09752  0.61745  0.09554  1.0000
  H   H11       1.0  0.89042  0.45722  0.72121  1.0000
  H   H12       1.0  0.10799  0.54297  0.27823  1.0000
  H   H13       1.0  0.84088  0.10750  0.65373  1.0000
  H   H14       1.0  0.15898  0.89180  0.34684  1.0000
  H   H15       1.0  0.85676  0.03042  0.83564  1.0000
  H   H16       1.0  0.14223  0.97001  0.16522  1.0000
  H   H17       1.0  0.16330  0.13616  0.41069  1.0000
  H   H18       1.0  0.84027  0.86187  0.58863  1.0000
  H   H19       1.0  0.23449  0.91189  0.48420  1.0000
  H   H20       1.0  0.76986  0.08635  0.51563  1.0000
  H   H21       1.0  0.36818  0.84917  0.65032  1.0000
  H   H22       1.0  0.63360  0.15044  0.35037  1.0000
  H   H23       1.0  0.46542  0.92162  0.80650  1.0000
  H   H24       1.0  0.53355  0.07865  0.19399  1.0000
  H   H25       1.0  0.50133  0.09454  0.89185  1.0000
  H   H26       1.0  0.49654  0.90617  0.10874  1.0000
  H   H27       1.0  0.45800  0.33391  0.88967  1.0000
  H   H28       1.0  0.54014  0.66602  0.11075  1.0000
  H   H29       1.0  0.35443  0.54587  0.79383  1.0000
  H   H30       1.0  0.64523  0.45408  0.20632  1.0000
  H   H31       1.0  0.23004  0.56702  0.62452  1.0000
  H   H32       1.0  0.77083  0.43287  0.37531  1.0000
  H   H33       1.0  0.45817  0.35763  0.35875  1.0000
  H   H34       1.0  0.54149  0.64208  0.64127  1.0000
  H   H35       1.0  0.56634  0.35160  0.45903  1.0000
  H   H36       1.0  0.43406  0.64704  0.54086  1.0000
  C   C1        1.0  0.23376  0.31066  0.28272  1.0000
  C   C2        1.0  0.76623  0.68962  0.71724  1.0000
  C   C3        1.0  0.13719  0.27095  0.20720  1.0000
  C   C4        1.0  0.86268  0.72986  0.79258  1.0000
  C   C5        1.0  0.97013  0.24610  0.23536  1.0000
  C   C6        1.0  0.03064  0.75352  0.76471  1.0000
  C   C7        1.0  0.88098  0.21100  0.16451  1.0000
  C   C8        1.0  0.11973  0.78866  0.83558  1.0000
  C   C9        1.0  0.95627  0.20101  0.06395  1.0000
  C   C10       1.0  0.04354  0.79988  0.93594  1.0000
  C   C11       1.0  0.12503  0.22358  0.03625  1.0000
  C   C12       1.0  0.87374  0.77867  0.96324  1.0000
  C   C13       1.0  0.21522  0.25743  0.10750  1.0000
  C   C14       1.0  0.78360  0.74476  0.89199  1.0000
  C   C15       1.0  0.85860  0.16039  0.99078  1.0000
  C   C16       1.0  0.14118  0.84019  0.00938  1.0000
  C   C17       1.0  0.87771  0.20194  0.88172  1.0000
  C   C18       1.0  0.12112  0.79876  0.11844  1.0000
  C   C19       1.0  0.89007  0.32207  0.84928  1.0000
  C   C20       1.0  0.10836  0.67865  0.15057  1.0000
  C   C21       1.0  0.88196  0.36451  0.74766  1.0000
  C   C22       1.0  0.11675  0.63571  0.25211  1.0000
  C   C23       1.0  0.86017  0.28877  0.67700  1.0000
  C   C24       1.0  0.13925  0.71095  0.32296  1.0000
  C   C25       1.0  0.85508  0.16708  0.70889  1.0000
  C   C26       1.0  0.14435  0.83272  0.29141  1.0000
  C   C27       1.0  0.86401  0.12391  0.81009  1.0000
  C   C28       1.0  0.13506  0.87638  0.19033  1.0000
  C   C29       1.0  0.83534  0.34058  0.56928  1.0000
  C   C30       1.0  0.16511  0.65868  0.43043  1.0000
  C   C31       1.0  0.22104  0.10689  0.48341  1.0000
  C   C32       1.0  0.78150  0.89184  0.51626  1.0000
  C   C33       1.0  0.26008  0.98201  0.52525  1.0000
  C   C34       1.0  0.74279  0.01673  0.47465  1.0000
  C   C35       1.0  0.33286  0.94636  0.61828  1.0000
  C   C36       1.0  0.66873  0.05309  0.38194  1.0000
  C   C37       1.0  0.36246  0.03832  0.67150  1.0000
  C   C38       1.0  0.63797  0.96159  0.32866  1.0000
  C   C39       1.0  0.43028  0.01665  0.76972  1.0000
  C   C40       1.0  0.56910  0.98352  0.23065  1.0000
  C   C41       1.0  0.44785  0.11302  0.81743  1.0000
  C   C42       1.0  0.55098  0.88727  0.18291  1.0000
  C   C43       1.0  0.39702  0.23956  0.77147  1.0000
  C   C44       1.0  0.60203  0.76053  0.22863  1.0000
  C   C45       1.0  0.40516  0.34547  0.81562  1.0000
  C   C46       1.0  0.59377  0.65457  0.18454  1.0000
  C   C47       1.0  0.34733  0.46252  0.76283  1.0000
  C   C48       1.0  0.65229  0.53747  0.23726  1.0000
  C   C49       1.0  0.28002  0.47643  0.66713  1.0000
  C   C50       1.0  0.72013  0.52348  0.33280  1.0000
  C   C51       1.0  0.33223  0.26133  0.67427  1.0000
  C   C52       1.0  0.66741  0.73864  0.32568  1.0000
  C   C53       1.0  0.31762  0.16181  0.62432  1.0000
  C   C54       1.0  0.68270  0.83798  0.37563  1.0000
  N   N1        1.0  0.25090  0.19653  0.53091  1.0000
  N   N2        1.0  0.75005  0.80277  0.46884  1.0000
  N   N3        1.0  0.27335  0.37764  0.62281  1.0000
  N   N4        1.0  0.72667  0.62229  0.37708  1.0000
  O   O1        1.0  0.13248  0.34704  0.36450  1.0000
  O   O2        1.0  0.86747  0.65280  0.63551  1.0000
  O   O3        1.0  0.39985  0.30674  0.26180  1.0000
  O   O4        1.0  0.60014  0.69354  0.73824  1.0000
  O   O5        1.0  0.75779  0.09517  0.02051  1.0000
  O   O6        1.0  0.24300  0.90474  0.97981  1.0000
  O   O7        1.0  0.89730  0.43338  0.53914  1.0000
  O   O8        1.0  0.10280  0.56610  0.46075  1.0000
  O   O9        1.0  0.76187  0.28885  0.51508  1.0000
  O   O10       1.0  0.23997  0.70985  0.48432  1.0000
  O   O11       1.0  0.45046  0.39376  0.42503  1.0000
  O   O12       1.0  0.54989  0.60557  0.57512  1.0000
