data_image0
_chemical_formula_structural       Lu2H24C24O18
_chemical_formula_sum              "Lu2 H24 C24 O18"
_cell_length_a       7.73595
_cell_length_b       9.28677
_cell_length_c       10.7065
_cell_angle_alpha    69.3205
_cell_angle_beta     71.5014
_cell_angle_gamma    77.1074

_space_group_name_H-M_alt    "P 1"
_space_group_IT_number       1

loop_
  _space_group_symop_operation_xyz
  'x, y, z'

loop_
  _atom_site_type_symbol
  _atom_site_label
  _atom_site_symmetry_multiplicity
  _atom_site_fract_x
  _atom_site_fract_y
  _atom_site_fract_z
  _atom_site_occupancy
  Lu  Lu1       1.0  0.23647  0.20579  0.49075  1.0000
  Lu  Lu2       1.0  0.76352  0.79421  0.50925  1.0000
  H   H1        1.0  0.45095  0.46185  0.38609  1.0000
  H   H2        1.0  0.54904  0.53815  0.61391  1.0000
  H   H3        1.0  0.09267  0.89758  0.61513  1.0000
  H   H4        1.0  0.90735  0.10242  0.38487  1.0000
  H   H5        1.0  0.19369  0.92744  0.46173  1.0000
  H   H6        1.0  0.80631  0.07256  0.53827  1.0000
  H   H7        1.0  0.21104  0.50056  0.53326  1.0000
  H   H8        1.0  0.78896  0.49943  0.46674  1.0000
  H   H9        1.0  0.02636  0.44342  0.63627  1.0000
  H   H10       1.0  0.97365  0.55658  0.36373  1.0000
  H   H11       1.0  0.55992  0.32998  0.48170  1.0000
  H   H12       1.0  0.44008  0.67002  0.51830  1.0000
  H   H13       1.0  0.16872  0.10214  0.90724  1.0000
  H   H14       1.0  0.83128  0.89786  0.09276  1.0000
  H   H15       1.0  0.07585  0.00376  0.16614  1.0000
  H   H16       1.0  0.92415  0.99623  0.83386  1.0000
  H   H17       1.0  0.51661  0.62829  0.15869  1.0000
  H   H18       1.0  0.48339  0.37171  0.84131  1.0000
  H   H19       1.0  0.59689  0.71866  0.90099  1.0000
  H   H20       1.0  0.40312  0.28134  0.09901  1.0000
  H   H21       1.0  0.17910  0.62498  0.08020  1.0000
  H   H22       1.0  0.82090  0.37503  0.91981  1.0000
  H   H23       1.0  0.89777  0.24290  0.14625  1.0000
  H   H24       1.0  0.10223  0.75710  0.85375  1.0000
  C   C1        1.0  0.43278  0.96591  0.73335  1.0000
  C   C2        1.0  0.56721  0.03410  0.26665  1.0000
  C   C3        1.0  0.38650  0.91460  0.88860  1.0000
  C   C4        1.0  0.61350  0.08540  0.11140  1.0000
  C   C5        1.0  0.24188  0.99721  0.96336  1.0000
  C   C6        1.0  0.75812  0.00280  0.03664  1.0000
  C   C7        1.0  0.19113  0.94305  0.10709  1.0000
  C   C8        1.0  0.80887  0.05695  0.89291  1.0000
  C   C9        1.0  0.28793  0.80917  0.17851  1.0000
  C   C10       1.0  0.71208  0.19083  0.82149  1.0000
  C   C11       1.0  0.43910  0.73100  0.10381  1.0000
  C   C12       1.0  0.56091  0.26900  0.89619  1.0000
  C   C13       1.0  0.48514  0.78194  0.95998  1.0000
  C   C14       1.0  0.51486  0.21806  0.04002  1.0000
  C   C15       1.0  0.22339  0.74805  0.33260  1.0000
  C   C16       1.0  0.77662  0.25195  0.66739  1.0000
  C   C17       1.0  0.09755  0.34607  0.25766  1.0000
  C   C18       1.0  0.90245  0.65392  0.74234  1.0000
  C   C19       1.0  0.04368  0.42628  0.12620  1.0000
  C   C20       1.0  0.95633  0.57372  0.87381  1.0000
  C   C21       1.0  0.09981  0.57187  0.04451  1.0000
  C   C22       1.0  0.90018  0.42813  0.95550  1.0000
  C   C23       1.0  0.94325  0.35485  0.08143  1.0000
  C   C24       1.0  0.05674  0.64515  0.91857  1.0000
  O   O1        1.0  0.34322  0.09070  0.67398  1.0000
  O   O2        1.0  0.65676  0.90930  0.32604  1.0000
  O   O3        1.0  0.06365  0.80350  0.39102  1.0000
  O   O4        1.0  0.93635  0.19650  0.60898  1.0000
  O   O5        1.0  0.16352  0.42145  0.30884  1.0000
  O   O6        1.0  0.83649  0.57854  0.69116  1.0000
  O   O7        1.0  0.08458  0.20231  0.31829  1.0000
  O   O8        1.0  0.91543  0.79769  0.68171  1.0000
  O   O9        1.0  0.19677  0.94998  0.54339  1.0000
  O   O10       1.0  0.80323  0.05002  0.45660  1.0000
  O   O11       1.0  0.55643  0.88243  0.67065  1.0000
  O   O12       1.0  0.44357  0.11758  0.32934  1.0000
  O   O13       1.0  0.15257  0.40507  0.59209  1.0000
  O   O14       1.0  0.84743  0.59493  0.40791  1.0000
  O   O15       1.0  0.32807  0.64518  0.40024  1.0000
  O   O16       1.0  0.67194  0.35481  0.59975  1.0000
  O   O17       1.0  0.48662  0.34825  0.41580  1.0000
  O   O18       1.0  0.51338  0.65175  0.58419  1.0000
