data_image0
_chemical_formula_structural       Cu4H16C20Br4N4
_chemical_formula_sum              "Cu4 H16 C20 Br4 N4"
_cell_length_a       3.85019
_cell_length_b       9.95092
_cell_length_c       15.8829
_cell_angle_alpha    110.4
_cell_angle_beta     88.1933
_cell_angle_gamma    98.2009

_space_group_name_H-M_alt    "P 1"
_space_group_IT_number       1

loop_
  _space_group_symop_operation_xyz
  'x, y, z'

loop_
  _atom_site_type_symbol
  _atom_site_label
  _atom_site_symmetry_multiplicity
  _atom_site_fract_x
  _atom_site_fract_y
  _atom_site_fract_z
  _atom_site_occupancy
  Cu  Cu1       1.0  0.11434  0.82991  0.28984  1.0000
  Cu  Cu2       1.0  0.88567  0.17009  0.71016  1.0000
  Cu  Cu3       1.0  0.57746  0.66523  0.19120  1.0000
  Cu  Cu4       1.0  0.42251  0.33477  0.80880  1.0000
  H   H1        1.0  0.16626  0.08625  0.46026  1.0000
  H   H2        1.0  0.83375  0.91376  0.53975  1.0000
  H   H3        1.0  0.99797  0.33338  0.50884  1.0000
  H   H4        1.0  0.00211  0.66664  0.49116  1.0000
  H   H5        1.0  0.75323  0.41873  0.39435  1.0000
  H   H6        1.0  0.24682  0.58128  0.60565  1.0000
  H   H7        1.0  0.86201  0.00007  0.19695  1.0000
  H   H8        1.0  0.13799  0.99994  0.80305  1.0000
  H   H9        1.0  0.83057  0.48875  0.27913  1.0000
  H   H10       1.0  0.16941  0.51125  0.72087  1.0000
  H   H11       1.0  0.44251  0.04183  0.12579  1.0000
  H   H12       1.0  0.55746  0.95816  0.87421  1.0000
  H   H13       1.0  0.22365  0.13059  0.01022  1.0000
  H   H14       1.0  0.77634  0.86940  0.98978  1.0000
  H   H15       1.0  0.29427  0.39524  0.03909  1.0000
  H   H16       1.0  0.70571  0.60475  0.96091  1.0000
  C   C1        1.0  0.05796  0.12566  0.41212  1.0000
  C   C2        1.0  0.94207  0.87436  0.58788  1.0000
  C   C3        1.0  0.96753  0.26477  0.43835  1.0000
  C   C4        1.0  0.03251  0.73524  0.56165  1.0000
  C   C5        1.0  0.83301  0.31135  0.37460  1.0000
  C   C6        1.0  0.16703  0.68866  0.62540  1.0000
  C   C7        1.0  0.79073  0.21685  0.28496  1.0000
  C   C8        1.0  0.20928  0.78316  0.71505  1.0000
  C   C9        1.0  0.88663  0.07888  0.26509  1.0000
  C   C10       1.0  0.11338  0.92112  0.73491  1.0000
  C   C11       1.0  0.69080  0.40470  0.22181  1.0000
  C   C12       1.0  0.30918  0.59529  0.77819  1.0000
  C   C13       1.0  0.65426  0.25882  0.21344  1.0000
  C   C14       1.0  0.34571  0.74118  0.78656  1.0000
  C   C15       1.0  0.48450  0.15705  0.13524  1.0000
  C   C16       1.0  0.51548  0.84295  0.86476  1.0000
  C   C17       1.0  0.35931  0.20551  0.07129  1.0000
  C   C18       1.0  0.64067  0.79448  0.92870  1.0000
  C   C19       1.0  0.39868  0.35357  0.08661  1.0000
  C   C20       1.0  0.60130  0.64642  0.91339  1.0000
  Br  Br1       1.0  0.12996  0.74718  0.12035  1.0000
  Br  Br2       1.0  0.86999  0.25280  0.87965  1.0000
  Br  Br3       1.0  0.52531  0.74348  0.36215  1.0000
  Br  Br4       1.0  0.47470  0.25652  0.63784  1.0000
  N   N1        1.0  0.01951  0.03386  0.32635  1.0000
  N   N2        1.0  0.98050  0.96615  0.67366  1.0000
  N   N3        1.0  0.56034  0.45213  0.16124  1.0000
  N   N4        1.0  0.43963  0.54787  0.83876  1.0000
