data_image0
_chemical_formula_structural       Cu4H32C40N8Cl4
_chemical_formula_sum              "Cu4 H32 C40 N8 Cl4"
_cell_length_a       6.52254
_cell_length_b       9.14032
_cell_length_c       16.4273
_cell_angle_alpha    89.9976
_cell_angle_beta     90.0015
_cell_angle_gamma    110.164

_space_group_name_H-M_alt    "P 1"
_space_group_IT_number       1

loop_
  _space_group_symop_operation_xyz
  'x, y, z'

loop_
  _atom_site_type_symbol
  _atom_site_label
  _atom_site_symmetry_multiplicity
  _atom_site_fract_x
  _atom_site_fract_y
  _atom_site_fract_z
  _atom_site_occupancy
  Cu  Cu1       1.0  0.26421  0.35156  0.17816  1.0000
  Cu  Cu2       1.0  0.23581  0.64845  0.67817  1.0000
  Cu  Cu3       1.0  0.73582  0.64844  0.82184  1.0000
  Cu  Cu4       1.0  0.76419  0.35155  0.32183  1.0000
  H   H1        1.0  0.69517  0.59490  0.19184  1.0000
  H   H2        1.0  0.80486  0.40513  0.69186  1.0000
  H   H3        1.0  0.30485  0.40509  0.80815  1.0000
  H   H4        1.0  0.19514  0.59488  0.30815  1.0000
  H   H5        1.0  0.71921  0.92259  0.99915  1.0000
  H   H6        1.0  0.78077  0.07745  0.49917  1.0000
  H   H7        1.0  0.28079  0.07740  0.00085  1.0000
  H   H8        1.0  0.21923  0.92257  0.50083  1.0000
  H   H9        1.0  0.35307  0.73697  0.95197  1.0000
  H   H10       1.0  0.14692  0.26304  0.45197  1.0000
  H   H11       1.0  0.64694  0.26300  0.04803  1.0000
  H   H12       1.0  0.85307  0.73697  0.54803  1.0000
  H   H13       1.0  0.17427  0.49529  0.03200  1.0000
  H   H14       1.0  0.32573  0.50471  0.53200  1.0000
  H   H15       1.0  0.82575  0.50468  0.96801  1.0000
  H   H16       1.0  0.67426  0.49531  0.46800  1.0000
  H   H17       1.0  0.89341  0.08953  0.11640  1.0000
  H   H18       1.0  0.60659  0.91049  0.61641  1.0000
  H   H19       1.0  0.10662  0.91049  0.88359  1.0000
  H   H20       1.0  0.39341  0.08951  0.38359  1.0000
  H   H21       1.0  0.07344  0.68074  0.15301  1.0000
  H   H22       1.0  0.42655  0.31926  0.65303  1.0000
  H   H23       1.0  0.92657  0.31926  0.84697  1.0000
  H   H24       1.0  0.57343  0.68073  0.34697  1.0000
  H   H25       1.0  0.44423  0.86198  0.19584  1.0000
  H   H26       1.0  0.05576  0.13801  0.69584  1.0000
  H   H27       1.0  0.55577  0.13802  0.80416  1.0000
  H   H28       1.0  0.94422  0.86198  0.30416  1.0000
  H   H29       1.0  0.51852  0.14944  0.19717  1.0000
  H   H30       1.0  0.98148  0.85056  0.69718  1.0000
  H   H31       1.0  0.48148  0.85056  0.80283  1.0000
  H   H32       1.0  0.01851  0.14943  0.30282  1.0000
  C   C1        1.0  0.62567  0.63287  0.13897  1.0000
  C   C2        1.0  0.87434  0.36715  0.63898  1.0000
  C   C3        1.0  0.37435  0.36713  0.86104  1.0000
  C   C4        1.0  0.12567  0.63286  0.36103  1.0000
  C   C5        1.0  0.73852  0.77248  0.09858  1.0000
  C   C6        1.0  0.76148  0.22754  0.59860  1.0000
  C   C7        1.0  0.26148  0.22752  0.90142  1.0000
  C   C8        1.0  0.23852  0.77246  0.40141  1.0000
  C   C9        1.0  0.63704  0.81429  0.03162  1.0000
  C   C10       1.0  0.86296  0.18573  0.53164  1.0000
  C   C11       1.0  0.36295  0.18570  0.96838  1.0000
  C   C12       1.0  0.13704  0.81428  0.46837  1.0000
  C   C13       1.0  0.43396  0.71349  0.00598  1.0000
  C   C14       1.0  0.06604  0.28652  0.50598  1.0000
  C   C15       1.0  0.56606  0.28650  0.99403  1.0000
  C   C16       1.0  0.93395  0.71348  0.49402  1.0000
  C   C17       1.0  0.33379  0.57716  0.04948  1.0000
  C   C18       1.0  0.16621  0.42284  0.54949  1.0000
  C   C19       1.0  0.66622  0.42282  0.95052  1.0000
  C   C20       1.0  0.83379  0.57718  0.45051  1.0000
  C   C21       1.0  0.01164  0.03338  0.13136  1.0000
  C   C22       1.0  0.48835  0.96664  0.63137  1.0000
  C   C23       1.0  0.98837  0.96663  0.86863  1.0000
  C   C24       1.0  0.51164  0.03336  0.36864  1.0000
  C   C25       1.0  0.95651  0.87142  0.12715  1.0000
  C   C26       1.0  0.54346  0.12859  0.62716  1.0000
  C   C27       1.0  0.04348  0.12858  0.87285  1.0000
  C   C28       1.0  0.45652  0.87141  0.37284  1.0000
  C   C29       1.0  0.11227  0.80687  0.15300  1.0000
  C   C30       1.0  0.38772  0.19315  0.65301  1.0000
  C   C31       1.0  0.88773  0.19314  0.84699  1.0000
  C   C32       1.0  0.61226  0.80686  0.34699  1.0000
  C   C33       1.0  0.31696  0.90709  0.17753  1.0000
  C   C34       1.0  0.18303  0.09291  0.67755  1.0000
  C   C35       1.0  0.68304  0.09291  0.82246  1.0000
  C   C36       1.0  0.81696  0.90708  0.32246  1.0000
  C   C37       1.0  0.36004  0.06701  0.17866  1.0000
  C   C38       1.0  0.13994  0.93299  0.67867  1.0000
  C   C39       1.0  0.63996  0.93300  0.82134  1.0000
  C   C40       1.0  0.86004  0.06700  0.32134  1.0000
  N   N1        1.0  0.42531  0.53787  0.11624  1.0000
  N   N2        1.0  0.07469  0.46214  0.61625  1.0000
  N   N3        1.0  0.57471  0.46213  0.88376  1.0000
  N   N4        1.0  0.92530  0.53787  0.38375  1.0000
  N   N5        1.0  0.20726  0.12990  0.15794  1.0000
  N   N6        1.0  0.29274  0.87011  0.65794  1.0000
  N   N7        1.0  0.79275  0.87010  0.84206  1.0000
  N   N8        1.0  0.70726  0.12989  0.34206  1.0000
  Cl  Cl1       1.0  0.90668  0.37576  0.18474  1.0000
  Cl  Cl2       1.0  0.59334  0.62422  0.68475  1.0000
  Cl  Cl3       1.0  0.09334  0.62423  0.81526  1.0000
  Cl  Cl4       1.0  0.40667  0.37578  0.31525  1.0000
