data_image0
_chemical_formula_structural       Zn2H46C68S2N6O20
_chemical_formula_sum              "Zn2 H46 C68 S2 N6 O20"
_cell_length_a       8.12592
_cell_length_b       10.0931
_cell_length_c       19.0655
_cell_angle_alpha    102.677
_cell_angle_beta     97.3393
_cell_angle_gamma    93.1291

_space_group_name_H-M_alt    "P 1"
_space_group_IT_number       1

loop_
  _space_group_symop_operation_xyz
  'x, y, z'

loop_
  _atom_site_type_symbol
  _atom_site_label
  _atom_site_symmetry_multiplicity
  _atom_site_fract_x
  _atom_site_fract_y
  _atom_site_fract_z
  _atom_site_occupancy
  Zn  Zn1       1.0  0.51900  0.57607  0.27554  1.0000
  Zn  Zn2       1.0  0.48100  0.42393  0.72446  1.0000
  H   H1        1.0  0.34548  0.82953  0.44302  1.0000
  H   H2        1.0  0.65452  0.17047  0.55698  1.0000
  H   H3        1.0  0.07875  0.41356  0.88497  1.0000
  H   H4        1.0  0.92125  0.58644  0.11503  1.0000
  H   H5        1.0  0.90359  0.81047  0.44877  1.0000
  H   H6        1.0  0.09641  0.18953  0.55124  1.0000
  H   H7        1.0  0.06321  0.91979  0.56970  1.0000
  H   H8        1.0  0.93680  0.08021  0.43030  1.0000
  H   H9        1.0  0.60093  0.94877  0.65930  1.0000
  H   H10       1.0  0.39908  0.05123  0.34070  1.0000
  H   H11       1.0  0.24007  0.88618  0.71738  1.0000
  H   H12       1.0  0.75993  0.11382  0.28262  1.0000
  H   H13       1.0  0.82739  0.71048  0.85425  1.0000
  H   H14       1.0  0.17260  0.28951  0.14575  1.0000
  H   H15       1.0  0.75601  0.89131  0.78934  1.0000
  H   H16       1.0  0.24398  0.10869  0.21066  1.0000
  H   H17       1.0  0.30522  0.52715  0.13549  1.0000
  H   H18       1.0  0.69478  0.47285  0.86451  1.0000
  H   H19       1.0  0.21951  0.65714  0.04171  1.0000
  H   H20       1.0  0.78048  0.34286  0.95829  1.0000
  H   H21       1.0  0.53584  0.00290  0.17584  1.0000
  H   H22       1.0  0.46416  0.99709  0.82416  1.0000
  H   H23       1.0  0.61549  0.85724  0.26163  1.0000
  H   H24       1.0  0.38451  0.14275  0.73837  1.0000
  H   H25       1.0  0.22835  0.86001  0.99967  1.0000
  H   H26       1.0  0.77166  0.13998  0.00033  1.0000
  H   H27       1.0  0.43308  0.11101  0.10306  1.0000
  H   H28       1.0  0.56692  0.88898  0.89694  1.0000
  H   H29       1.0  0.45784  0.31037  0.05933  1.0000
  H   H30       1.0  0.54217  0.68963  0.94067  1.0000
  H   H31       1.0  0.33344  0.46025  0.98004  1.0000
  H   H32       1.0  0.66656  0.53975  0.01996  1.0000
  H   H33       1.0  0.98302  0.15147  0.86573  1.0000
  H   H34       1.0  0.01698  0.84853  0.13427  1.0000
  H   H35       1.0  0.09022  0.98759  0.93703  1.0000
  H   H36       1.0  0.90978  0.01241  0.06297  1.0000
  H   H37       1.0  0.15574  0.62944  0.26594  1.0000
  H   H38       1.0  0.84426  0.37057  0.73405  1.0000
  H   H39       1.0  0.94119  0.61485  0.34666  1.0000
  H   H40       1.0  0.05881  0.38515  0.65334  1.0000
  H   H41       1.0  0.26764  0.37770  0.45755  1.0000
  H   H42       1.0  0.73235  0.62230  0.54245  1.0000
  H   H43       1.0  0.46031  0.38822  0.36738  1.0000
  H   H44       1.0  0.53969  0.61178  0.63262  1.0000
  H   H45       1.0  0.85379  0.53762  0.44956  1.0000
  H   H46       1.0  0.14621  0.46238  0.55044  1.0000
  C   C1        1.0  0.58275  0.76327  0.40803  1.0000
  C   C2        1.0  0.41725  0.23673  0.59197  1.0000
  C   C3        1.0  0.66337  0.82284  0.48482  1.0000
  C   C4        1.0  0.33663  0.17716  0.51518  1.0000
  C   C5        1.0  0.83820  0.84256  0.49522  1.0000
  C   C6        1.0  0.16181  0.15744  0.50478  1.0000
  C   C7        1.0  0.92791  0.90438  0.56258  1.0000
  C   C8        1.0  0.07210  0.09562  0.43742  1.0000
  C   C9        1.0  0.83958  0.94516  0.62075  1.0000
  C   C10       1.0  0.16042  0.05485  0.37925  1.0000
  C   C11       1.0  0.66772  0.91985  0.61311  1.0000
  C   C12       1.0  0.33228  0.08016  0.38689  1.0000
  C   C13       1.0  0.57586  0.85970  0.54512  1.0000
  C   C14       1.0  0.42414  0.14031  0.45488  1.0000
  C   C15       1.0  0.39036  0.83807  0.54735  1.0000
  C   C16       1.0  0.60965  0.16193  0.45266  1.0000
  C   C17       1.0  0.99761  0.90336  0.75274  1.0000
  C   C18       1.0  0.00238  0.09664  0.24726  1.0000
  C   C19       1.0  0.15333  0.85192  0.75015  1.0000
  C   C20       1.0  0.84666  0.14808  0.24985  1.0000
  C   C21       1.0  0.19284  0.75042  0.78701  1.0000
  C   C22       1.0  0.80715  0.24957  0.21299  1.0000
  C   C23       1.0  0.07623  0.70084  0.82578  1.0000
  C   C24       1.0  0.92377  0.29915  0.17421  1.0000
  C   C25       1.0  0.91940  0.75121  0.82595  1.0000
  C   C26       1.0  0.08060  0.24879  0.17404  1.0000
  C   C27       1.0  0.87884  0.85332  0.78952  1.0000
  C   C28       1.0  0.12115  0.14667  0.21048  1.0000
  C   C29       1.0  0.35205  0.68321  0.77772  1.0000
  C   C30       1.0  0.64795  0.31679  0.22228  1.0000
  C   C31       1.0  0.12689  0.59875  0.86920  1.0000
  C   C32       1.0  0.87311  0.40126  0.13080  1.0000
  C   C33       1.0  0.35503  0.63213  0.14161  1.0000
  C   C34       1.0  0.64496  0.36787  0.85839  1.0000
  C   C35       1.0  0.30624  0.70522  0.09016  1.0000
  C   C36       1.0  0.69376  0.29478  0.90984  1.0000
  C   C37       1.0  0.36925  0.84181  0.10052  1.0000
  C   C38       1.0  0.63074  0.15819  0.89948  1.0000
  C   C39       1.0  0.48351  0.89719  0.16360  1.0000
  C   C40       1.0  0.51649  0.10281  0.83640  1.0000
  C   C41       1.0  0.52700  0.81749  0.21250  1.0000
  C   C42       1.0  0.47300  0.18250  0.78750  1.0000
  C   C43       1.0  0.31005  0.91901  0.04761  1.0000
  C   C44       1.0  0.68995  0.08099  0.95239  1.0000
  C   C45       1.0  0.34862  0.05387  0.05535  1.0000
  C   C46       1.0  0.65139  0.94613  0.94465  1.0000
  C   C47       1.0  0.28228  0.13635  0.00635  1.0000
  C   C48       1.0  0.71772  0.86365  0.99365  1.0000
  C   C49       1.0  0.35111  0.27176  0.01747  1.0000
  C   C50       1.0  0.64890  0.72825  0.98253  1.0000
  C   C51       1.0  0.28421  0.35491  0.97398  1.0000
  C   C52       1.0  0.71579  0.64509  0.02602  1.0000
  C   C53       1.0  0.08803  0.18180  0.90925  1.0000
  C   C54       1.0  0.91197  0.81820  0.09075  1.0000
  C   C55       1.0  0.14899  0.09131  0.94945  1.0000
  C   C56       1.0  0.85101  0.90869  0.05055  1.0000
  C   C57       1.0  0.17424  0.57240  0.30817  1.0000
  C   C58       1.0  0.82576  0.42760  0.69183  1.0000
  C   C59       1.0  0.05642  0.56608  0.35421  1.0000
  C   C60       1.0  0.94358  0.43392  0.64579  1.0000
  C   C61       1.0  0.09096  0.50204  0.41223  1.0000
  C   C62       1.0  0.90904  0.49796  0.58777  1.0000
  C   C63       1.0  0.23813  0.43490  0.41611  1.0000
  C   C64       1.0  0.76187  0.56510  0.58389  1.0000
  C   C65       1.0  0.34616  0.44043  0.36627  1.0000
  C   C66       1.0  0.65384  0.55958  0.63373  1.0000
  C   C67       1.0  0.97848  0.50984  0.46622  1.0000
  C   C68       1.0  0.02152  0.49016  0.53378  1.0000
  S   S1        1.0  0.94901  0.03434  0.70645  1.0000
  S   S2        1.0  0.05099  0.96565  0.29355  1.0000
  N   N1        1.0  0.31792  0.51226  0.31443  1.0000
  N   N2        1.0  0.68208  0.48774  0.68557  1.0000
  N   N3        1.0  0.46355  0.68689  0.20203  1.0000
  N   N4        1.0  0.53644  0.31311  0.79797  1.0000
  N   N5        1.0  0.15300  0.31191  0.92166  1.0000
  N   N6        1.0  0.84700  0.68809  0.07834  1.0000
  O   O1        1.0  0.44532  0.80188  0.38413  1.0000
  O   O2        1.0  0.55469  0.19812  0.61587  1.0000
  O   O3        1.0  0.66171  0.67559  0.36899  1.0000
  O   O4        1.0  0.33830  0.32442  0.63101  1.0000
  O   O5        1.0  0.28334  0.82902  0.48750  1.0000
  O   O6        1.0  0.71666  0.17098  0.51250  1.0000
  O   O7        1.0  0.34102  0.83240  0.60521  1.0000
  O   O8        1.0  0.65898  0.16760  0.39479  1.0000
  O   O9        1.0  0.83434  0.11686  0.74572  1.0000
  O   O10       1.0  0.16567  0.88314  0.25428  1.0000
  O   O11       1.0  0.10320  0.09803  0.69337  1.0000
  O   O12       1.0  0.89681  0.90197  0.30663  1.0000
  O   O13       1.0  0.32306  0.55209  0.75645  1.0000
  O   O14       1.0  0.67694  0.44791  0.24355  1.0000
  O   O15       1.0  0.48928  0.75091  0.78795  1.0000
  O   O16       1.0  0.51072  0.24909  0.21205  1.0000
  O   O17       1.0  0.25636  0.62287  0.91370  1.0000
  O   O18       1.0  0.74364  0.37714  0.08630  1.0000
  O   O19       1.0  0.02332  0.48858  0.85740  1.0000
  O   O20       1.0  0.97668  0.51142  0.14260  1.0000
