data_image0
_chemical_formula_structural       Co2H40C48N4O12
_chemical_formula_sum              "Co2 H40 C48 N4 O12"
_cell_length_a       9.27458
_cell_length_b       9.4537
_cell_length_c       11.74
_cell_angle_alpha    98.2449
_cell_angle_beta     90
_cell_angle_gamma    90

_space_group_name_H-M_alt    "P 1"
_space_group_IT_number       1

loop_
  _space_group_symop_operation_xyz
  'x, y, z'

loop_
  _atom_site_type_symbol
  _atom_site_label
  _atom_site_symmetry_multiplicity
  _atom_site_fract_x
  _atom_site_fract_y
  _atom_site_fract_z
  _atom_site_occupancy
  Co  Co1       1.0  1.00000  0.50000  0.50000  1.0000
  Co  Co2       1.0  0.50000  0.50000  1.00000  1.0000
  H   H1        1.0  0.70059  0.48944  0.39642  1.0000
  H   H2        1.0  0.20058  0.51057  0.10359  1.0000
  H   H3        1.0  0.29941  0.51056  0.60358  1.0000
  H   H4        1.0  0.79942  0.48943  0.89641  1.0000
  H   H5        1.0  0.47035  0.35640  0.40741  1.0000
  H   H6        1.0  0.97035  0.64361  0.09259  1.0000
  H   H7        1.0  0.52964  0.64360  0.59259  1.0000
  H   H8        1.0  0.02965  0.35639  0.90741  1.0000
  H   H9        1.0  0.04128  0.49613  0.28675  1.0000
  H   H10       1.0  0.54129  0.50387  0.21325  1.0000
  H   H11       1.0  0.95872  0.50387  0.71325  1.0000
  H   H12       1.0  0.45871  0.49613  0.78675  1.0000
  H   H13       1.0  0.86954  0.55113  0.28733  1.0000
  H   H14       1.0  0.36956  0.44889  0.21267  1.0000
  H   H15       1.0  0.13046  0.44887  0.71267  1.0000
  H   H16       1.0  0.63044  0.55111  0.78732  1.0000
  H   H17       1.0  0.79703  0.91242  0.54219  1.0000
  H   H18       1.0  0.29704  0.08757  0.95782  1.0000
  H   H19       1.0  0.20297  0.08759  0.45781  1.0000
  H   H20       1.0  0.70296  0.91243  0.04218  1.0000
  H   H21       1.0  0.90920  0.23984  0.60807  1.0000
  H   H22       1.0  0.40918  0.76015  0.89192  1.0000
  H   H23       1.0  0.09080  0.76016  0.39193  1.0000
  H   H24       1.0  0.59082  0.23985  0.10808  1.0000
  H   H25       1.0  0.56656  0.20818  0.79081  1.0000
  H   H26       1.0  0.06655  0.79185  0.70919  1.0000
  H   H27       1.0  0.43343  0.79182  0.20920  1.0000
  H   H28       1.0  0.93346  0.20815  0.29081  1.0000
  H   H29       1.0  0.66795  0.78536  0.86354  1.0000
  H   H30       1.0  0.16797  0.21465  0.63646  1.0000
  H   H31       1.0  0.33206  0.21464  0.13645  1.0000
  H   H32       1.0  0.83204  0.78535  0.36354  1.0000
  H   H33       1.0  0.55523  0.02594  0.92098  1.0000
  H   H34       1.0  0.05524  0.97408  0.57901  1.0000
  H   H35       1.0  0.44478  0.97406  0.07902  1.0000
  H   H36       1.0  0.94476  0.02592  0.42099  1.0000
  H   H37       1.0  0.45890  0.16153  0.53200  1.0000
  H   H38       1.0  0.95889  0.83848  0.96800  1.0000
  H   H39       1.0  0.54110  0.83847  0.46800  1.0000
  H   H40       1.0  0.04111  0.16152  0.03200  1.0000
  C   C1        1.0  0.69363  0.40093  0.44621  1.0000
  C   C2        1.0  0.19362  0.59907  0.05379  1.0000
  C   C3        1.0  0.30637  0.59907  0.55379  1.0000
  C   C4        1.0  0.80638  0.40093  0.94621  1.0000
  C   C5        1.0  0.56488  0.32739  0.45381  1.0000
  C   C6        1.0  0.06486  0.67261  0.04619  1.0000
  C   C7        1.0  0.43512  0.67261  0.54619  1.0000
  C   C8        1.0  0.93514  0.32739  0.95382  1.0000
  C   C9        1.0  0.73913  0.83493  0.69911  1.0000
  C   C10       1.0  0.23913  0.16507  0.80089  1.0000
  C   C11       1.0  0.26088  0.16507  0.30089  1.0000
  C   C12       1.0  0.76087  0.83492  0.19910  1.0000
  C   C13       1.0  0.74452  0.93889  0.62533  1.0000
  C   C14       1.0  0.24452  0.06110  0.87467  1.0000
  C   C15       1.0  0.25548  0.06111  0.37467  1.0000
  C   C16       1.0  0.75548  0.93890  0.12533  1.0000
  C   C17       1.0  0.80847  0.69209  0.66402  1.0000
  C   C18       1.0  0.30847  0.30791  0.83597  1.0000
  C   C19       1.0  0.19153  0.30792  0.33598  1.0000
  C   C20       1.0  0.69152  0.69209  0.16403  1.0000
  C   C21       1.0  0.68173  0.07316  0.65687  1.0000
  C   C22       1.0  0.18173  0.92683  0.84313  1.0000
  C   C23       1.0  0.31827  0.92684  0.34313  1.0000
  C   C24       1.0  0.81827  0.07317  0.15687  1.0000
  C   C25       1.0  0.80960  0.26116  0.56432  1.0000
  C   C26       1.0  0.30959  0.73883  0.93567  1.0000
  C   C27       1.0  0.19039  0.73884  0.43568  1.0000
  C   C28       1.0  0.69041  0.26117  0.06433  1.0000
  C   C29       1.0  0.68398  0.18416  0.57924  1.0000
  C   C30       1.0  0.18397  0.81583  0.92076  1.0000
  C   C31       1.0  0.31602  0.81584  0.42076  1.0000
  C   C32       1.0  0.81603  0.18418  0.07925  1.0000
  C   C33       1.0  0.61349  0.10312  0.76416  1.0000
  C   C34       1.0  0.11349  0.89689  0.73585  1.0000
  C   C35       1.0  0.38651  0.89688  0.23584  1.0000
  C   C36       1.0  0.88652  0.10311  0.26415  1.0000
  C   C37       1.0  0.67114  0.86639  0.80627  1.0000
  C   C38       1.0  0.17115  0.13361  0.69373  1.0000
  C   C39       1.0  0.32886  0.13361  0.19373  1.0000
  C   C40       1.0  0.82885  0.86638  0.30627  1.0000
  C   C41       1.0  0.60845  0.00013  0.83793  1.0000
  C   C42       1.0  0.10845  0.99987  0.66207  1.0000
  C   C43       1.0  0.39155  0.99987  0.16207  1.0000
  C   C44       1.0  0.89155  0.00012  0.33793  1.0000
  C   C45       1.0  0.55897  0.21911  0.52250  1.0000
  C   C46       1.0  0.05895  0.78089  0.97750  1.0000
  C   C47       1.0  0.44103  0.78089  0.47750  1.0000
  C   C48       1.0  0.94105  0.21911  0.02250  1.0000
  N   N1        1.0  0.81442  0.36880  0.50074  1.0000
  N   N2        1.0  0.31441  0.63121  0.99926  1.0000
  N   N3        1.0  0.18557  0.63121  0.49926  1.0000
  N   N4        1.0  0.68559  0.36879  0.00075  1.0000
  O   O1        1.0  0.87661  0.67514  0.56857  1.0000
  O   O2        1.0  0.37661  0.32483  0.93142  1.0000
  O   O3        1.0  0.12339  0.32486  0.43143  1.0000
  O   O4        1.0  0.62339  0.67516  0.06859  1.0000
  O   O5        1.0  0.79924  0.59745  0.73173  1.0000
  O   O6        1.0  0.29924  0.40254  0.76826  1.0000
  O   O7        1.0  0.20076  0.40256  0.26827  1.0000
  O   O8        1.0  0.70075  0.59745  0.23174  1.0000
  O   O9        1.0  0.95901  0.54264  0.33243  1.0000
  O   O10       1.0  0.45901  0.45736  0.16757  1.0000
  O   O11       1.0  0.04099  0.45737  0.66757  1.0000
  O   O12       1.0  0.54100  0.54264  0.83243  1.0000
