data_image0
_chemical_formula_structural       Cu2H32C48N4O8
_chemical_formula_sum              "Cu2 H32 C48 N4 O8"
_cell_length_a       9.12732
_cell_length_b       10.4153
_cell_length_c       10.4336
_cell_angle_alpha    90.0002
_cell_angle_beta     101.174
_cell_angle_gamma    90

_space_group_name_H-M_alt    "P 1"
_space_group_IT_number       1

loop_
  _space_group_symop_operation_xyz
  'x, y, z'

loop_
  _atom_site_type_symbol
  _atom_site_label
  _atom_site_symmetry_multiplicity
  _atom_site_fract_x
  _atom_site_fract_y
  _atom_site_fract_z
  _atom_site_occupancy
  Cu  Cu1       1.0  0.50000  0.00000  0.00000  1.0000
  Cu  Cu2       1.0  0.50000  0.50000  0.50000  1.0000
  H   H1        1.0  0.04959  0.16299  0.99796  1.0000
  H   H2        1.0  0.95041  0.66299  0.50204  1.0000
  H   H3        1.0  0.95041  0.83701  0.00204  1.0000
  H   H4        1.0  0.04959  0.33701  0.49796  1.0000
  H   H5        1.0  0.82208  0.48244  0.78550  1.0000
  H   H6        1.0  0.17792  0.98244  0.71449  1.0000
  H   H7        1.0  0.17792  0.51756  0.21449  1.0000
  H   H8        1.0  0.82208  0.01755  0.28550  1.0000
  H   H9        1.0  0.02459  0.49946  0.65795  1.0000
  H   H10       1.0  0.97541  0.99946  0.84205  1.0000
  H   H11       1.0  0.97541  0.50054  0.34205  1.0000
  H   H12       1.0  0.02459  0.00054  0.15795  1.0000
  H   H13       1.0  0.23536  0.34212  0.69438  1.0000
  H   H14       1.0  0.76464  0.84212  0.80562  1.0000
  H   H15       1.0  0.76464  0.65788  0.30562  1.0000
  H   H16       1.0  0.23536  0.15788  0.19438  1.0000
  H   H17       1.0  0.76684  0.10084  0.92822  1.0000
  H   H18       1.0  0.23316  0.60084  0.57178  1.0000
  H   H19       1.0  0.23315  0.89916  0.07178  1.0000
  H   H20       1.0  0.76684  0.39916  0.42822  1.0000
  H   H21       1.0  0.47283  0.24597  0.15015  1.0000
  H   H22       1.0  0.52717  0.74596  0.34985  1.0000
  H   H23       1.0  0.52717  0.75404  0.84986  1.0000
  H   H24       1.0  0.47283  0.25404  0.65015  1.0000
  H   H25       1.0  0.57988  0.46399  0.14963  1.0000
  H   H26       1.0  0.42013  0.96399  0.35036  1.0000
  H   H27       1.0  0.42013  0.53601  0.85037  1.0000
  H   H28       1.0  0.57987  0.03601  0.64964  1.0000
  H   H29       1.0  0.78552  0.50425  0.02414  1.0000
  H   H30       1.0  0.21449  0.00424  0.47586  1.0000
  H   H31       1.0  0.21448  0.49576  0.97586  1.0000
  H   H32       1.0  0.78551  0.99576  0.52414  1.0000
  C   C1        1.0  0.15637  0.24412  0.84994  1.0000
  C   C2        1.0  0.84363  0.74412  0.65006  1.0000
  C   C3        1.0  0.84363  0.75588  0.15006  1.0000
  C   C4        1.0  0.15637  0.25587  0.34994  1.0000
  C   C5        1.0  0.04191  0.23501  0.92143  1.0000
  C   C6        1.0  0.95809  0.73501  0.57857  1.0000
  C   C7        1.0  0.95809  0.76499  0.07857  1.0000
  C   C8        1.0  0.04191  0.26499  0.42143  1.0000
  C   C9        1.0  0.91999  0.31914  0.89744  1.0000
  C   C10       1.0  0.08002  0.81913  0.60255  1.0000
  C   C11       1.0  0.08001  0.68087  0.10255  1.0000
  C   C12       1.0  0.91998  0.18086  0.39745  1.0000
  C   C13       1.0  0.91620  0.41613  0.80354  1.0000
  C   C14       1.0  0.08380  0.91613  0.69646  1.0000
  C   C15       1.0  0.08380  0.58387  0.19646  1.0000
  C   C16       1.0  0.91620  0.08386  0.30354  1.0000
  C   C17       1.0  0.02961  0.42440  0.73147  1.0000
  C   C18       1.0  0.97039  0.92440  0.76853  1.0000
  C   C19       1.0  0.97039  0.57560  0.26853  1.0000
  C   C20       1.0  0.02961  0.07560  0.23146  1.0000
  C   C21       1.0  0.14835  0.33778  0.75262  1.0000
  C   C22       1.0  0.85166  0.83778  0.74738  1.0000
  C   C23       1.0  0.85165  0.66222  0.24738  1.0000
  C   C24       1.0  0.14835  0.16222  0.25263  1.0000
  C   C25       1.0  0.28763  0.15484  0.87605  1.0000
  C   C26       1.0  0.71236  0.65484  0.62395  1.0000
  C   C27       1.0  0.71237  0.84516  0.12395  1.0000
  C   C28       1.0  0.28763  0.34516  0.37605  1.0000
  C   C29       1.0  0.79602  0.30478  0.96883  1.0000
  C   C30       1.0  0.20398  0.80478  0.53117  1.0000
  C   C31       1.0  0.20398  0.69522  0.03117  1.0000
  C   C32       1.0  0.79602  0.19522  0.46883  1.0000
  C   C33       1.0  0.72967  0.18457  0.97576  1.0000
  C   C34       1.0  0.27033  0.68456  0.52424  1.0000
  C   C35       1.0  0.27033  0.81543  0.02425  1.0000
  C   C36       1.0  0.72967  0.31543  0.47575  1.0000
  C   C37       1.0  0.56451  0.26431  0.09972  1.0000
  C   C38       1.0  0.43550  0.76430  0.40028  1.0000
  C   C39       1.0  0.43549  0.73570  0.90028  1.0000
  C   C40       1.0  0.56450  0.23570  0.59972  1.0000
  C   C41       1.0  0.62450  0.38702  0.09782  1.0000
  C   C42       1.0  0.37550  0.88702  0.40218  1.0000
  C   C43       1.0  0.37550  0.61298  0.90219  1.0000
  C   C44       1.0  0.62450  0.11298  0.59782  1.0000
  C   C45       1.0  0.73874  0.40853  0.02918  1.0000
  C   C46       1.0  0.26127  0.90852  0.47082  1.0000
  C   C47       1.0  0.26126  0.59148  0.97081  1.0000
  C   C48       1.0  0.73874  0.09148  0.52918  1.0000
  N   N1        1.0  0.61489  0.16545  0.03700  1.0000
  N   N2        1.0  0.38511  0.66544  0.46300  1.0000
  N   N3        1.0  0.38511  0.83456  0.96300  1.0000
  N   N4        1.0  0.61489  0.33456  0.53700  1.0000
  O   O1        1.0  0.31012  0.09616  0.98829  1.0000
  O   O2        1.0  0.68987  0.59615  0.51171  1.0000
  O   O3        1.0  0.68988  0.90385  0.01171  1.0000
  O   O4        1.0  0.31012  0.40384  0.48829  1.0000
  O   O5        1.0  0.36863  0.13995  0.79297  1.0000
  O   O6        1.0  0.63138  0.63995  0.70704  1.0000
  O   O7        1.0  0.63137  0.86005  0.20704  1.0000
  O   O8        1.0  0.36863  0.36004  0.29297  1.0000
