data_image0
_chemical_formula_structural       Ni2H40C48N4O12
_chemical_formula_sum              "Ni2 H40 C48 N4 O12"
_cell_length_a       9.2565
_cell_length_b       9.36873
_cell_length_c       11.8657
_cell_angle_alpha    98.483
_cell_angle_beta     87.5849
_cell_angle_gamma    90.2561

_space_group_name_H-M_alt    "P 1"
_space_group_IT_number       1

loop_
  _space_group_symop_operation_xyz
  'x, y, z'

loop_
  _atom_site_type_symbol
  _atom_site_label
  _atom_site_symmetry_multiplicity
  _atom_site_fract_x
  _atom_site_fract_y
  _atom_site_fract_z
  _atom_site_occupancy
  Ni  Ni1       1.0  0.00000  0.00000  0.50000  1.0000
  Ni  Ni2       1.0  0.50000  1.00000  1.00000  1.0000
  H   H1        1.0  0.96754  0.99137  0.29215  1.0000
  H   H2        1.0  0.47023  0.00544  0.22931  1.0000
  H   H3        1.0  0.03247  0.00864  0.70785  1.0000
  H   H4        1.0  0.52977  0.99457  0.77069  1.0000
  H   H5        1.0  0.13696  0.05244  0.29006  1.0000
  H   H6        1.0  0.63676  0.95646  0.24280  1.0000
  H   H7        1.0  0.86305  0.94756  0.70994  1.0000
  H   H8        1.0  0.36323  0.04354  0.75720  1.0000
  H   H9        1.0  0.32083  0.28701  0.85416  1.0000
  H   H10       1.0  0.82451  0.70996  0.64377  1.0000
  H   H11       1.0  0.67919  0.71299  0.14584  1.0000
  H   H12       1.0  0.17548  0.29004  0.35622  1.0000
  H   H13       1.0  0.19493  0.42239  0.54275  1.0000
  H   H14       1.0  0.69741  0.58900  0.96914  1.0000
  H   H15       1.0  0.80507  0.57761  0.45726  1.0000
  H   H16       1.0  0.30258  0.41100  0.03085  1.0000
  H   H17       1.0  0.44306  0.52550  0.90819  1.0000
  H   H18       1.0  0.93368  0.46539  0.58417  1.0000
  H   H19       1.0  0.55696  0.47450  0.09182  1.0000
  H   H20       1.0  0.06632  0.53461  0.41583  1.0000
  H   H21       1.0  0.08695  0.74241  0.60463  1.0000
  H   H22       1.0  0.58105  0.24706  0.89397  1.0000
  H   H23       1.0  0.91305  0.25759  0.39536  1.0000
  H   H24       1.0  0.41896  0.75294  0.10602  1.0000
  H   H25       1.0  0.43695  0.71111  0.78055  1.0000
  H   H26       1.0  0.91882  0.28298  0.71406  1.0000
  H   H27       1.0  0.56306  0.28889  0.21945  1.0000
  H   H28       1.0  0.08117  0.71702  0.28593  1.0000
  H   H29       1.0  0.30053  0.99451  0.39240  1.0000
  H   H30       1.0  0.78084  0.99549  0.10199  1.0000
  H   H31       1.0  0.69947  0.00549  0.60760  1.0000
  H   H32       1.0  0.21916  0.00451  0.89802  1.0000
  H   H33       1.0  0.53214  0.86514  0.40192  1.0000
  H   H34       1.0  0.00903  0.13792  0.09731  1.0000
  H   H35       1.0  0.46787  0.13486  0.59808  1.0000
  H   H36       1.0  0.99098  0.86209  0.90270  1.0000
  H   H37       1.0  0.54388  0.67427  0.53026  1.0000
  H   H38       1.0  0.02541  0.33741  0.97720  1.0000
  H   H39       1.0  0.45612  0.32572  0.46973  1.0000
  H   H40       1.0  0.97459  0.66259  0.02280  1.0000
  C   C1        1.0  0.24987  0.34133  0.69536  1.0000
  C   C2        1.0  0.75447  0.66418  0.81055  1.0000
  C   C3        1.0  0.75013  0.65867  0.30465  1.0000
  C   C4        1.0  0.24554  0.33582  0.18945  1.0000
  C   C5        1.0  0.31562  0.57999  0.65288  1.0000
  C   C6        1.0  0.80843  0.42329  0.85119  1.0000
  C   C7        1.0  0.68438  0.42001  0.34712  1.0000
  C   C8        1.0  0.19157  0.57672  0.14881  1.0000
  C   C9        1.0  0.17533  0.19967  0.66188  1.0000
  C   C10       1.0  0.68406  0.80904  0.84359  1.0000
  C   C11       1.0  0.82467  0.80034  0.33813  1.0000
  C   C12       1.0  0.31594  0.19096  0.15641  1.0000
  C   C13       1.0  0.31929  0.36999  0.79892  1.0000
  C   C14       1.0  0.82098  0.62981  0.70162  1.0000
  C   C15       1.0  0.68071  0.63001  0.20107  1.0000
  C   C16       1.0  0.17903  0.37019  0.29837  1.0000
  C   C17       1.0  0.18844  0.76552  0.56123  1.0000
  C   C18       1.0  0.67830  0.22875  0.93843  1.0000
  C   C19       1.0  0.81157  0.23448  0.43877  1.0000
  C   C20       1.0  0.32169  0.77125  0.06157  1.0000
  C   C21       1.0  0.24824  0.44683  0.62329  1.0000
  C   C22       1.0  0.74896  0.56068  0.88483  1.0000
  C   C23       1.0  0.75176  0.55317  0.37672  1.0000
  C   C24       1.0  0.25104  0.43932  0.11517  1.0000
  C   C25       1.0  0.38593  0.60687  0.75617  1.0000
  C   C26       1.0  0.87442  0.39037  0.74198  1.0000
  C   C27       1.0  0.61408  0.39314  0.24383  1.0000
  C   C28       1.0  0.12557  0.60963  0.25802  1.0000
  C   C29       1.0  0.38764  0.50227  0.82834  1.0000
  C   C30       1.0  0.88120  0.49346  0.66837  1.0000
  C   C31       1.0  0.61237  0.49773  0.17166  1.0000
  C   C32       1.0  0.11879  0.50654  0.33162  1.0000
  C   C33       1.0  0.31547  0.69188  0.57671  1.0000
  C   C34       1.0  0.80361  0.31019  0.92722  1.0000
  C   C35       1.0  0.68453  0.30811  0.42329  1.0000
  C   C36       1.0  0.19639  0.68981  0.07278  1.0000
  C   C37       1.0  0.43730  0.83601  0.45055  1.0000
  C   C38       1.0  0.91731  0.16532  0.05014  1.0000
  C   C39       1.0  0.56270  0.16399  0.54944  1.0000
  C   C40       1.0  0.08268  0.83469  0.94986  1.0000
  C   C41       1.0  0.30718  0.90686  0.44271  1.0000
  C   C42       1.0  0.79018  0.08638  0.05466  1.0000
  C   C43       1.0  0.69282  0.09314  0.55729  1.0000
  C   C44       1.0  0.20982  0.91362  0.94535  1.0000
  C   C45       1.0  0.44278  0.72947  0.52036  1.0000
  C   C46       1.0  0.92543  0.27683  0.98446  1.0000
  C   C47       1.0  0.55722  0.27052  0.47963  1.0000
  C   C48       1.0  0.07458  0.72318  0.01555  1.0000
  N   N1        1.0  0.18454  0.87321  0.49780  1.0000
  N   N2        1.0  0.67275  0.11802  0.99936  1.0000
  N   N3        1.0  0.81546  0.12679  0.50220  1.0000
  N   N4        1.0  0.32725  0.88198  0.00064  1.0000
  O   O1        1.0  0.17206  0.10868  0.73240  1.0000
  O   O2        1.0  0.69549  0.90180  0.77604  1.0000
  O   O3        1.0  0.82792  0.89133  0.26761  1.0000
  O   O4        1.0  0.30451  0.09821  0.22396  1.0000
  O   O5        1.0  0.11712  0.18098  0.56506  1.0000
  O   O6        1.0  0.61094  0.82703  0.93977  1.0000
  O   O7        1.0  0.88288  0.81902  0.43495  1.0000
  O   O8        1.0  0.38905  0.17297  0.06022  1.0000
  O   O9        1.0  0.04432  0.05156  0.33463  1.0000
  O   O10       1.0  0.54650  0.93330  0.20381  1.0000
  O   O11       1.0  0.95568  0.94845  0.66537  1.0000
  O   O12       1.0  0.45349  0.06670  0.79620  1.0000
