data_image0
_chemical_formula_structural       Zn2H16C8O16
_chemical_formula_sum              "Zn2 H16 C8 O16"
_cell_length_a       6.72585
_cell_length_b       8.04925
_cell_length_c       8.04925
_cell_angle_alpha    111.772
_cell_angle_beta     95.5332
_cell_angle_gamma    95.5328

_space_group_name_H-M_alt    "P 1"
_space_group_IT_number       1

loop_
  _space_group_symop_operation_xyz
  'x, y, z'

loop_
  _atom_site_type_symbol
  _atom_site_label
  _atom_site_symmetry_multiplicity
  _atom_site_fract_x
  _atom_site_fract_y
  _atom_site_fract_z
  _atom_site_occupancy
  Zn  Zn1       1.0  1.00000  1.00000  0.50000  1.0000
  Zn  Zn2       1.0  0.50000  0.50000  1.00000  1.0000
  H   H1        1.0  0.37620  0.14112  0.44485  1.0000
  H   H2        1.0  0.12380  0.55515  0.85888  1.0000
  H   H3        1.0  0.62380  0.85888  0.55515  1.0000
  H   H4        1.0  0.87620  0.44485  0.14111  1.0000
  H   H5        1.0  0.38430  0.15407  0.64952  1.0000
  H   H6        1.0  0.11570  0.35048  0.84593  1.0000
  H   H7        1.0  0.61570  0.84593  0.35048  1.0000
  H   H8        1.0  0.88430  0.64952  0.15407  1.0000
  H   H9        1.0  0.95187  0.28162  0.40481  1.0000
  H   H10       1.0  0.54813  0.59519  0.71838  1.0000
  H   H11       1.0  0.04813  0.71838  0.59519  1.0000
  H   H12       1.0  0.45186  0.40481  0.28162  1.0000
  H   H13       1.0  0.75721  0.23231  0.47834  1.0000
  H   H14       1.0  0.74279  0.52166  0.76769  1.0000
  H   H15       1.0  0.24279  0.76769  0.52166  1.0000
  H   H16       1.0  0.25721  0.47834  0.23230  1.0000
  C   C1        1.0  0.00658  0.05168  0.89943  1.0000
  C   C2        1.0  0.49342  0.10058  0.94831  1.0000
  C   C3        1.0  0.99342  0.94832  0.10058  1.0000
  C   C4        1.0  0.50658  0.89942  0.05168  1.0000
  C   C5        1.0  0.00180  0.13074  0.09550  1.0000
  C   C6        1.0  0.49820  0.90449  0.86925  1.0000
  C   C7        1.0  0.99820  0.86926  0.90450  1.0000
  C   C8        1.0  0.50181  0.09551  0.13074  1.0000
  O   O1        1.0  0.30498  0.09918  0.52713  1.0000
  O   O2        1.0  0.19502  0.47287  0.90082  1.0000
  O   O3        1.0  0.69502  0.90082  0.47288  1.0000
  O   O4        1.0  0.80499  0.52712  0.09917  1.0000
  O   O5        1.0  0.90482  0.24867  0.50468  1.0000
  O   O6        1.0  0.59518  0.49531  0.75133  1.0000
  O   O7        1.0  0.09517  0.75133  0.49532  1.0000
  O   O8        1.0  0.40483  0.50469  0.24867  1.0000
  O   O9        1.0  0.01499  0.12055  0.78235  1.0000
  O   O10       1.0  0.48502  0.21764  0.87945  1.0000
  O   O11       1.0  0.98501  0.87945  0.21766  1.0000
  O   O12       1.0  0.51498  0.78236  0.12055  1.0000
  O   O13       1.0  0.00265  0.28968  0.20859  1.0000
  O   O14       1.0  0.49735  0.79142  0.71033  1.0000
  O   O15       1.0  0.99735  0.71032  0.79142  1.0000
  O   O16       1.0  0.50266  0.20858  0.28967  1.0000
