data_image0
_chemical_formula_structural       Ni2H16C8O16
_chemical_formula_sum              "Ni2 H16 C8 O16"
_cell_length_a       6.67427
_cell_length_b       7.99839
_cell_length_c       7.9986
_cell_angle_alpha    111.902
_cell_angle_beta     95.6014
_cell_angle_gamma    95.6007

_space_group_name_H-M_alt    "P 1"
_space_group_IT_number       1

loop_
  _space_group_symop_operation_xyz
  'x, y, z'

loop_
  _atom_site_type_symbol
  _atom_site_label
  _atom_site_symmetry_multiplicity
  _atom_site_fract_x
  _atom_site_fract_y
  _atom_site_fract_z
  _atom_site_occupancy
  Ni  Ni1       1.0  1.00000  1.00000  0.50000  1.0000
  Ni  Ni2       1.0  0.50000  0.50000  0.00000  1.0000
  H   H1        1.0  0.95018  0.28067  0.40608  1.0000
  H   H2        1.0  0.54982  0.59392  0.71933  1.0000
  H   H3        1.0  0.04982  0.71933  0.59392  1.0000
  H   H4        1.0  0.45019  0.40608  0.28067  1.0000
  H   H5        1.0  0.75858  0.22843  0.48495  1.0000
  H   H6        1.0  0.74141  0.51505  0.77157  1.0000
  H   H7        1.0  0.24142  0.77157  0.51506  1.0000
  H   H8        1.0  0.25859  0.48495  0.22843  1.0000
  H   H9        1.0  0.61749  0.84593  0.34992  1.0000
  H   H10       1.0  0.88250  0.65008  0.15406  1.0000
  H   H11       1.0  0.38250  0.15406  0.65007  1.0000
  H   H12       1.0  0.11750  0.34992  0.84594  1.0000
  H   H13       1.0  0.62795  0.86122  0.55657  1.0000
  H   H14       1.0  0.87205  0.44343  0.13878  1.0000
  H   H15       1.0  0.37205  0.13878  0.44343  1.0000
  H   H16       1.0  0.12795  0.55657  0.86122  1.0000
  C   C1        1.0  0.99379  0.94863  0.10174  1.0000
  C   C2        1.0  0.50621  0.89825  0.05137  1.0000
  C   C3        1.0  0.00621  0.05138  0.89828  1.0000
  C   C4        1.0  0.49379  0.10173  0.94863  1.0000
  C   C5        1.0  0.99964  0.86832  0.90420  1.0000
  C   C6        1.0  0.50038  0.09582  0.13169  1.0000
  C   C7        1.0  0.00036  0.13168  0.09580  1.0000
  C   C8        1.0  0.49966  0.90420  0.86831  1.0000
  O   O1        1.0  0.98588  0.87994  0.22001  1.0000
  O   O2        1.0  0.51413  0.78001  0.12005  1.0000
  O   O3        1.0  0.01411  0.12006  0.77999  1.0000
  O   O4        1.0  0.48588  0.22002  0.87994  1.0000
  O   O5        1.0  0.00054  0.70866  0.79006  1.0000
  O   O6        1.0  0.49945  0.20993  0.29133  1.0000
  O   O7        1.0  0.99944  0.29133  0.20994  1.0000
  O   O8        1.0  0.50056  0.79006  0.70867  1.0000
  O   O9        1.0  0.90771  0.24893  0.50896  1.0000
  O   O10       1.0  0.59229  0.49104  0.75106  1.0000
  O   O11       1.0  0.09229  0.75106  0.49104  1.0000
  O   O12       1.0  0.40772  0.50896  0.24894  1.0000
  O   O13       1.0  0.69502  0.90744  0.47409  1.0000
  O   O14       1.0  0.80498  0.52591  0.09256  1.0000
  O   O15       1.0  0.30497  0.09256  0.52592  1.0000
  O   O16       1.0  0.19502  0.47408  0.90744  1.0000
