data_image0
_chemical_formula_structural       Co2H16C8O16
_chemical_formula_sum              "Co2 H16 C8 O16"
_cell_length_a       6.67959
_cell_length_b       8.03501
_cell_length_c       8.03498
_cell_angle_alpha    112.117
_cell_angle_beta     95.8014
_cell_angle_gamma    95.8004

_space_group_name_H-M_alt    "P 1"
_space_group_IT_number       1

loop_
  _space_group_symop_operation_xyz
  'x, y, z'

loop_
  _atom_site_type_symbol
  _atom_site_label
  _atom_site_symmetry_multiplicity
  _atom_site_fract_x
  _atom_site_fract_y
  _atom_site_fract_z
  _atom_site_occupancy
  Co  Co1       1.0  0.00000  0.00000  0.50000  1.0000
  Co  Co2       1.0  0.50000  0.50000  1.00000  1.0000
  H   H1        1.0  0.94723  0.90246  0.77882  1.0000
  H   H2        1.0  0.55277  0.22119  0.09753  1.0000
  H   H3        1.0  0.05277  0.09753  0.22119  1.0000
  H   H4        1.0  0.44722  0.77881  0.90246  1.0000
  H   H5        1.0  0.75348  0.97954  0.73049  1.0000
  H   H6        1.0  0.74652  0.26952  0.02046  1.0000
  H   H7        1.0  0.24652  0.02046  0.26952  1.0000
  H   H8        1.0  0.25348  0.73048  0.97954  1.0000
  H   H9        1.0  0.61465  0.84886  0.34538  1.0000
  H   H10       1.0  0.88534  0.65462  0.15114  1.0000
  H   H11       1.0  0.38535  0.15113  0.65462  1.0000
  H   H12       1.0  0.11466  0.34538  0.84886  1.0000
  H   H13       1.0  0.62719  0.05443  0.35643  1.0000
  H   H14       1.0  0.87280  0.64356  0.94557  1.0000
  H   H15       1.0  0.37281  0.94557  0.64357  1.0000
  H   H16       1.0  0.12720  0.35644  0.05443  1.0000
  C   C1        1.0  0.00511  0.39867  0.55105  1.0000
  C   C2        1.0  0.49489  0.44894  0.60132  1.0000
  C   C3        1.0  0.99489  0.60130  0.44893  1.0000
  C   C4        1.0  0.50511  0.55107  0.39869  1.0000
  C   C5        1.0  0.00015  0.59547  0.63125  1.0000
  C   C6        1.0  0.49985  0.36875  0.40452  1.0000
  C   C7        1.0  0.99985  0.40452  0.36876  1.0000
  C   C8        1.0  0.50016  0.63125  0.59548  1.0000
  O   O1        1.0  0.01130  0.28052  0.61881  1.0000
  O   O2        1.0  0.48871  0.38119  0.71947  1.0000
  O   O3        1.0  0.98870  0.71948  0.38120  1.0000
  O   O4        1.0  0.51130  0.61881  0.28052  1.0000
  O   O5        1.0  0.99872  0.70908  0.79090  1.0000
  O   O6        1.0  0.50127  0.20911  0.29093  1.0000
  O   O7        1.0  0.00128  0.29091  0.20908  1.0000
  O   O8        1.0  0.49872  0.79092  0.70910  1.0000
  O   O9        1.0  0.90241  0.00253  0.74478  1.0000
  O   O10       1.0  0.59760  0.25523  0.99746  1.0000
  O   O11       1.0  0.09757  0.99747  0.25523  1.0000
  O   O12       1.0  0.40242  0.74477  0.00252  1.0000
  O   O13       1.0  0.69876  0.97070  0.39639  1.0000
  O   O14       1.0  0.80123  0.60362  0.02930  1.0000
  O   O15       1.0  0.30124  0.02928  0.60362  1.0000
  O   O16       1.0  0.19876  0.39638  0.97071  1.0000
