data_image0
_chemical_formula_structural       Sr3H33C33N3O18
_chemical_formula_sum              "Sr3 H33 C33 N3 O18"
_cell_length_a       9.83686
_cell_length_b       10.578
_cell_length_c       10.5789
_cell_angle_alpha    119.999
_cell_angle_beta     90.0012
_cell_angle_gamma    90.0021

_space_group_name_H-M_alt    "P 1"
_space_group_IT_number       1

loop_
  _space_group_symop_operation_xyz
  'x, y, z'

loop_
  _atom_site_type_symbol
  _atom_site_label
  _atom_site_symmetry_multiplicity
  _atom_site_fract_x
  _atom_site_fract_y
  _atom_site_fract_z
  _atom_site_occupancy
  Sr  Sr1       1.0  0.33852  0.90461  0.03184  1.0000
  Sr  Sr2       1.0  0.00521  0.96818  0.87272  1.0000
  Sr  Sr3       1.0  0.67187  0.12726  0.09536  1.0000
  H   H1        1.0  0.73332  0.15581  0.48696  1.0000
  H   H2        1.0  0.39980  0.51296  0.66884  1.0000
  H   H3        1.0  0.06667  0.33127  0.84433  1.0000
  H   H4        1.0  0.62873  0.10456  0.77975  1.0000
  H   H5        1.0  0.29529  0.22025  0.32480  1.0000
  H   H6        1.0  0.96222  0.67542  0.89563  1.0000
  H   H7        1.0  0.22049  0.00971  0.60879  1.0000
  H   H8        1.0  0.88697  0.39109  0.40090  1.0000
  H   H9        1.0  0.55395  0.59902  0.99014  1.0000
  H   H10       1.0  0.29552  0.03925  0.39911  1.0000
  H   H11       1.0  0.96203  0.60085  0.64012  1.0000
  H   H12       1.0  0.62896  0.35992  0.96068  1.0000
  H   H13       1.0  0.30544  0.54615  0.97998  1.0000
  H   H14       1.0  0.97211  0.02007  0.56611  1.0000
  H   H15       1.0  0.63880  0.43386  0.45394  1.0000
  H   H16       1.0  0.31500  0.34492  0.97781  1.0000
  H   H17       1.0  0.98156  0.02216  0.36704  1.0000
  H   H18       1.0  0.64839  0.63291  0.65506  1.0000
  H   H19       1.0  0.19702  0.33793  0.10228  1.0000
  H   H20       1.0  0.86357  0.89765  0.23561  1.0000
  H   H21       1.0  0.53044  0.76440  0.66210  1.0000
  H   H22       1.0  0.37528  0.34957  0.13956  1.0000
  H   H23       1.0  0.04185  0.86043  0.20994  1.0000
  H   H24       1.0  0.70871  0.79001  0.65041  1.0000
  H   H25       1.0  0.35431  0.58467  0.37630  1.0000
  H   H26       1.0  0.02098  0.62369  0.20842  1.0000
  H   H27       1.0  0.68757  0.79160  0.41529  1.0000
  H   H28       1.0  0.17528  0.58005  0.35701  1.0000
  H   H29       1.0  0.84194  0.64295  0.22309  1.0000
  H   H30       1.0  0.50853  0.77686  0.41985  1.0000
  H   H31       1.0  0.26859  0.73379  0.37430  1.0000
  H   H32       1.0  0.93528  0.62576  0.35958  1.0000
  H   H33       1.0  0.60190  0.64041  0.26618  1.0000
  C   C1        1.0  0.50261  0.09066  0.47256  1.0000
  C   C2        1.0  0.16906  0.52731  0.61815  1.0000
  C   C3        1.0  0.83606  0.38197  0.90938  1.0000
  C   C4        1.0  0.59724  0.10968  0.58202  1.0000
  C   C5        1.0  0.26369  0.41787  0.52772  1.0000
  C   C6        1.0  0.93069  0.47252  0.89050  1.0000
  C   C7        1.0  0.55435  0.09132  0.69804  1.0000
  C   C8        1.0  0.22082  0.30183  0.39333  1.0000
  C   C9        1.0  0.88783  0.60692  0.90885  1.0000
  C   C10       1.0  0.41980  0.05629  0.70768  1.0000
  C   C11       1.0  0.08627  0.29215  0.34865  1.0000
  C   C12       1.0  0.75324  0.65153  0.94374  1.0000
  C   C13       1.0  0.32522  0.03723  0.59956  1.0000
  C   C14       1.0  0.99168  0.40027  0.43770  1.0000
  C   C15       1.0  0.65867  0.56237  0.96269  1.0000
  C   C16       1.0  0.36740  0.05416  0.48372  1.0000
  C   C17       1.0  0.03385  0.51615  0.57045  1.0000
  C   C18       1.0  0.70085  0.42962  0.94580  1.0000
  C   C19       1.0  0.54783  0.11103  0.35061  1.0000
  C   C20       1.0  0.21427  0.64931  0.76046  1.0000
  C   C21       1.0  0.88120  0.23959  0.88892  1.0000
  C   C22       1.0  0.37797  0.03613  0.83284  1.0000
  C   C23       1.0  0.04457  0.16708  0.20323  1.0000
  C   C24       1.0  0.71133  0.79682  0.96383  1.0000
  C   C25       1.0  0.29355  0.61739  0.09909  1.0000
  C   C26       1.0  0.96023  0.90095  0.51826  1.0000
  C   C27       1.0  0.62686  0.48171  0.38268  1.0000
  C   C28       1.0  0.29370  0.38491  0.09341  1.0000
  C   C29       1.0  0.96028  0.90657  0.29144  1.0000
  C   C30       1.0  0.62709  0.70854  0.61510  1.0000
  C   C31       1.0  0.26999  0.61544  0.32907  1.0000
  C   C32       1.0  0.93666  0.67092  0.28640  1.0000
  C   C33       1.0  0.60328  0.71358  0.38451  1.0000
  N   N1        1.0  0.28622  0.54358  0.17140  1.0000
  N   N2        1.0  0.95287  0.82860  0.37215  1.0000
  N   N3        1.0  0.61955  0.62783  0.45644  1.0000
  O   O1        1.0  0.46643  0.09152  0.24873  1.0000
  O   O2        1.0  0.13290  0.75127  0.84273  1.0000
  O   O3        1.0  0.79975  0.15718  0.90833  1.0000
  O   O4        1.0  0.67266  0.14912  0.34964  1.0000
  O   O5        1.0  0.33905  0.65024  0.79957  1.0000
  O   O6        1.0  0.00603  0.20052  0.85085  1.0000
  O   O7        1.0  0.46488  0.06193  0.93333  1.0000
  O   O8        1.0  0.13155  0.06668  0.12854  1.0000
  O   O9        1.0  0.79817  0.87154  0.93800  1.0000
  O   O10       1.0  0.25874  0.99057  0.83445  1.0000
  O   O11       1.0  0.92540  0.16550  0.15593  1.0000
  O   O12       1.0  0.59208  0.84395  0.00940  1.0000
  O   O13       1.0  0.72853  0.14394  0.57723  1.0000
  O   O14       1.0  0.39500  0.42271  0.56672  1.0000
  O   O15       1.0  0.06196  0.43345  0.85628  1.0000
  O   O16       1.0  0.28722  0.75357  0.15611  1.0000
  O   O17       1.0  0.95396  0.84393  0.59742  1.0000
  O   O18       1.0  0.62050  0.40253  0.24651  1.0000
