data_image0
_chemical_formula_structural       Cs4H8C20N12O20
_chemical_formula_sum              "Cs4 H8 C20 N12 O20"
_cell_length_a       4.23576
_cell_length_b       14.0473
_cell_length_c       15.0224
_cell_angle_alpha    90
_cell_angle_beta     89.9998
_cell_angle_gamma    94.6505

_space_group_name_H-M_alt    "P 1"
_space_group_IT_number       1

loop_
  _space_group_symop_operation_xyz
  'x, y, z'

loop_
  _atom_site_type_symbol
  _atom_site_label
  _atom_site_symmetry_multiplicity
  _atom_site_fract_x
  _atom_site_fract_y
  _atom_site_fract_z
  _atom_site_occupancy
  Cs  Cs1       1.0  0.57465  0.19256  0.42457  1.0000
  Cs  Cs2       1.0  0.42535  0.30744  0.92457  1.0000
  Cs  Cs3       1.0  0.42535  0.80744  0.57543  1.0000
  Cs  Cs4       1.0  0.57465  0.69256  0.07543  1.0000
  H   H1        1.0  0.96734  0.78137  0.26689  1.0000
  H   H2        1.0  0.03265  0.71863  0.76689  1.0000
  H   H3        1.0  0.03266  0.21863  0.73311  1.0000
  H   H4        1.0  0.96734  0.28137  0.23311  1.0000
  H   H5        1.0  0.29786  0.95070  0.05458  1.0000
  H   H6        1.0  0.70214  0.54930  0.55458  1.0000
  H   H7        1.0  0.70214  0.04931  0.94542  1.0000
  H   H8        1.0  0.29786  0.45070  0.44542  1.0000
  C   C1        1.0  0.07694  0.02955  0.26311  1.0000
  C   C2        1.0  0.92306  0.47045  0.76311  1.0000
  C   C3        1.0  0.92306  0.97045  0.73689  1.0000
  C   C4        1.0  0.07693  0.52955  0.23689  1.0000
  C   C5        1.0  0.99352  0.93185  0.29280  1.0000
  C   C6        1.0  0.00648  0.56815  0.79280  1.0000
  C   C7        1.0  0.00648  0.06815  0.70720  1.0000
  C   C8        1.0  0.99352  0.43185  0.20720  1.0000
  C   C9        1.0  0.02997  0.85255  0.23974  1.0000
  C   C10       1.0  0.97003  0.64745  0.73974  1.0000
  C   C11       1.0  0.97003  0.14745  0.76026  1.0000
  C   C12       1.0  0.02997  0.35255  0.26026  1.0000
  C   C13       1.0  0.21058  0.94583  0.12293  1.0000
  C   C14       1.0  0.78942  0.55417  0.62293  1.0000
  C   C15       1.0  0.78942  0.05417  0.87707  1.0000
  C   C16       1.0  0.21058  0.44583  0.37707  1.0000
  C   C17       1.0  0.19937  0.02907  0.17236  1.0000
  C   C18       1.0  0.80064  0.47093  0.67236  1.0000
  C   C19       1.0  0.80063  0.97093  0.82764  1.0000
  C   C20       1.0  0.19937  0.52907  0.32764  1.0000
  N   N1        1.0  0.13034  0.85782  0.15488  1.0000
  N   N2        1.0  0.86966  0.64218  0.65488  1.0000
  N   N3        1.0  0.86966  0.14218  0.84512  1.0000
  N   N4        1.0  0.13034  0.35782  0.34512  1.0000
  N   N5        1.0  0.87395  0.91375  0.38126  1.0000
  N   N6        1.0  0.12605  0.58625  0.88126  1.0000
  N   N7        1.0  0.12605  0.08625  0.61874  1.0000
  N   N8        1.0  0.87394  0.41375  0.11874  1.0000
  N   N9        1.0  0.31965  0.11706  0.13008  1.0000
  N   N10       1.0  0.68035  0.38294  0.63009  1.0000
  N   N11       1.0  0.68035  0.88294  0.86992  1.0000
  N   N12       1.0  0.31965  0.61706  0.36991  1.0000
  O   O1        1.0  0.05006  0.10296  0.30901  1.0000
  O   O2        1.0  0.94994  0.39704  0.80901  1.0000
  O   O3        1.0  0.94993  0.89704  0.69099  1.0000
  O   O4        1.0  0.05006  0.60296  0.19099  1.0000
  O   O5        1.0  0.95013  0.84025  0.42029  1.0000
  O   O6        1.0  0.04987  0.65975  0.92029  1.0000
  O   O7        1.0  0.04987  0.15975  0.57971  1.0000
  O   O8        1.0  0.95013  0.34025  0.07971  1.0000
  O   O9        1.0  0.69677  0.97034  0.41533  1.0000
  O   O10       1.0  0.30322  0.52966  0.91533  1.0000
  O   O11       1.0  0.30323  0.02966  0.58467  1.0000
  O   O12       1.0  0.69678  0.47034  0.08467  1.0000
  O   O13       1.0  0.44957  0.18186  0.17684  1.0000
  O   O14       1.0  0.55043  0.31814  0.67683  1.0000
  O   O15       1.0  0.55043  0.81814  0.82317  1.0000
  O   O16       1.0  0.44957  0.68186  0.32316  1.0000
  O   O17       1.0  0.29328  0.12268  0.04710  1.0000
  O   O18       1.0  0.70672  0.37732  0.54710  1.0000
  O   O19       1.0  0.70672  0.87732  0.95290  1.0000
  O   O20       1.0  0.29328  0.62268  0.45290  1.0000
