data_image0
_chemical_formula_structural       Rb2H4C10N6O10
_chemical_formula_sum              "Rb2 H4 C10 N6 O10"
_cell_length_a       4.22482
_cell_length_b       9.01598
_cell_length_c       10.8913
_cell_angle_alpha    91.9495
_cell_angle_beta     90.5689
_cell_angle_gamma    102.641

_space_group_name_H-M_alt    "P 1"
_space_group_IT_number       1

loop_
  _space_group_symop_operation_xyz
  'x, y, z'

loop_
  _atom_site_type_symbol
  _atom_site_label
  _atom_site_symmetry_multiplicity
  _atom_site_fract_x
  _atom_site_fract_y
  _atom_site_fract_z
  _atom_site_occupancy
  Rb  Rb1       1.0  0.79138  0.19096  0.61930  1.0000
  Rb  Rb2       1.0  0.20862  0.80904  0.38070  1.0000
  H   H1        1.0  0.63809  0.53593  0.88427  1.0000
  H   H2        1.0  0.36191  0.46407  0.11573  1.0000
  H   H3        1.0  0.27642  0.98221  0.90723  1.0000
  H   H4        1.0  0.72358  0.01779  0.09277  1.0000
  C   C1        1.0  0.79851  0.82049  0.67193  1.0000
  C   C2        1.0  0.20149  0.17951  0.32807  1.0000
  C   C3        1.0  0.66129  0.67591  0.72773  1.0000
  C   C4        1.0  0.33871  0.32409  0.27227  1.0000
  C   C5        1.0  0.74574  0.64432  0.84502  1.0000
  C   C6        1.0  0.25426  0.35568  0.15498  1.0000
  C   C7        1.0  0.96792  0.75652  0.91103  1.0000
  C   C8        1.0  0.03208  0.24348  0.08897  1.0000
  C   C9        1.0  0.10146  0.89493  0.85526  1.0000
  C   C10       1.0  0.89853  0.10507  0.14474  1.0000
  N   N1        1.0  0.02442  0.92576  0.74279  1.0000
  N   N2        1.0  0.97558  0.07424  0.25721  1.0000
  N   N3        1.0  0.43438  0.55786  0.66028  1.0000
  N   N4        1.0  0.56562  0.44214  0.33972  1.0000
  N   N5        1.0  0.05487  0.73205  0.03469  1.0000
  N   N6        1.0  0.94512  0.26795  0.96531  1.0000
  O   O1        1.0  0.73116  0.85346  0.56522  1.0000
  O   O2        1.0  0.26884  0.14654  0.43478  1.0000
  O   O3        1.0  0.24708  0.59399  0.58390  1.0000
  O   O4        1.0  0.75292  0.40601  0.41610  1.0000
  O   O5        1.0  0.43251  0.42254  0.68316  1.0000
  O   O6        1.0  0.56749  0.57746  0.31684  1.0000
  O   O7        1.0  0.90438  0.61661  0.08607  1.0000
  O   O8        1.0  0.09561  0.38339  0.91393  1.0000
  O   O9        1.0  0.27968  0.82814  0.08747  1.0000
  O   O10       1.0  0.72032  0.17186  0.91253  1.0000
