data_image0
_chemical_formula_structural       Rb4H8C20N12O20
_chemical_formula_sum              "Rb4 H8 C20 N12 O20"
_cell_length_a       4.06145
_cell_length_b       13.6907
_cell_length_c       14.7206
_cell_angle_alpha    90
_cell_angle_beta     90
_cell_angle_gamma    93.1796

_space_group_name_H-M_alt    "P 1"
_space_group_IT_number       1

loop_
  _space_group_symop_operation_xyz
  'x, y, z'

loop_
  _atom_site_type_symbol
  _atom_site_label
  _atom_site_symmetry_multiplicity
  _atom_site_fract_x
  _atom_site_fract_y
  _atom_site_fract_z
  _atom_site_occupancy
  Rb  Rb1       1.0  0.92737  0.30713  0.92610  1.0000
  Rb  Rb2       1.0  0.07263  0.19287  0.42610  1.0000
  Rb  Rb3       1.0  0.07263  0.69287  0.07390  1.0000
  Rb  Rb4       1.0  0.92737  0.80713  0.57390  1.0000
  H   H1        1.0  0.45630  0.27713  0.23330  1.0000
  H   H2        1.0  0.54370  0.22287  0.73330  1.0000
  H   H3        1.0  0.54370  0.72287  0.76670  1.0000
  H   H4        1.0  0.45630  0.77713  0.26670  1.0000
  H   H5        1.0  0.78778  0.45037  0.44951  1.0000
  H   H6        1.0  0.21222  0.04963  0.94951  1.0000
  H   H7        1.0  0.21222  0.54963  0.55049  1.0000
  H   H8        1.0  0.78778  0.95037  0.05049  1.0000
  C   C1        1.0  0.52260  0.34982  0.26010  1.0000
  C   C2        1.0  0.47740  0.15018  0.76010  1.0000
  C   C3        1.0  0.47740  0.65018  0.73990  1.0000
  C   C4        1.0  0.52260  0.84982  0.23990  1.0000
  C   C5        1.0  0.49265  0.43083  0.20459  1.0000
  C   C6        1.0  0.50735  0.06917  0.70459  1.0000
  C   C7        1.0  0.50735  0.56917  0.79541  1.0000
  C   C8        1.0  0.49265  0.93083  0.29541  1.0000
  C   C9        1.0  0.58048  0.53067  0.23390  1.0000
  C   C10       1.0  0.41952  0.96933  0.73390  1.0000
  C   C11       1.0  0.41952  0.46933  0.76610  1.0000
  C   C12       1.0  0.58048  0.03067  0.26610  1.0000
  C   C13       1.0  0.69978  0.53018  0.32743  1.0000
  C   C14       1.0  0.30022  0.96981  0.82743  1.0000
  C   C15       1.0  0.30022  0.46981  0.67257  1.0000
  C   C16       1.0  0.69978  0.03019  0.17257  1.0000
  C   C17       1.0  0.70334  0.44541  0.37925  1.0000
  C   C18       1.0  0.29666  0.05459  0.87925  1.0000
  C   C19       1.0  0.29666  0.55459  0.62075  1.0000
  C   C20       1.0  0.70334  0.94541  0.12075  1.0000
  N   N1        1.0  0.61959  0.35541  0.34739  1.0000
  N   N2        1.0  0.38041  0.14458  0.84739  1.0000
  N   N3        1.0  0.38041  0.64458  0.65261  1.0000
  N   N4        1.0  0.61958  0.85542  0.15261  1.0000
  N   N5        1.0  0.37284  0.41256  0.11398  1.0000
  N   N6        1.0  0.62716  0.08744  0.61398  1.0000
  N   N7        1.0  0.62716  0.58744  0.88602  1.0000
  N   N8        1.0  0.37284  0.91256  0.38602  1.0000
  N   N9        1.0  0.82645  0.61968  0.36989  1.0000
  N   N10       1.0  0.17355  0.88032  0.86989  1.0000
  N   N11       1.0  0.17355  0.38032  0.63011  1.0000
  N   N12       1.0  0.82644  0.11968  0.13010  1.0000
  O   O1        1.0  0.45375  0.33628  0.07479  1.0000
  O   O2        1.0  0.54625  0.16372  0.57479  1.0000
  O   O3        1.0  0.54626  0.66372  0.92521  1.0000
  O   O4        1.0  0.45375  0.83628  0.42521  1.0000
  O   O5        1.0  0.18961  0.47164  0.07833  1.0000
  O   O6        1.0  0.81039  0.02836  0.57833  1.0000
  O   O7        1.0  0.81039  0.52836  0.92167  1.0000
  O   O8        1.0  0.18961  0.97164  0.42167  1.0000
  O   O9        1.0  0.55911  0.60548  0.18562  1.0000
  O   O10       1.0  0.44089  0.89452  0.68562  1.0000
  O   O11       1.0  0.44089  0.39452  0.81438  1.0000
  O   O12       1.0  0.55911  0.10548  0.31438  1.0000
  O   O13       1.0  0.96768  0.68359  0.32171  1.0000
  O   O14       1.0  0.03233  0.81641  0.82171  1.0000
  O   O15       1.0  0.03232  0.31641  0.67829  1.0000
  O   O16       1.0  0.96768  0.18359  0.17829  1.0000
  O   O17       1.0  0.79476  0.62737  0.45430  1.0000
  O   O18       1.0  0.20524  0.87263  0.95430  1.0000
  O   O19       1.0  0.20524  0.37263  0.54570  1.0000
  O   O20       1.0  0.79476  0.12737  0.04570  1.0000
