data_image0
_chemical_formula_structural       Cs4H16C20N12O24
_chemical_formula_sum              "Cs4 H16 C20 N12 O24"
_cell_length_a       4.8139
_cell_length_b       9.53966
_cell_length_c       20.3343
_cell_angle_alpha    89.9999
_cell_angle_beta     90
_cell_angle_gamma    95.48

_space_group_name_H-M_alt    "P 1"
_space_group_IT_number       1

loop_
  _space_group_symop_operation_xyz
  'x, y, z'

loop_
  _atom_site_type_symbol
  _atom_site_label
  _atom_site_symmetry_multiplicity
  _atom_site_fract_x
  _atom_site_fract_y
  _atom_site_fract_z
  _atom_site_occupancy
  Cs  Cs1       1.0  0.39347  0.13564  0.18897  1.0000
  Cs  Cs2       1.0  0.10653  0.36436  0.68897  1.0000
  Cs  Cs3       1.0  0.60653  0.86436  0.81103  1.0000
  Cs  Cs4       1.0  0.89346  0.63564  0.31103  1.0000
  H   H1        1.0  0.97822  0.40718  0.45123  1.0000
  H   H2        1.0  0.52179  0.09282  0.95123  1.0000
  H   H3        1.0  0.02179  0.59282  0.54877  1.0000
  H   H4        1.0  0.47821  0.90718  0.04877  1.0000
  H   H5        1.0  0.29049  0.08459  0.46665  1.0000
  H   H6        1.0  0.20951  0.41541  0.96665  1.0000
  H   H7        1.0  0.70951  0.91541  0.53335  1.0000
  H   H8        1.0  0.79049  0.58459  0.03335  1.0000
  H   H9        1.0  0.84526  0.93266  0.23801  1.0000
  H   H10       1.0  0.65474  0.56734  0.73801  1.0000
  H   H11       1.0  0.15474  0.06734  0.76199  1.0000
  H   H12       1.0  0.34526  0.43266  0.26199  1.0000
  H   H13       1.0  0.74775  0.83948  0.17578  1.0000
  H   H14       1.0  0.75225  0.66052  0.67578  1.0000
  H   H15       1.0  0.25225  0.16052  0.82422  1.0000
  H   H16       1.0  0.24775  0.33948  0.32422  1.0000
  C   C1        1.0  0.80894  0.13910  0.34833  1.0000
  C   C2        1.0  0.69106  0.36090  0.84833  1.0000
  C   C3        1.0  0.19106  0.86090  0.65167  1.0000
  C   C4        1.0  0.30894  0.63910  0.15167  1.0000
  C   C5        1.0  0.86053  0.31271  0.43176  1.0000
  C   C6        1.0  0.63947  0.18729  0.93176  1.0000
  C   C7        1.0  0.13947  0.68729  0.56824  1.0000
  C   C8        1.0  0.36053  0.81271  0.06824  1.0000
  C   C9        1.0  0.62140  0.25384  0.46565  1.0000
  C   C10       1.0  0.87860  0.24616  0.96565  1.0000
  C   C11       1.0  0.37860  0.74616  0.53435  1.0000
  C   C12       1.0  0.12139  0.75384  0.03435  1.0000
  C   C13       1.0  0.47394  0.13288  0.44128  1.0000
  C   C14       1.0  0.02606  0.36712  0.94128  1.0000
  C   C15       1.0  0.52606  0.86711  0.55872  1.0000
  C   C16       1.0  0.97394  0.63289  0.05872  1.0000
  C   C17       1.0  0.56619  0.07373  0.38411  1.0000
  C   C18       1.0  0.93381  0.42627  0.88411  1.0000
  C   C19       1.0  0.43381  0.92627  0.61589  1.0000
  C   C20       1.0  0.06619  0.57373  0.11589  1.0000
  N   N1        1.0  0.40765  0.94666  0.36201  1.0000
  N   N2        1.0  0.09235  0.55334  0.86201  1.0000
  N   N3        1.0  0.59235  0.05334  0.63799  1.0000
  N   N4        1.0  0.90764  0.44666  0.13799  1.0000
  N   N5        1.0  0.53033  0.31681  0.52464  1.0000
  N   N6        1.0  0.96967  0.18319  0.02464  1.0000
  N   N7        1.0  0.46967  0.68319  0.47536  1.0000
  N   N8        1.0  0.03032  0.81681  0.97536  1.0000
  N   N9        1.0  0.94871  0.25943  0.37674  1.0000
  N   N10       1.0  0.55129  0.24057  0.87674  1.0000
  N   N11       1.0  0.05129  0.74057  0.62325  1.0000
  N   N12       1.0  0.44871  0.75943  0.12326  1.0000
  O   O1        1.0  0.91382  0.88128  0.20038  1.0000
  O   O2        1.0  0.58617  0.61872  0.70038  1.0000
  O   O3        1.0  0.08618  0.11872  0.79962  1.0000
  O   O4        1.0  0.41383  0.38128  0.29962  1.0000
  O   O5        1.0  0.89973  0.09611  0.29506  1.0000
  O   O6        1.0  0.60027  0.40390  0.79506  1.0000
  O   O7        1.0  0.10027  0.90389  0.70494  1.0000
  O   O8        1.0  0.39973  0.59610  0.20494  1.0000
  O   O9        1.0  0.47504  0.88841  0.31001  1.0000
  O   O10       1.0  0.02496  0.61159  0.81001  1.0000
  O   O11       1.0  0.52496  0.11159  0.68999  1.0000
  O   O12       1.0  0.97504  0.38841  0.18999  1.0000
  O   O13       1.0  0.20481  0.89756  0.39610  1.0000
  O   O14       1.0  0.29519  0.60244  0.89610  1.0000
  O   O15       1.0  0.79519  0.10244  0.60390  1.0000
  O   O16       1.0  0.70481  0.39756  0.10390  1.0000
  O   O17       1.0  0.30437  0.26712  0.54960  1.0000
  O   O18       1.0  0.19563  0.23288  0.04960  1.0000
  O   O19       1.0  0.69563  0.73288  0.45040  1.0000
  O   O20       1.0  0.80437  0.76712  0.95040  1.0000
  O   O21       1.0  0.67838  0.41844  0.54913  1.0000
  O   O22       1.0  0.82163  0.08156  0.04913  1.0000
  O   O23       1.0  0.32162  0.58156  0.45087  1.0000
  O   O24       1.0  0.17838  0.91844  0.95087  1.0000
