data_image0
_chemical_formula_structural       Cs4H8C20N12O24
_chemical_formula_sum              "Cs4 H8 C20 N12 O24"
_cell_length_a       7.78223
_cell_length_b       10.3176
_cell_length_c       12.8426
_cell_angle_alpha    82.2179
_cell_angle_beta     72.3734
_cell_angle_gamma    67.8428

_space_group_name_H-M_alt    "P 1"
_space_group_IT_number       1

loop_
  _space_group_symop_operation_xyz
  'x, y, z'

loop_
  _atom_site_type_symbol
  _atom_site_label
  _atom_site_symmetry_multiplicity
  _atom_site_fract_x
  _atom_site_fract_y
  _atom_site_fract_z
  _atom_site_occupancy
  Cs  Cs1       1.0  0.76534  0.52673  0.43316  1.0000
  Cs  Cs2       1.0  0.72503  0.97333  0.06690  1.0000
  Cs  Cs3       1.0  0.23466  0.47327  0.56684  1.0000
  Cs  Cs4       1.0  0.27497  0.02667  0.93310  1.0000
  H   H1        1.0  0.80533  0.38462  0.75684  1.0000
  H   H2        1.0  0.94670  0.11535  0.74320  1.0000
  H   H3        1.0  0.19467  0.61538  0.24316  1.0000
  H   H4        1.0  0.05330  0.88465  0.25680  1.0000
  H   H5        1.0  0.80791  0.30872  0.08296  1.0000
  H   H6        1.0  0.19942  0.19132  0.41709  1.0000
  H   H7        1.0  0.19209  0.69128  0.91704  1.0000
  H   H8        1.0  0.80058  0.80868  0.58291  1.0000
  C   C1        1.0  0.77382  0.43008  0.83559  1.0000
  C   C2        1.0  0.03936  0.06990  0.66444  1.0000
  C   C3        1.0  0.22618  0.56992  0.16441  1.0000
  C   C4        1.0  0.96064  0.93010  0.33556  1.0000
  C   C5        1.0  0.70201  0.57332  0.85090  1.0000
  C   C6        1.0  0.12614  0.92669  0.64912  1.0000
  C   C7        1.0  0.29799  0.42668  0.14910  1.0000
  C   C8        1.0  0.87386  0.07331  0.35089  1.0000
  C   C9        1.0  0.67501  0.63766  0.95176  1.0000
  C   C10       1.0  0.26432  0.86237  0.54825  1.0000
  C   C11       1.0  0.32499  0.36234  0.04824  1.0000
  C   C12       1.0  0.73568  0.13763  0.45175  1.0000
  C   C13       1.0  0.72047  0.52870  0.03474  1.0000
  C   C14       1.0  0.28372  0.97134  0.46528  1.0000
  C   C15       1.0  0.27953  0.47130  0.96526  1.0000
  C   C16       1.0  0.71628  0.02866  0.53472  1.0000
  C   C17       1.0  0.77602  0.38791  0.01941  1.0000
  C   C18       1.0  0.18310  0.11214  0.48062  1.0000
  C   C19       1.0  0.22399  0.61209  0.98059  1.0000
  C   C20       1.0  0.81690  0.88786  0.51938  1.0000
  N   N1        1.0  0.65724  0.65947  0.75807  1.0000
  N   N2        1.0  0.07475  0.84047  0.74193  1.0000
  N   N3        1.0  0.34276  0.34053  0.24193  1.0000
  N   N4        1.0  0.92524  0.15953  0.25807  1.0000
  N   N5        1.0  0.70293  0.56802  0.14273  1.0000
  N   N6        1.0  0.41350  0.93204  0.35730  1.0000
  N   N7        1.0  0.29707  0.43199  0.85727  1.0000
  N   N8        1.0  0.58650  0.06796  0.64270  1.0000
  N   N9        1.0  0.80692  0.33749  0.91955  1.0000
  N   N10       1.0  0.06380  0.16251  0.58050  1.0000
  N   N11       1.0  0.19308  0.66251  0.08045  1.0000
  N   N12       1.0  0.93620  0.83749  0.41950  1.0000
  O   O1        1.0  0.76001  0.61635  0.66457  1.0000
  O   O2        1.0  0.04090  0.88360  0.83544  1.0000
  O   O3        1.0  0.23999  0.38365  0.33544  1.0000
  O   O4        1.0  0.95911  0.11640  0.16456  1.0000
  O   O5        1.0  0.51740  0.77170  0.77384  1.0000
  O   O6        1.0  0.06285  0.72827  0.72613  1.0000
  O   O7        1.0  0.48260  0.22830  0.22616  1.0000
  O   O8        1.0  0.93715  0.27173  0.27387  1.0000
  O   O9        1.0  0.62091  0.76613  0.96671  1.0000
  O   O10       1.0  0.35367  0.73391  0.53331  1.0000
  O   O11       1.0  0.37910  0.23386  0.03329  1.0000
  O   O12       1.0  0.64633  0.26609  0.46669  1.0000
  O   O13       1.0  0.78394  0.64915  0.14837  1.0000
  O   O14       1.0  0.58126  0.85086  0.35163  1.0000
  O   O15       1.0  0.21607  0.35085  0.85163  1.0000
  O   O16       1.0  0.41874  0.14914  0.64837  1.0000
  O   O17       1.0  0.61069  0.51732  0.22366  1.0000
  O   O18       1.0  0.35147  0.98285  0.27637  1.0000
  O   O19       1.0  0.38931  0.48268  0.77634  1.0000
  O   O20       1.0  0.64853  0.01715  0.72363  1.0000
  O   O21       1.0  0.86834  0.20156  0.90596  1.0000
  O   O22       1.0  0.97585  0.29842  0.59416  1.0000
  O   O23       1.0  0.13166  0.79844  0.09404  1.0000
  O   O24       1.0  0.02415  0.70158  0.40584  1.0000
