data_image0
_chemical_formula_structural       Ce2Zn2H34C42N6O32
_chemical_formula_sum              "Ce2 Zn2 H34 C42 N6 O32"
_cell_length_a       10.1741
_cell_length_b       12.445
_cell_length_c       13.6442
_cell_angle_alpha    95.1785
_cell_angle_beta     90.4673
_cell_angle_gamma    111.468

_space_group_name_H-M_alt    "P 1"
_space_group_IT_number       1

loop_
  _space_group_symop_operation_xyz
  'x, y, z'

loop_
  _atom_site_type_symbol
  _atom_site_label
  _atom_site_symmetry_multiplicity
  _atom_site_fract_x
  _atom_site_fract_y
  _atom_site_fract_z
  _atom_site_occupancy
  Ce  Ce1       1.0  0.03466  0.80850  0.23365  1.0000
  Ce  Ce2       1.0  0.96534  0.19151  0.76634  1.0000
  Zn  Zn1       1.0  0.49999  0.99999  0.50000  1.0000
  Zn  Zn2       1.0  0.50000  0.00001  0.00000  1.0000
  H   H1        1.0  0.44063  0.26315  0.30234  1.0000
  H   H2        1.0  0.55937  0.73683  0.69767  1.0000
  H   H3        1.0  0.33055  0.35802  0.18754  1.0000
  H   H4        1.0  0.66946  0.64198  0.81248  1.0000
  H   H5        1.0  0.09892  0.23355  0.09618  1.0000
  H   H6        1.0  0.90108  0.76645  0.90383  1.0000
  H   H7        1.0  0.90094  0.82032  0.62717  1.0000
  H   H8        1.0  0.09908  0.17970  0.37282  1.0000
  H   H9        1.0  0.00815  0.67919  0.67863  1.0000
  H   H10       1.0  0.99185  0.32081  0.32137  1.0000
  H   H11       1.0  0.12271  0.58751  0.54962  1.0000
  H   H12       1.0  0.87727  0.41248  0.45038  1.0000
  H   H13       1.0  0.15565  0.66698  0.85355  1.0000
  H   H14       1.0  0.84436  0.33303  0.14644  1.0000
  H   H15       1.0  0.91506  0.50636  0.81146  1.0000
  H   H16       1.0  0.08493  0.49365  0.18853  1.0000
  H   H17       1.0  0.73320  0.46513  0.94044  1.0000
  H   H18       1.0  0.26679  0.53487  0.05956  1.0000
  H   H19       1.0  0.49005  0.80996  0.37297  1.0000
  H   H20       1.0  0.50996  0.19004  0.62703  1.0000
  H   H21       1.0  0.35557  0.84741  0.36941  1.0000
  H   H22       1.0  0.64442  0.15257  0.63059  1.0000
  H   H23       1.0  0.75652  0.00568  0.44935  1.0000
  H   H24       1.0  0.24347  0.99432  0.55065  1.0000
  H   H25       1.0  0.69592  0.06739  0.36895  1.0000
  H   H26       1.0  0.30406  0.93261  0.63106  1.0000
  H   H27       1.0  0.26134  0.04616  0.98626  1.0000
  H   H28       1.0  0.73865  0.95384  0.01374  1.0000
  H   H29       1.0  0.39173  0.16911  0.02062  1.0000
  H   H30       1.0  0.60826  0.83090  0.97938  1.0000
  H   H31       1.0  0.55717  0.93098  0.16486  1.0000
  H   H32       1.0  0.44283  0.06903  0.83514  1.0000
  H   H33       1.0  0.40022  0.92845  0.15696  1.0000
  H   H34       1.0  0.59978  0.07156  0.84304  1.0000
  C   C1        1.0  0.27354  0.09633  0.27033  1.0000
  C   C2        1.0  0.72647  0.90366  0.72967  1.0000
  C   C3        1.0  0.34158  0.21451  0.26081  1.0000
  C   C4        1.0  0.65842  0.78548  0.73920  1.0000
  C   C5        1.0  0.27935  0.26614  0.19740  1.0000
  C   C6        1.0  0.72065  0.73386  0.80261  1.0000
  C   C7        1.0  0.15160  0.19842  0.14698  1.0000
  C   C8        1.0  0.84841  0.80158  0.85303  1.0000
  C   C9        1.0  0.09034  0.08100  0.16153  1.0000
  C   C10       1.0  0.90967  0.91900  0.83847  1.0000
  C   C11       1.0  0.95312  0.99855  0.11195  1.0000
  C   C12       1.0  0.04689  0.00145  0.88806  1.0000
  C   C13       1.0  0.32859  0.02948  0.33483  1.0000
  C   C14       1.0  0.67141  0.97051  0.66517  1.0000
  C   C15       1.0  0.95396  0.79978  0.47661  1.0000
  C   C16       1.0  0.04605  0.20023  0.52339  1.0000
  C   C17       1.0  0.95042  0.77728  0.57504  1.0000
  C   C18       1.0  0.04959  0.22273  0.42496  1.0000
  C   C19       1.0  0.01122  0.70008  0.60267  1.0000
  C   C20       1.0  0.98878  0.29992  0.39733  1.0000
  C   C21       1.0  0.07374  0.64827  0.53191  1.0000
  C   C22       1.0  0.92625  0.35172  0.46809  1.0000
  C   C23       1.0  0.07220  0.67522  0.43501  1.0000
  C   C24       1.0  0.92779  0.32478  0.56499  1.0000
  C   C25       1.0  0.13218  0.62442  0.34989  1.0000
  C   C26       1.0  0.86781  0.37558  0.65011  1.0000
  C   C27       1.0  0.89334  0.88082  0.43582  1.0000
  C   C28       1.0  0.10666  0.11918  0.56417  1.0000
  C   C29       1.0  0.09470  0.70832  0.99809  1.0000
  C   C30       1.0  0.90530  0.29168  0.00191  1.0000
  C   C31       1.0  0.07112  0.64582  0.90538  1.0000
  C   C32       1.0  0.92888  0.35419  0.09461  1.0000
  C   C33       1.0  0.93926  0.55751  0.88296  1.0000
  C   C34       1.0  0.06074  0.44249  0.11703  1.0000
  C   C35       1.0  0.83705  0.53381  0.95399  1.0000
  C   C36       1.0  0.16295  0.46619  0.04601  1.0000
  C   C37       1.0  0.86968  0.59978  0.04546  1.0000
  C   C38       1.0  0.13032  0.40022  0.95453  1.0000
  C   C39       1.0  0.77060  0.57966  0.13035  1.0000
  C   C40       1.0  0.22942  0.42034  0.86965  1.0000
  C   C41       1.0  0.23034  0.80565  0.03171  1.0000
  C   C42       1.0  0.76966  0.19435  0.96828  1.0000
  N   N1        1.0  0.15149  0.03198  0.22137  1.0000
  N   N2        1.0  0.84851  0.96802  0.77863  1.0000
  N   N3        1.0  0.01347  0.74937  0.40928  1.0000
  N   N4        1.0  0.98653  0.25063  0.59072  1.0000
  N   N5        1.0  0.99562  0.68527  0.06557  1.0000
  N   N6        1.0  0.00438  0.31474  0.93442  1.0000
  O   O1        1.0  0.25746  0.91939  0.32799  1.0000
  O   O2        1.0  0.74254  0.08060  0.67201  1.0000
  O   O3        1.0  0.43734  0.08184  0.38940  1.0000
  O   O4        1.0  0.56265  0.91815  0.61060  1.0000
  O   O5        1.0  0.91890  0.89137  0.12590  1.0000
  O   O6        1.0  0.08111  0.10864  0.87410  1.0000
  O   O7        1.0  0.88137  0.03870  0.06128  1.0000
  O   O8        1.0  0.11863  0.96130  0.93872  1.0000
  O   O9        1.0  0.91278  0.89485  0.34399  1.0000
  O   O10       1.0  0.08722  0.10515  0.65602  1.0000
  O   O11       1.0  0.82855  0.92820  0.49161  1.0000
  O   O12       1.0  0.17145  0.07181  0.50839  1.0000
  O   O13       1.0  0.12963  0.67188  0.26816  1.0000
  O   O14       1.0  0.87037  0.32812  0.73185  1.0000
  O   O15       1.0  0.17507  0.54465  0.35834  1.0000
  O   O16       1.0  0.82490  0.45534  0.64166  1.0000
  O   O17       1.0  0.23440  0.85033  0.12106  1.0000
  O   O18       1.0  0.76560  0.14967  0.87894  1.0000
  O   O19       1.0  0.32993  0.83714  0.97369  1.0000
  O   O20       1.0  0.67007  0.16287  0.02630  1.0000
  O   O21       1.0  0.82351  0.65469  0.20760  1.0000
  O   O22       1.0  0.17650  0.34531  0.79240  1.0000
  O   O23       1.0  0.65499  0.49859  0.12343  1.0000
  O   O24       1.0  0.34505  0.50140  0.87658  1.0000
  O   O25       1.0  0.42478  0.83277  0.41360  1.0000
  O   O26       1.0  0.57521  0.16722  0.58640  1.0000
  O   O27       1.0  0.69816  0.05536  0.43814  1.0000
  O   O28       1.0  0.30182  0.94462  0.56187  1.0000
  O   O29       1.0  0.35964  0.08548  0.02057  1.0000
  O   O30       1.0  0.64036  0.91453  0.97943  1.0000
  O   O31       1.0  0.50314  0.98038  0.15741  1.0000
  O   O32       1.0  0.49687  0.01963  0.84259  1.0000
