data_image0
_chemical_formula_structural       Ce2Cd2H34C42N6O32
_chemical_formula_sum              "Ce2 Cd2 H34 C42 N6 O32"
_cell_length_a       9.57252
_cell_length_b       11.8164
_cell_length_c       13.4356
_cell_angle_alpha    88.523
_cell_angle_beta     69.6366
_cell_angle_gamma    85.752

_space_group_name_H-M_alt    "P 1"
_space_group_IT_number       1

loop_
  _space_group_symop_operation_xyz
  'x, y, z'

loop_
  _atom_site_type_symbol
  _atom_site_label
  _atom_site_symmetry_multiplicity
  _atom_site_fract_x
  _atom_site_fract_y
  _atom_site_fract_z
  _atom_site_occupancy
  Ce  Ce1       1.0  0.05056  0.27178  0.26283  1.0000
  Ce  Ce2       1.0  0.31234  0.76982  0.73721  1.0000
  Cd  Cd1       1.0  0.56484  0.48867  0.12097  1.0000
  Cd  Cd2       1.0  0.68646  0.98795  0.87838  1.0000
  H   H1        1.0  0.98707  0.60441  0.56442  1.0000
  H   H2        1.0  0.54696  0.10398  0.43786  1.0000
  H   H3        1.0  0.79845  0.74031  0.51828  1.0000
  H   H4        1.0  0.31372  0.24022  0.48345  1.0000
  H   H5        1.0  0.70774  0.68617  0.37452  1.0000
  H   H6        1.0  0.08128  0.18559  0.62580  1.0000
  H   H7        1.0  0.31549  0.86342  0.35167  1.0000
  H   H8        1.0  0.66907  0.36354  0.64864  1.0000
  H   H9        1.0  0.10385  0.80936  0.51140  1.0000
  H   H10       1.0  0.61773  0.30993  0.48705  1.0000
  H   H11       1.0  0.87453  0.94540  0.58046  1.0000
  H   H12       1.0  0.45650  0.44536  0.41705  1.0000
  H   H13       1.0  0.41212  0.36005  0.84763  1.0000
  H   H14       1.0  0.26108  0.86099  0.15337  1.0000
  H   H15       1.0  0.32167  0.21240  0.75615  1.0000
  H   H16       1.0  0.07777  0.71544  0.24462  1.0000
  H   H17       1.0  0.11165  0.09558  0.86847  1.0000
  H   H18       1.0  0.98034  0.59745  0.13149  1.0000
  H   H19       1.0  0.85256  0.41366  0.99282  1.0000
  H   H20       1.0  0.85015  0.91358  0.00507  1.0000
  H   H21       1.0  0.81584  0.36193  0.10607  1.0000
  H   H22       1.0  0.92362  0.86103  0.89204  1.0000
  H   H23       1.0  0.36737  0.34354  0.28662  1.0000
  H   H24       1.0  0.65265  0.84162  0.71308  1.0000
  H   H25       1.0  0.47823  0.26822  0.19832  1.0000
  H   H26       1.0  0.67678  0.76770  0.80246  1.0000
  H   H27       1.0  0.38196  0.64049  0.29181  1.0000
  H   H28       1.0  0.67566  0.14041  0.70683  1.0000
  H   H29       1.0  0.47406  0.70888  0.19077  1.0000
  H   H30       1.0  0.66404  0.20862  0.80910  1.0000
  H   H31       1.0  0.77526  0.60117  0.96083  1.0000
  H   H32       1.0  0.73414  0.09882  0.04172  1.0000
  H   H33       1.0  0.65295  0.57139  0.91345  1.0000
  H   H34       1.0  0.56500  0.06984  0.08710  1.0000
  C   C1        1.0  0.99884  0.48833  0.44086  1.0000
  C   C2        1.0  0.43656  0.98714  0.56011  1.0000
  C   C3        1.0  0.94512  0.58699  0.50111  1.0000
  C   C4        1.0  0.44261  0.08630  0.50046  1.0000
  C   C5        1.0  0.84095  0.66046  0.47641  1.0000
  C   C6        1.0  0.31450  0.15996  0.52487  1.0000
  C   C7        1.0  0.78894  0.63096  0.39610  1.0000
  C   C8        1.0  0.18339  0.13020  0.60433  1.0000
  C   C9        1.0  0.84377  0.52824  0.34300  1.0000
  C   C10       1.0  0.18541  0.02693  0.65681  1.0000
  C   C11       1.0  0.79180  0.48336  0.25907  1.0000
  C   C12       1.0  0.05060  0.98188  0.74000  1.0000
  C   C13       1.0  0.11698  0.40528  0.45595  1.0000
  C   C14       1.0  0.56942  0.90421  0.54559  1.0000
  C   C15       1.0  0.20021  0.02138  0.33142  1.0000
  C   C16       1.0  0.53196  0.52054  0.66894  1.0000
  C   C17       1.0  0.21335  0.91832  0.38151  1.0000
  C   C18       1.0  0.59627  0.41815  0.61837  1.0000
  C   C19       1.0  0.09407  0.88865  0.47076  1.0000
  C   C20       1.0  0.56671  0.38872  0.52803  1.0000
  C   C21       1.0  0.96768  0.96341  0.50917  1.0000
  C   C22       1.0  0.47808  0.46317  0.48914  1.0000
  C   C23       1.0  0.96297  0.06415  0.45399  1.0000
  C   C24       1.0  0.41710  0.56323  0.54489  1.0000
  C   C25       1.0  0.83562  0.15351  0.48630  1.0000
  C   C26       1.0  0.32095  0.65206  0.51231  1.0000
  C   C27       1.0  0.32159  0.06676  0.23718  1.0000
  C   C28       1.0  0.55873  0.56586  0.76411  1.0000
  C   C29       1.0  0.25121  0.32373  0.00020  1.0000
  C   C30       1.0  0.25302  0.82299  0.00004  1.0000
  C   C31       1.0  0.31967  0.30925  0.89084  1.0000
  C   C32       1.0  0.21174  0.80994  0.10973  1.0000
  C   C33       1.0  0.26929  0.22693  0.84129  1.0000
  C   C34       1.0  0.11106  0.72874  0.15918  1.0000
  C   C35       1.0  0.15402  0.16178  0.90245  1.0000
  C   C36       1.0  0.05701  0.66297  0.09760  1.0000
  C   C37       1.0  0.09324  0.18073  0.01170  1.0000
  C   C38       1.0  0.10583  0.68046  0.98808  1.0000
  C   C39       1.0  0.97431  0.11300  0.08874  1.0000
  C   C40       1.0  0.06358  0.61216  0.91069  1.0000
  C   C41       1.0  0.30025  0.40164  0.06635  1.0000
  C   C42       1.0  0.36825  0.89989  0.93397  1.0000
  N   N1        1.0  0.94904  0.46075  0.36380  1.0000
  N   N2        1.0  0.31074  0.95920  0.63628  1.0000
  N   N3        1.0  0.07591  0.09066  0.36661  1.0000
  N   N4        1.0  0.44219  0.58941  0.63327  1.0000
  N   N5        1.0  0.14071  0.26093  0.05812  1.0000
  N   N6        1.0  0.20016  0.75976  0.94177  1.0000
  O   O1        1.0  0.17023  0.32924  0.37966  1.0000
  O   O2        1.0  0.54708  0.82740  0.62129  1.0000
  O   O3        1.0  0.15646  0.41107  0.53378  1.0000
  O   O4        1.0  0.68611  0.91096  0.46891  1.0000
  O   O5        1.0  0.85701  0.38752  0.21751  1.0000
  O   O6        1.0  0.07459  0.88558  0.78116  1.0000
  O   O7        1.0  0.69218  0.54022  0.23487  1.0000
  O   O8        1.0  0.92751  0.03895  0.76415  1.0000
  O   O9        1.0  0.28565  0.16409  0.20241  1.0000
  O   O10       1.0  0.48752  0.66274  0.79888  1.0000
  O   O11       1.0  0.44538  0.01250  0.20006  1.0000
  O   O12       1.0  0.64589  0.51204  0.80187  1.0000
  O   O13       1.0  0.84705  0.23356  0.41669  1.0000
  O   O14       1.0  0.26211  0.73137  0.58234  1.0000
  O   O15       1.0  0.73122  0.14935  0.57326  1.0000
  O   O16       1.0  0.30310  0.64811  0.42478  1.0000
  O   O17       1.0  0.21626  0.41079  0.16420  1.0000
  O   O18       1.0  0.38031  0.90915  0.83601  1.0000
  O   O19       1.0  0.42133  0.44766  0.02367  1.0000
  O   O20       1.0  0.44831  0.94505  0.97659  1.0000
  O   O21       1.0  0.94990  0.13402  0.18728  1.0000
  O   O22       1.0  0.13771  0.63207  0.81223  1.0000
  O   O23       1.0  0.90874  0.04392  0.05456  1.0000
  O   O24       1.0  0.96385  0.54368  0.94454  1.0000
  O   O25       1.0  0.78127  0.36569  0.04393  1.0000
  O   O26       1.0  0.82850  0.86521  0.95434  1.0000
  O   O27       1.0  0.47389  0.33576  0.24039  1.0000
  O   O28       1.0  0.71365  0.83477  0.75966  1.0000
  O   O29       1.0  0.41326  0.64400  0.21280  1.0000
  O   O30       1.0  0.62703  0.14341  0.78568  1.0000
  O   O31       1.0  0.66630  0.60664  0.97671  1.0000
  O   O32       1.0  0.64171  0.10448  0.02448  1.0000
