data_image0
_chemical_formula_structural       MnH28C24N14
_chemical_formula_sum              "Mn1 H28 C24 N14"
_cell_length_a       7.42245
_cell_length_b       10.0949
_cell_length_c       10.1584
_cell_angle_alpha    109.923
_cell_angle_beta     103.079
_cell_angle_gamma    108.648

_space_group_name_H-M_alt    "P 1"
_space_group_IT_number       1

loop_
  _space_group_symop_operation_xyz
  'x, y, z'

loop_
  _atom_site_type_symbol
  _atom_site_label
  _atom_site_symmetry_multiplicity
  _atom_site_fract_x
  _atom_site_fract_y
  _atom_site_fract_z
  _atom_site_occupancy
  Mn  Mn1       1.0  0.00000  0.50000  0.50000  1.0000
  H   H1        1.0  0.08220  0.67326  0.04620  1.0000
  H   H2        1.0  0.91780  0.32674  0.95380  1.0000
  H   H3        1.0  0.27723  0.61824  0.01094  1.0000
  H   H4        1.0  0.72277  0.38176  0.98906  1.0000
  H   H5        1.0  0.37655  0.88326  0.03917  1.0000
  H   H6        1.0  0.62345  0.11674  0.96082  1.0000
  H   H7        1.0  0.54609  0.89007  0.19559  1.0000
  H   H8        1.0  0.45391  0.10993  0.80440  1.0000
  H   H9        1.0  0.31125  0.95678  0.33965  1.0000
  H   H10       1.0  0.68875  0.04322  0.66034  1.0000
  H   H11       1.0  0.46871  0.10420  0.30626  1.0000
  H   H12       1.0  0.53129  0.89580  0.69374  1.0000
  H   H13       1.0  0.18745  0.05742  0.09447  1.0000
  H   H14       1.0  0.81255  0.94258  0.90553  1.0000
  H   H15       1.0  0.02313  0.88095  0.08982  1.0000
  H   H16       1.0  0.97687  0.11905  0.91018  1.0000
  H   H17       1.0  0.95784  0.59970  0.22063  1.0000
  H   H18       1.0  0.04216  0.40030  0.77937  1.0000
  H   H19       1.0  0.47624  0.60558  0.50614  1.0000
  H   H20       1.0  0.52377  0.39442  0.49386  1.0000
  H   H21       1.0  0.57915  0.69313  0.29109  1.0000
  H   H22       1.0  0.42084  0.30687  0.70891  1.0000
  H   H23       1.0  0.17857  0.30634  0.25573  1.0000
  H   H24       1.0  0.82143  0.69366  0.74427  1.0000
  H   H25       1.0  0.83665  0.15186  0.49799  1.0000
  H   H26       1.0  0.16336  0.84814  0.50201  1.0000
  H   H27       1.0  0.91453  0.91096  0.32586  1.0000
  H   H28       1.0  0.08547  0.08904  0.67414  1.0000
  C   C1        1.0  0.24435  0.69882  0.09544  1.0000
  C   C2        1.0  0.75565  0.30118  0.90456  1.0000
  C   C3        1.0  0.38660  0.86872  0.14290  1.0000
  C   C4        1.0  0.61340  0.13128  0.85710  1.0000
  C   C5        1.0  0.33726  0.98840  0.24965  1.0000
  C   C6        1.0  0.66274  0.01160  0.75034  1.0000
  C   C7        1.0  0.14817  0.99841  0.16374  1.0000
  C   C8        1.0  0.85183  0.00159  0.83626  1.0000
  C   C9        1.0  0.11051  0.61001  0.27064  1.0000
  C   C10       1.0  0.88949  0.38999  0.72936  1.0000
  C   C11       1.0  0.38384  0.61752  0.41578  1.0000
  C   C12       1.0  0.61616  0.38249  0.58422  1.0000
  C   C13       1.0  0.43843  0.66433  0.31275  1.0000
  C   C14       1.0  0.56158  0.33567  0.68725  1.0000
  C   C15       1.0  0.09502  0.23503  0.30044  1.0000
  C   C16       1.0  0.90498  0.76497  0.69957  1.0000
  C   C17       1.0  0.92114  0.14985  0.42399  1.0000
  C   C18       1.0  0.07886  0.85015  0.57601  1.0000
  C   C19       1.0  0.95888  0.02986  0.34060  1.0000
  C   C20       1.0  0.04112  0.97014  0.65940  1.0000
  C   C21       1.0  0.40009  0.62542  0.77621  1.0000
  C   C22       1.0  0.59991  0.37458  0.22379  1.0000
  C   C23       1.0  0.65022  0.66514  0.99208  1.0000
  C   C24       1.0  0.34978  0.33486  0.00792  1.0000
  N   N1        1.0  0.26415  0.66000  0.22278  1.0000
  N   N2        1.0  0.73585  0.34000  0.77722  1.0000
  N   N3        1.0  0.17853  0.58297  0.38819  1.0000
  N   N4        1.0  0.82147  0.41704  0.61181  1.0000
  N   N5        1.0  0.06839  0.08518  0.26286  1.0000
  N   N6        1.0  0.93161  0.91482  0.73714  1.0000
  N   N7        1.0  0.00694  0.27756  0.39847  1.0000
  N   N8        1.0  0.99306  0.72244  0.60153  1.0000
  N   N9        1.0  0.58011  0.69732  0.88407  1.0000
  N   N10       1.0  0.41989  0.30268  0.11593  1.0000
  N   N11       1.0  0.24819  0.57748  0.67120  1.0000
  N   N12       1.0  0.75181  0.42252  0.32881  1.0000
  N   N13       1.0  0.73706  0.65367  0.09809  1.0000
  N   N14       1.0  0.26294  0.34633  0.90191  1.0000
