data_image0
_chemical_formula_structural       Li4H32C36N4O16
_chemical_formula_sum              "Li4 H32 C36 N4 O16"
_cell_length_a       4.86917
_cell_length_b       11.5487
_cell_length_c       15.2281
_cell_angle_alpha    89.9998
_cell_angle_beta     89.9996
_cell_angle_gamma    89.9995

_space_group_name_H-M_alt    "P 1"
_space_group_IT_number       1

loop_
  _space_group_symop_operation_xyz
  'x, y, z'

loop_
  _atom_site_type_symbol
  _atom_site_label
  _atom_site_symmetry_multiplicity
  _atom_site_fract_x
  _atom_site_fract_y
  _atom_site_fract_z
  _atom_site_occupancy
  Li  Li1       1.0  0.13741  0.34114  0.01701  1.0000
  Li  Li2       1.0  0.63742  0.15886  0.98299  1.0000
  Li  Li3       1.0  0.86258  0.84114  0.48299  1.0000
  Li  Li4       1.0  0.36259  0.65885  0.51700  1.0000
  H   H1        1.0  0.13441  0.66980  0.96780  1.0000
  H   H2        1.0  0.63441  0.83020  0.03221  1.0000
  H   H3        1.0  0.86559  0.16980  0.53220  1.0000
  H   H4        1.0  0.36558  0.33018  0.46779  1.0000
  H   H5        1.0  0.11881  0.88160  0.93515  1.0000
  H   H6        1.0  0.61883  0.61840  0.06486  1.0000
  H   H7        1.0  0.88119  0.38160  0.56485  1.0000
  H   H8        1.0  0.38115  0.11838  0.43513  1.0000
  H   H9        1.0  0.44994  0.96476  0.82756  1.0000
  H   H10       1.0  0.94995  0.53525  0.17245  1.0000
  H   H11       1.0  0.55008  0.46475  0.67245  1.0000
  H   H12       1.0  0.05003  0.03524  0.32754  1.0000
  H   H13       1.0  0.78139  0.83801  0.75159  1.0000
  H   H14       1.0  0.28141  0.66200  0.24842  1.0000
  H   H15       1.0  0.21862  0.33801  0.74842  1.0000
  H   H16       1.0  0.71858  0.16200  0.25158  1.0000
  H   H17       1.0  0.16467  0.58529  0.69994  1.0000
  H   H18       1.0  0.66468  0.91472  0.30006  1.0000
  H   H19       1.0  0.83534  0.08528  0.80006  1.0000
  H   H20       1.0  0.33533  0.41472  0.19994  1.0000
  H   H21       1.0  0.12337  0.72965  0.73451  1.0000
  H   H22       1.0  0.62339  0.77035  0.26549  1.0000
  H   H23       1.0  0.87664  0.22964  0.76549  1.0000
  H   H24       1.0  0.37660  0.27036  0.23451  1.0000
  H   H25       1.0  0.66506  0.35538  0.90304  1.0000
  H   H26       1.0  0.16507  0.14462  0.09697  1.0000
  H   H27       1.0  0.33493  0.85538  0.59696  1.0000
  H   H28       1.0  0.83492  0.64461  0.40304  1.0000
  H   H29       1.0  0.81619  0.47154  0.84698  1.0000
  H   H30       1.0  0.31621  0.02846  0.15302  1.0000
  H   H31       1.0  0.18382  0.97154  0.65302  1.0000
  H   H32       1.0  0.68377  0.52846  0.34698  1.0000
  C   C1        1.0  0.65153  0.68209  0.81846  1.0000
  C   C2        1.0  0.15155  0.81792  0.18154  1.0000
  C   C3        1.0  0.34847  0.18208  0.68155  1.0000
  C   C4        1.0  0.84843  0.31791  0.31846  1.0000
  C   C5        1.0  0.46671  0.63415  0.88060  1.0000
  C   C6        1.0  0.96672  0.86586  0.11941  1.0000
  C   C7        1.0  0.53329  0.13414  0.61940  1.0000
  C   C8        1.0  0.03327  0.36585  0.38059  1.0000
  C   C9        1.0  0.45437  0.50978  0.90778  1.0000
  C   C10       1.0  0.95439  0.99023  0.09222  1.0000
  C   C11       1.0  0.54563  0.00977  0.59221  1.0000
  C   C12       1.0  0.04560  0.49022  0.40778  1.0000
  C   C13       1.0  0.27652  0.70839  0.92097  1.0000
  C   C14       1.0  0.77653  0.79161  0.07904  1.0000
  C   C15       1.0  0.72348  0.20838  0.57903  1.0000
  C   C16       1.0  0.22346  0.29160  0.42096  1.0000
  C   C17       1.0  0.26836  0.82622  0.90263  1.0000
  C   C18       1.0  0.76837  0.67379  0.09737  1.0000
  C   C19       1.0  0.73164  0.32621  0.59737  1.0000
  C   C20       1.0  0.23162  0.17378  0.40262  1.0000
  C   C21       1.0  0.45374  0.87233  0.84201  1.0000
  C   C22       1.0  0.95375  0.62768  0.15800  1.0000
  C   C23       1.0  0.54628  0.37232  0.65799  1.0000
  C   C24       1.0  0.04623  0.12767  0.34200  1.0000
  C   C25       1.0  0.64231  0.80077  0.79976  1.0000
  C   C26       1.0  0.14232  0.69923  0.20024  1.0000
  C   C27       1.0  0.35770  0.30077  0.70024  1.0000
  C   C28       1.0  0.85767  0.19922  0.29976  1.0000
  C   C29       1.0  0.01063  0.65300  0.71145  1.0000
  C   C30       1.0  0.51064  0.84700  0.28855  1.0000
  C   C31       1.0  0.98938  0.15300  0.78855  1.0000
  C   C32       1.0  0.48936  0.34700  0.21144  1.0000
  C   C33       1.0  0.86547  0.67930  0.62446  1.0000
  C   C34       1.0  0.36548  0.82071  0.37554  1.0000
  C   C35       1.0  0.13454  0.17929  0.87555  1.0000
  C   C36       1.0  0.63452  0.32071  0.12446  1.0000
  N   N1        1.0  0.65514  0.43857  0.88116  1.0000
  N   N2        1.0  0.15514  0.06144  0.11885  1.0000
  N   N3        1.0  0.34486  0.93856  0.61885  1.0000
  N   N4        1.0  0.84486  0.56143  0.38116  1.0000
  O   O1        1.0  0.25893  0.47506  0.95505  1.0000
  O   O2        1.0  0.75894  0.02495  0.04496  1.0000
  O   O3        1.0  0.74106  0.97505  0.54495  1.0000
  O   O4        1.0  0.24105  0.52494  0.45504  1.0000
  O   O5        1.0  0.83388  0.60867  0.77842  1.0000
  O   O6        1.0  0.33390  0.89133  0.22157  1.0000
  O   O7        1.0  0.16613  0.10867  0.72157  1.0000
  O   O8        1.0  0.66611  0.39133  0.27843  1.0000
  O   O9        1.0  0.61723  0.65288  0.61497  1.0000
  O   O10       1.0  0.11722  0.84713  0.38503  1.0000
  O   O11       1.0  0.38280  0.15288  0.88503  1.0000
  O   O12       1.0  0.88277  0.34712  0.11497  1.0000
  O   O13       1.0  0.01876  0.72739  0.56647  1.0000
  O   O14       1.0  0.51875  0.77262  0.43353  1.0000
  O   O15       1.0  0.98127  0.22738  0.93353  1.0000
  O   O16       1.0  0.48124  0.27262  0.06647  1.0000
