data_image0
_chemical_formula_structural       Cd2H56C64N8O8
_chemical_formula_sum              "Cd2 H56 C64 N8 O8"
_cell_length_a       10.8938
_cell_length_b       11.1554
_cell_length_c       13.511
_cell_angle_alpha    84.1899
_cell_angle_beta     78.0344
_cell_angle_gamma    60.7727

_space_group_name_H-M_alt    "P 1"
_space_group_IT_number       1

loop_
  _space_group_symop_operation_xyz
  'x, y, z'

loop_
  _atom_site_type_symbol
  _atom_site_label
  _atom_site_symmetry_multiplicity
  _atom_site_fract_x
  _atom_site_fract_y
  _atom_site_fract_z
  _atom_site_occupancy
  Cd  Cd1       1.0  0.77794  0.44415  0.24995  1.0000
  Cd  Cd2       1.0  0.22206  0.55585  0.75005  1.0000
  H   H1        1.0  0.70389  0.39974  0.50076  1.0000
  H   H2        1.0  0.89626  0.40002  0.99904  1.0000
  H   H3        1.0  0.29611  0.60026  0.49924  1.0000
  H   H4        1.0  0.10374  0.59998  0.00097  1.0000
  H   H5        1.0  0.73642  0.45332  0.66726  1.0000
  H   H6        1.0  0.80991  0.45364  0.83263  1.0000
  H   H7        1.0  0.26359  0.54668  0.33274  1.0000
  H   H8        1.0  0.19009  0.54636  0.16737  1.0000
  H   H9        1.0  0.82971  0.62133  0.66805  1.0000
  H   H10       1.0  0.54851  0.62162  0.83201  1.0000
  H   H11       1.0  0.17030  0.37867  0.33194  1.0000
  H   H12       1.0  0.45148  0.37838  0.16799  1.0000
  H   H13       1.0  0.90795  0.78026  0.57296  1.0000
  H   H14       1.0  0.31149  0.78034  0.92723  1.0000
  H   H15       1.0  0.09205  0.21974  0.42704  1.0000
  H   H16       1.0  0.68851  0.21965  0.07277  1.0000
  H   H17       1.0  0.94644  0.89470  0.40975  1.0000
  H   H18       1.0  0.15866  0.89459  0.09053  1.0000
  H   H19       1.0  0.05356  0.10530  0.59025  1.0000
  H   H20       1.0  0.84134  0.10540  0.90947  1.0000
  H   H21       1.0  0.94421  0.92267  0.22278  1.0000
  H   H22       1.0  0.13315  0.92254  0.27749  1.0000
  H   H23       1.0  0.05579  0.07733  0.77722  1.0000
  H   H24       1.0  0.86685  0.07746  0.72251  1.0000
  H   H25       1.0  0.92118  0.83746  0.06535  1.0000
  H   H26       1.0  0.24173  0.83747  0.43480  1.0000
  H   H27       1.0  0.07882  0.16254  0.93464  1.0000
  H   H28       1.0  0.75827  0.16253  0.56521  1.0000
  H   H29       1.0  0.85985  0.64801  0.08044  1.0000
  H   H30       1.0  0.49261  0.64821  0.41954  1.0000
  H   H31       1.0  0.14016  0.35199  0.91956  1.0000
  H   H32       1.0  0.50739  0.35180  0.58047  1.0000
  H   H33       1.0  0.28889  0.21512  0.20955  1.0000
  H   H34       1.0  0.49558  0.21533  0.29050  1.0000
  H   H35       1.0  0.71110  0.78488  0.79045  1.0000
  H   H36       1.0  0.50443  0.78467  0.70950  1.0000
  H   H37       1.0  0.25618  0.07481  0.22684  1.0000
  H   H38       1.0  0.66865  0.07508  0.27300  1.0000
  H   H39       1.0  0.74381  0.92519  0.77316  1.0000
  H   H40       1.0  0.33136  0.92492  0.72700  1.0000
  H   H41       1.0  0.29432  0.21725  0.02463  1.0000
  H   H42       1.0  0.48851  0.21719  0.47540  1.0000
  H   H43       1.0  0.70568  0.78275  0.97537  1.0000
  H   H44       1.0  0.51149  0.78281  0.52460  1.0000
  H   H45       1.0  0.25219  0.08257  0.03756  1.0000
  H   H46       1.0  0.66533  0.08250  0.46218  1.0000
  H   H47       1.0  0.74781  0.91743  0.96244  1.0000
  H   H48       1.0  0.33468  0.91750  0.53782  1.0000
  H   H49       1.0  0.48161  0.92687  0.10006  1.0000
  H   H50       1.0  0.59134  0.92693  0.39988  1.0000
  H   H51       1.0  0.51839  0.07312  0.89994  1.0000
  H   H52       1.0  0.40866  0.07307  0.60012  1.0000
  H   H53       1.0  0.52535  0.06099  0.08584  1.0000
  H   H54       1.0  0.41348  0.06106  0.41426  1.0000
  H   H55       1.0  0.47464  0.93901  0.91415  1.0000
  H   H56       1.0  0.58653  0.93894  0.58574  1.0000
  C   C1        1.0  0.74327  0.47143  0.50564  1.0000
  C   C2        1.0  0.78517  0.47169  0.99423  1.0000
  C   C3        1.0  0.25673  0.52857  0.49436  1.0000
  C   C4        1.0  0.21483  0.52831  0.00577  1.0000
  C   C5        1.0  0.76150  0.50282  0.59818  1.0000
  C   C6        1.0  0.73543  0.50308  0.90175  1.0000
  C   C7        1.0  0.23850  0.49718  0.40182  1.0000
  C   C8        1.0  0.26457  0.49692  0.09825  1.0000
  C   C9        1.0  0.81145  0.59506  0.59880  1.0000
  C   C10       1.0  0.59322  0.59529  0.90121  1.0000
  C   C11       1.0  0.18855  0.40494  0.40120  1.0000
  C   C12       1.0  0.40679  0.40470  0.09879  1.0000
  C   C13       1.0  0.84125  0.65701  0.50697  1.0000
  C   C14       1.0  0.50155  0.65715  0.99310  1.0000
  C   C15       1.0  0.15875  0.34299  0.49303  1.0000
  C   C16       1.0  0.49845  0.34284  0.00690  1.0000
  C   C17       1.0  0.88918  0.75653  0.50271  1.0000
  C   C18       1.0  0.35406  0.75660  0.99747  1.0000
  C   C19       1.0  0.11083  0.24348  0.49729  1.0000
  C   C20       1.0  0.64594  0.24340  0.00254  1.0000
  C   C21       1.0  0.91237  0.81703  0.41285  1.0000
  C   C22       1.0  0.27043  0.81699  0.08738  1.0000
  C   C23       1.0  0.08763  0.18297  0.58715  1.0000
  C   C24       1.0  0.72957  0.18300  0.91262  1.0000
  C   C25       1.0  0.89479  0.77951  0.32055  1.0000
  C   C26       1.0  0.32569  0.77947  0.17961  1.0000
  C   C27       1.0  0.10520  0.22050  0.67945  1.0000
  C   C28       1.0  0.67431  0.22052  0.82040  1.0000
  C   C29       1.0  0.91728  0.83993  0.22613  1.0000
  C   C30       1.0  0.24286  0.83986  0.27405  1.0000
  C   C31       1.0  0.08271  0.16007  0.77387  1.0000
  C   C32       1.0  0.75714  0.16014  0.72595  1.0000
  C   C33       1.0  0.90346  0.79469  0.13970  1.0000
  C   C34       1.0  0.30210  0.79473  0.36043  1.0000
  C   C35       1.0  0.09654  0.20532  0.86030  1.0000
  C   C36       1.0  0.69790  0.20528  0.63958  1.0000
  C   C37       1.0  0.86701  0.68867  0.14786  1.0000
  C   C38       1.0  0.44464  0.68881  0.35216  1.0000
  C   C39       1.0  0.13299  0.31134  0.85214  1.0000
  C   C40       1.0  0.55536  0.31119  0.64785  1.0000
  C   C41       1.0  0.85281  0.67671  0.32156  1.0000
  C   C42       1.0  0.47052  0.67680  0.17849  1.0000
  C   C43       1.0  0.14719  0.32330  0.67844  1.0000
  C   C44       1.0  0.52947  0.32320  0.82151  1.0000
  C   C45       1.0  0.82109  0.61753  0.41727  1.0000
  C   C46       1.0  0.56132  0.61768  0.08275  1.0000
  C   C47       1.0  0.17891  0.38247  0.58273  1.0000
  C   C48       1.0  0.43868  0.38232  0.91726  1.0000
  C   C49       1.0  0.07794  0.26448  0.19380  1.0000
  C   C50       1.0  0.65721  0.26470  0.30618  1.0000
  C   C51       1.0  0.92205  0.73552  0.80620  1.0000
  C   C52       1.0  0.34280  0.73530  0.69382  1.0000
  C   C53       1.0  0.23841  0.16551  0.17874  1.0000
  C   C54       1.0  0.59576  0.16570  0.32120  1.0000
  C   C55       1.0  0.76159  0.83449  0.82126  1.0000
  C   C56       1.0  0.40424  0.83429  0.67880  1.0000
  C   C57       1.0  0.30872  0.12460  0.06916  1.0000
  C   C58       1.0  0.56664  0.12460  0.43076  1.0000
  C   C59       1.0  0.69128  0.87539  0.93084  1.0000
  C   C60       1.0  0.43337  0.87539  0.56923  1.0000
  C   C61       1.0  0.46690  0.01983  0.05532  1.0000
  C   C62       1.0  0.51317  0.01986  0.44467  1.0000
  C   C63       1.0  0.53310  0.98017  0.94468  1.0000
  C   C64       1.0  0.48683  0.98013  0.55533  1.0000
  N   N1        1.0  0.77278  0.52619  0.41810  1.0000
  N   N2        1.0  0.70100  0.52638  0.08181  1.0000
  N   N3        1.0  0.22722  0.47382  0.58190  1.0000
  N   N4        1.0  0.29900  0.47361  0.91820  1.0000
  N   N5        1.0  0.84098  0.63270  0.23579  1.0000
  N   N6        1.0  0.52653  0.63287  0.26420  1.0000
  N   N7        1.0  0.15901  0.36730  0.76421  1.0000
  N   N8        1.0  0.47347  0.36713  0.73581  1.0000
  O   O1        1.0  0.02254  0.33109  0.11895  1.0000
  O   O2        1.0  0.64619  0.33111  0.38107  1.0000
  O   O3        1.0  0.97746  0.66891  0.88104  1.0000
  O   O4        1.0  0.35382  0.66889  0.61893  1.0000
  O   O5        1.0  0.00639  0.27637  0.28397  1.0000
  O   O6        1.0  0.71667  0.27681  0.21600  1.0000
  O   O7        1.0  0.99360  0.72362  0.71602  1.0000
  O   O8        1.0  0.28333  0.72319  0.78400  1.0000
