data_image0
_chemical_formula_structural       Hg2H44C40I4N6O4
_chemical_formula_sum              "Hg2 H44 C40 I4 N6 O4"
_cell_length_a       7.98908
_cell_length_b       9.64089
_cell_length_c       15.6256
_cell_angle_alpha    87.045
_cell_angle_beta     86.9949
_cell_angle_gamma    68.7148

_space_group_name_H-M_alt    "P 1"
_space_group_IT_number       1

loop_
  _space_group_symop_operation_xyz
  'x, y, z'

loop_
  _atom_site_type_symbol
  _atom_site_label
  _atom_site_symmetry_multiplicity
  _atom_site_fract_x
  _atom_site_fract_y
  _atom_site_fract_z
  _atom_site_occupancy
  Hg  Hg1       1.0  0.88773  0.03683  0.73631  1.0000
  Hg  Hg2       1.0  0.11226  0.96317  0.26369  1.0000
  H   H1        1.0  0.19190  0.72012  0.77393  1.0000
  H   H2        1.0  0.80811  0.27988  0.22607  1.0000
  H   H3        1.0  0.32036  0.51959  0.88367  1.0000
  H   H4        1.0  0.67965  0.48042  0.11633  1.0000
  H   H5        1.0  0.94027  0.79648  0.06859  1.0000
  H   H6        1.0  0.05973  0.20352  0.93141  1.0000
  H   H7        1.0  0.82130  0.98565  0.94783  1.0000
  H   H8        1.0  0.17870  0.01435  0.05216  1.0000
  H   H9        1.0  0.13124  0.55748  0.11766  1.0000
  H   H10       1.0  0.86876  0.44253  0.88234  1.0000
  H   H11       1.0  0.39345  0.36267  0.98143  1.0000
  H   H12       1.0  0.60656  0.63733  0.01857  1.0000
  H   H13       1.0  0.56777  0.12539  0.01613  1.0000
  H   H14       1.0  0.43221  0.87460  0.98387  1.0000
  H   H15       1.0  0.69829  0.91516  0.12059  1.0000
  H   H16       1.0  0.30168  0.08482  0.87941  1.0000
  H   H17       1.0  0.37854  0.18406  0.32405  1.0000
  H   H18       1.0  0.62148  0.81594  0.67595  1.0000
  H   H19       1.0  0.25301  0.39437  0.22097  1.0000
  H   H20       1.0  0.74702  0.60564  0.77903  1.0000
  H   H21       1.0  0.74516  0.88377  0.48651  1.0000
  H   H22       1.0  0.25485  0.11621  0.51350  1.0000
  H   H23       1.0  0.76348  0.70889  0.53673  1.0000
  H   H24       1.0  0.23652  0.29109  0.46327  1.0000
  H   H25       1.0  0.54907  0.85384  0.52807  1.0000
  H   H26       1.0  0.45093  0.14614  0.47194  1.0000
  H   H27       1.0  0.42810  0.69156  0.46871  1.0000
  H   H28       1.0  0.57190  0.30844  0.53129  1.0000
  H   H29       1.0  0.63462  0.53623  0.46347  1.0000
  H   H30       1.0  0.36537  0.46377  0.53652  1.0000
  H   H31       1.0  0.50681  0.60264  0.36968  1.0000
  H   H32       1.0  0.49318  0.39737  0.63032  1.0000
  H   H33       1.0  0.10923  0.62505  0.34346  1.0000
  H   H34       1.0  0.89077  0.37497  0.65654  1.0000
  H   H35       1.0  0.02603  0.56189  0.43972  1.0000
  H   H36       1.0  0.97399  0.43813  0.56028  1.0000
  H   H37       1.0  0.99962  0.75321  0.42483  1.0000
  H   H38       1.0  0.00038  0.24681  0.57516  1.0000
  H   H39       1.0  0.94833  0.51952  0.25441  1.0000
  H   H40       1.0  0.05168  0.48048  0.74560  1.0000
  H   H41       1.0  0.71384  0.55850  0.26851  1.0000
  H   H42       1.0  0.28617  0.44150  0.73149  1.0000
  H   H43       1.0  0.86478  0.44420  0.34617  1.0000
  H   H44       1.0  0.13524  0.55580  0.65384  1.0000
  C   C1        1.0  0.13776  0.73087  0.83994  1.0000
  C   C2        1.0  0.86225  0.26914  0.16006  1.0000
  C   C3        1.0  0.20853  0.61972  0.90191  1.0000
  C   C4        1.0  0.79148  0.38027  0.09809  1.0000
  C   C5        1.0  0.13618  0.63849  0.98647  1.0000
  C   C6        1.0  0.86382  0.36151  0.01353  1.0000
  C   C7        1.0  0.99610  0.77460  0.00337  1.0000
  C   C8        1.0  0.00390  0.22541  0.99663  1.0000
  C   C9        1.0  0.93131  0.87978  0.93724  1.0000
  C   C10       1.0  0.06869  0.12022  0.06276  1.0000
  C   C11       1.0  0.19871  0.52627  0.05516  1.0000
  C   C12       1.0  0.80130  0.47371  0.94483  1.0000
  C   C13       1.0  0.32996  0.39133  0.04512  1.0000
  C   C14       1.0  0.67003  0.60868  0.95489  1.0000
  C   C15       1.0  0.40002  0.27451  0.11035  1.0000
  C   C16       1.0  0.59998  0.72549  0.88965  1.0000
  C   C17       1.0  0.52766  0.13759  0.08403  1.0000
  C   C18       1.0  0.47233  0.86240  0.91597  1.0000
  C   C19       1.0  0.60127  0.02014  0.14213  1.0000
  C   C20       1.0  0.39871  0.97985  0.85786  1.0000
  C   C21       1.0  0.54866  0.03510  0.22955  1.0000
  C   C22       1.0  0.45133  0.96490  0.77045  1.0000
  C   C23       1.0  0.42076  0.17147  0.25672  1.0000
  C   C24       1.0  0.57925  0.82854  0.74327  1.0000
  C   C25       1.0  0.34912  0.28914  0.19819  1.0000
  C   C26       1.0  0.65091  0.71085  0.80181  1.0000
  C   C27       1.0  0.62348  0.90959  0.28960  1.0000
  C   C28       1.0  0.37651  0.09042  0.71039  1.0000
  C   C29       1.0  0.65000  0.74230  0.41051  1.0000
  C   C30       1.0  0.35000  0.25770  0.58949  1.0000
  C   C31       1.0  0.82228  0.68054  0.35019  1.0000
  C   C32       1.0  0.17772  0.31946  0.64981  1.0000
  C   C33       1.0  0.68045  0.80121  0.49548  1.0000
  C   C34       1.0  0.31955  0.19877  0.50452  1.0000
  C   C35       1.0  0.54850  0.63615  0.42852  1.0000
  C   C36       1.0  0.45149  0.36386  0.57148  1.0000
  C   C37       1.0  0.99972  0.65498  0.39250  1.0000
  C   C38       1.0  0.00027  0.34504  0.60750  1.0000
  C   C39       1.0  0.83701  0.54184  0.30221  1.0000
  C   C40       1.0  0.16299  0.45816  0.69780  1.0000
  I   I1        1.0  0.63158  0.26272  0.81968  1.0000
  I   I2        1.0  0.36841  0.73728  0.18032  1.0000
  I   I3        1.0  0.11533  0.88213  0.61043  1.0000
  I   I4        1.0  0.88465  0.11786  0.38956  1.0000
  N   N1        1.0  0.53439  0.87548  0.35896  1.0000
  N   N2        1.0  0.46560  0.12452  0.64105  1.0000
  N   N3        1.0  0.78996  0.80439  0.28313  1.0000
  N   N4        1.0  0.21003  0.19561  0.71687  1.0000
  N   N5        1.0  0.99982  0.85805  0.85658  1.0000
  N   N6        1.0  0.00018  0.14195  0.14343  1.0000
  O   O1        1.0  0.36982  0.94591  0.38147  1.0000
  O   O2        1.0  0.63018  0.05410  0.61853  1.0000
  O   O3        1.0  0.91253  0.80074  0.22544  1.0000
  O   O4        1.0  0.08745  0.19926  0.77455  1.0000
