data_image0
_chemical_formula_structural       Ho4H56C60O28
_chemical_formula_sum              "Ho4 H56 C60 O28"
_cell_length_a       7.51044
_cell_length_b       15.341
_cell_length_c       15.4006
_cell_angle_alpha    62.4943
_cell_angle_beta     86.989
_cell_angle_gamma    87.0267

_space_group_name_H-M_alt    "P 1"
_space_group_IT_number       1

loop_
  _space_group_symop_operation_xyz
  'x, y, z'

loop_
  _atom_site_type_symbol
  _atom_site_label
  _atom_site_symmetry_multiplicity
  _atom_site_fract_x
  _atom_site_fract_y
  _atom_site_fract_z
  _atom_site_occupancy
  Ho  Ho1       1.0  0.03368  0.28176  0.35780  1.0000
  Ho  Ho2       1.0  0.46617  0.64226  0.71794  1.0000
  Ho  Ho3       1.0  0.96632  0.71825  0.64220  1.0000
  Ho  Ho4       1.0  0.53383  0.35775  0.28206  1.0000
  H   H1        1.0  0.17030  0.13360  0.54804  1.0000
  H   H2        1.0  0.32905  0.45130  0.86577  1.0000
  H   H3        1.0  0.82970  0.86639  0.45196  1.0000
  H   H4        1.0  0.67096  0.54870  0.13423  1.0000
  H   H5        1.0  0.34391  0.16738  0.47489  1.0000
  H   H6        1.0  0.15585  0.52492  0.83209  1.0000
  H   H7        1.0  0.65609  0.83262  0.52511  1.0000
  H   H8        1.0  0.84415  0.47508  0.16791  1.0000
  H   H9        1.0  0.42842  0.17869  0.16728  1.0000
  H   H10       1.0  0.07144  0.83295  0.82163  1.0000
  H   H11       1.0  0.57157  0.82131  0.83272  1.0000
  H   H12       1.0  0.92856  0.16705  0.17837  1.0000
  H   H13       1.0  0.50631  0.10642  0.28508  1.0000
  H   H14       1.0  0.99426  0.71452  0.89373  1.0000
  H   H15       1.0  0.49369  0.89358  0.71492  1.0000
  H   H16       1.0  0.00574  0.28548  0.10626  1.0000
  H   H17       1.0  0.25346  0.11333  0.08875  1.0000
  H   H18       1.0  0.24716  0.91202  0.88624  1.0000
  H   H19       1.0  0.74654  0.88668  0.91125  1.0000
  H   H20       1.0  0.75284  0.08797  0.11376  1.0000
  H   H21       1.0  0.10182  0.97265  0.08801  1.0000
  H   H22       1.0  0.39812  0.91338  0.02622  1.0000
  H   H23       1.0  0.89818  0.02735  0.91199  1.0000
  H   H24       1.0  0.60187  0.08662  0.97379  1.0000
  H   H25       1.0  0.07666  0.81544  0.24260  1.0000
  H   H26       1.0  0.42249  0.75851  0.18327  1.0000
  H   H27       1.0  0.92334  0.18456  0.75740  1.0000
  H   H28       1.0  0.57751  0.24148  0.81673  1.0000
  H   H29       1.0  0.19046  0.80064  0.39506  1.0000
  H   H30       1.0  0.30867  0.60537  0.19837  1.0000
  H   H31       1.0  0.80954  0.19936  0.60494  1.0000
  H   H32       1.0  0.69133  0.39463  0.80163  1.0000
  H   H33       1.0  0.29291  0.00239  0.43633  1.0000
  H   H34       1.0  0.20799  0.56258  0.99820  1.0000
  H   H35       1.0  0.70710  0.99761  0.56367  1.0000
  H   H36       1.0  0.79201  0.43742  0.00180  1.0000
  H   H37       1.0  0.50249  0.95561  0.41552  1.0000
  H   H38       1.0  0.99806  0.58364  0.04441  1.0000
  H   H39       1.0  0.49751  0.04439  0.58448  1.0000
  H   H40       1.0  0.00194  0.41636  0.95559  1.0000
  H   H41       1.0  0.36742  0.44032  0.50779  1.0000
  H   H42       1.0  0.13233  0.49250  0.55951  1.0000
  H   H43       1.0  0.63259  0.55968  0.49221  1.0000
  H   H44       1.0  0.86768  0.50751  0.44048  1.0000
  H   H45       1.0  0.48625  0.33302  0.52418  1.0000
  H   H46       1.0  0.01293  0.47610  0.66631  1.0000
  H   H47       1.0  0.51376  0.66699  0.47582  1.0000
  H   H48       1.0  0.98708  0.52390  0.33369  1.0000
  H   H49       1.0  0.42315  0.17244  0.66112  1.0000
  H   H50       1.0  0.07650  0.33913  0.82658  1.0000
  H   H51       1.0  0.57685  0.82756  0.33888  1.0000
  H   H52       1.0  0.92350  0.66087  0.17342  1.0000
  H   H53       1.0  0.33830  0.07863  0.83638  1.0000
  H   H54       1.0  0.16295  0.16351  0.92072  1.0000
  H   H55       1.0  0.66170  0.92137  0.16362  1.0000
  H   H56       1.0  0.83705  0.83649  0.07927  1.0000
  C   C1        1.0  0.25719  0.17938  0.28074  1.0000
  C   C2        1.0  0.24303  0.71944  0.82040  1.0000
  C   C3        1.0  0.74281  0.82063  0.71926  1.0000
  C   C4        1.0  0.75697  0.28055  0.17960  1.0000
  C   C5        1.0  0.38535  0.12525  0.24160  1.0000
  C   C6        1.0  0.11502  0.75842  0.87472  1.0000
  C   C7        1.0  0.61465  0.87475  0.75840  1.0000
  C   C8        1.0  0.88499  0.24158  0.12528  1.0000
  C   C9        1.0  0.30579  0.03707  0.24259  1.0000
  C   C10       1.0  0.19470  0.75761  0.96250  1.0000
  C   C11       1.0  0.69421  0.96294  0.75741  1.0000
  C   C12       1.0  0.80530  0.24239  0.03751  1.0000
  C   C13       1.0  0.23924  0.04436  0.15613  1.0000
  C   C14       1.0  0.26115  0.84452  0.95506  1.0000
  C   C15       1.0  0.76076  0.95564  0.84387  1.0000
  C   C16       1.0  0.73885  0.15548  0.04494  1.0000
  C   C17       1.0  0.15485  0.96582  0.15551  1.0000
  C   C18       1.0  0.34514  0.84551  0.03323  1.0000
  C   C19       1.0  0.84515  0.03418  0.84449  1.0000
  C   C20       1.0  0.65486  0.15449  0.96678  1.0000
  C   C21       1.0  0.14001  0.87795  0.24193  1.0000
  C   C22       1.0  0.35960  0.75898  0.12098  1.0000
  C   C23       1.0  0.85999  0.12205  0.75808  1.0000
  C   C24       1.0  0.64039  0.24101  0.87902  1.0000
  C   C25       1.0  0.20651  0.86967  0.32834  1.0000
  C   C26       1.0  0.29311  0.67216  0.12942  1.0000
  C   C27       1.0  0.79348  0.13034  0.67167  1.0000
  C   C28       1.0  0.70689  0.32784  0.87058  1.0000
  C   C29       1.0  0.28810  0.94879  0.33027  1.0000
  C   C30       1.0  0.21206  0.66982  0.05068  1.0000
  C   C31       1.0  0.71190  0.05121  0.66973  1.0000
  C   C32       1.0  0.78794  0.33018  0.94932  1.0000
  C   C33       1.0  0.35825  0.94301  0.42353  1.0000
  C   C34       1.0  0.14224  0.57588  0.05700  1.0000
  C   C35       1.0  0.64175  0.05699  0.57647  1.0000
  C   C36       1.0  0.85776  0.42412  0.94300  1.0000
  C   C37       1.0  0.31815  0.84830  0.51475  1.0000
  C   C38       1.0  0.18208  0.48495  0.15192  1.0000
  C   C39       1.0  0.68184  0.15170  0.48525  1.0000
  C   C40       1.0  0.81791  0.51505  0.84808  1.0000
  C   C41       1.0  0.22734  0.34685  0.46953  1.0000
  C   C42       1.0  0.27220  0.53047  0.65298  1.0000
  C   C43       1.0  0.77267  0.65315  0.53046  1.0000
  C   C44       1.0  0.72781  0.46953  0.34702  1.0000
  C   C45       1.0  0.35382  0.36067  0.53592  1.0000
  C   C46       1.0  0.14541  0.46420  0.63889  1.0000
  C   C47       1.0  0.64618  0.63933  0.46408  1.0000
  C   C48       1.0  0.85460  0.53581  0.36111  1.0000
  C   C49       1.0  0.29846  0.30925  0.64300  1.0000
  C   C50       1.0  0.20052  0.35675  0.69023  1.0000
  C   C51       1.0  0.70154  0.69075  0.35699  1.0000
  C   C52       1.0  0.79949  0.64325  0.30976  1.0000
  C   C53       1.0  0.34516  0.20913  0.69723  1.0000
  C   C54       1.0  0.15445  0.30271  0.79017  1.0000
  C   C55       1.0  0.65484  0.79087  0.30276  1.0000
  C   C56       1.0  0.84555  0.69730  0.20983  1.0000
  C   C57       1.0  0.29824  0.15611  0.79634  1.0000
  C   C58       1.0  0.20221  0.20343  0.84336  1.0000
  C   C59       1.0  0.70176  0.84389  0.20366  1.0000
  C   C60       1.0  0.79779  0.79657  0.15663  1.0000
  O   O1        1.0  0.30971  0.25708  0.28387  1.0000
  O   O2        1.0  0.19057  0.71673  0.74277  1.0000
  O   O3        1.0  0.69029  0.74292  0.71613  1.0000
  O   O4        1.0  0.80944  0.28327  0.25723  1.0000
  O   O5        1.0  0.10086  0.15172  0.30976  1.0000
  O   O6        1.0  0.39921  0.69012  0.84793  1.0000
  O   O7        1.0  0.89913  0.84829  0.69024  1.0000
  O   O8        1.0  0.60079  0.30987  0.15207  1.0000
  O   O9        1.0  0.15572  0.82934  0.53657  1.0000
  O   O10       1.0  0.34440  0.46329  0.17107  1.0000
  O   O11       1.0  0.84428  0.17066  0.46343  1.0000
  O   O12       1.0  0.65560  0.53672  0.82893  1.0000
  O   O13       1.0  0.44835  0.79345  0.56471  1.0000
  O   O14       1.0  0.05173  0.43517  0.20690  1.0000
  O   O15       1.0  0.55165  0.20655  0.43529  1.0000
  O   O16       1.0  0.94827  0.56483  0.79310  1.0000
  O   O17       1.0  0.07061  0.31836  0.49744  1.0000
  O   O18       1.0  0.42875  0.50224  0.68146  1.0000
  O   O19       1.0  0.92939  0.68165  0.50256  1.0000
  O   O20       1.0  0.57125  0.49776  0.31854  1.0000
  O   O21       1.0  0.28474  0.36273  0.38283  1.0000
  O   O22       1.0  0.21518  0.61747  0.63739  1.0000
  O   O23       1.0  0.71527  0.63727  0.61717  1.0000
  O   O24       1.0  0.78483  0.38253  0.36261  1.0000
  O   O25       1.0  0.21508  0.14972  0.48210  1.0000
  O   O26       1.0  0.28469  0.51755  0.84964  1.0000
  O   O27       1.0  0.78492  0.85027  0.51790  1.0000
  O   O28       1.0  0.71531  0.48245  0.15036  1.0000
