data_image0
_chemical_formula_structural       Ag2H8C22S6N4O6F6
_chemical_formula_sum              "Ag2 H8 C22 S6 N4 O6 F6"
_cell_length_a       9.79495
_cell_length_b       9.83746
_cell_length_c       9.79446
_cell_angle_alpha    67.5416
_cell_angle_beta     77.6942
_cell_angle_gamma    80.1253

_space_group_name_H-M_alt    "P 1"
_space_group_IT_number       1

loop_
  _space_group_symop_operation_xyz
  'x, y, z'

loop_
  _atom_site_type_symbol
  _atom_site_label
  _atom_site_symmetry_multiplicity
  _atom_site_fract_x
  _atom_site_fract_y
  _atom_site_fract_z
  _atom_site_occupancy
  Ag  Ag1       1.0  0.38007  0.84965  0.98843  1.0000
  Ag  Ag2       1.0  0.61994  0.15035  0.01156  1.0000
  H   H1        1.0  0.52038  0.77693  0.47261  1.0000
  H   H2        1.0  0.47961  0.22307  0.52738  1.0000
  H   H3        1.0  0.67713  0.64624  0.68417  1.0000
  H   H4        1.0  0.32287  0.35376  0.31582  1.0000
  H   H5        1.0  0.82256  0.48083  0.85025  1.0000
  H   H6        1.0  0.17743  0.51916  0.14976  1.0000
  H   H7        1.0  0.00778  0.26493  0.98360  1.0000
  H   H8        1.0  0.99221  0.73507  0.01641  1.0000
  C   C1        1.0  0.55286  0.65643  0.24845  1.0000
  C   C2        1.0  0.44713  0.34356  0.75155  1.0000
  C   C3        1.0  0.62505  0.61816  0.36841  1.0000
  C   C4        1.0  0.37494  0.38183  0.63160  1.0000
  C   C5        1.0  0.59814  0.68292  0.47698  1.0000
  C   C6        1.0  0.40185  0.31707  0.52301  1.0000
  C   C7        1.0  0.68103  0.61256  0.58954  1.0000
  C   C8        1.0  0.31897  0.38744  0.41045  1.0000
  C   C9        1.0  0.77164  0.49405  0.56787  1.0000
  C   C10       1.0  0.22836  0.50595  0.43213  1.0000
  C   C11       1.0  0.86702  0.39738  0.66592  1.0000
  C   C12       1.0  0.13298  0.60262  0.33407  1.0000
  C   C13       1.0  0.88153  0.39938  0.80417  1.0000
  C   C14       1.0  0.11847  0.60061  0.19583  1.0000
  C   C15       1.0  0.98047  0.28727  0.87444  1.0000
  C   C16       1.0  0.01953  0.71273  0.12556  1.0000
  C   C17       1.0  0.04243  0.20069  0.78874  1.0000
  C   C18       1.0  0.95756  0.79931  0.21126  1.0000
  C   C19       1.0  0.14454  0.08054  0.82596  1.0000
  C   C20       1.0  0.85546  0.91947  0.17403  1.0000
  C   C21       1.0  0.72830  0.97875  0.61710  1.0000
  C   C22       1.0  0.27170  0.02125  0.38291  1.0000
  S   S1        1.0  0.75429  0.47103  0.40621  1.0000
  S   S2        1.0  0.24570  0.52896  0.59379  1.0000
  S   S3        1.0  0.97680  0.25776  0.62324  1.0000
  S   S4        1.0  0.02321  0.74225  0.37676  1.0000
  S   S5        1.0  0.74363  0.87941  0.81923  1.0000
  S   S6        1.0  0.25638  0.12059  0.18077  1.0000
  N   N1        1.0  0.48669  0.68900  0.15236  1.0000
  N   N2        1.0  0.51331  0.31099  0.84764  1.0000
  N   N3        1.0  0.23090  0.98120  0.85886  1.0000
  N   N4        1.0  0.76910  0.01880  0.14114  1.0000
  O   O1        1.0  0.62198  0.95340  0.89039  1.0000
  O   O2        1.0  0.37803  0.04660  0.10961  1.0000
  O   O3        1.0  0.87929  0.91074  0.83132  1.0000
  O   O4        1.0  0.12072  0.08928  0.16868  1.0000
  O   O5        1.0  0.72985  0.72617  0.84467  1.0000
  O   O6        1.0  0.27018  0.27383  0.15532  1.0000
  F   F1        1.0  0.83958  0.93984  0.52578  1.0000
  F   F2        1.0  0.16042  0.06017  0.47421  1.0000
  F   F3        1.0  0.60942  0.94897  0.58682  1.0000
  F   F4        1.0  0.39058  0.05102  0.41320  1.0000
  F   F5        1.0  0.71982  0.12811  0.57952  1.0000
  F   F6        1.0  0.28017  0.87190  0.42048  1.0000
