data_image0
_chemical_formula_structural       Cu2H16Pt2C28N12
_chemical_formula_sum              "Cu2 H16 Pt2 C28 N12"
_cell_length_a       6.87526
_cell_length_b       9.23933
_cell_length_c       11.5802
_cell_angle_alpha    89.3388
_cell_angle_beta     88.0585
_cell_angle_gamma    68.1573

_space_group_name_H-M_alt    "P 1"
_space_group_IT_number       1

loop_
  _space_group_symop_operation_xyz
  'x, y, z'

loop_
  _atom_site_type_symbol
  _atom_site_label
  _atom_site_symmetry_multiplicity
  _atom_site_fract_x
  _atom_site_fract_y
  _atom_site_fract_z
  _atom_site_occupancy
  Cu  Cu1       1.0  0.35911  0.28153  0.75010  1.0000
  Cu  Cu2       1.0  0.64089  0.71847  0.24990  1.0000
  H   H1        1.0  0.21164  0.85627  0.71299  1.0000
  H   H2        1.0  0.06884  0.14375  0.21294  1.0000
  H   H3        1.0  0.78837  0.14373  0.28701  1.0000
  H   H4        1.0  0.93116  0.85625  0.78706  1.0000
  H   H5        1.0  0.54093  0.83375  0.60427  1.0000
  H   H6        1.0  0.37562  0.16622  0.10429  1.0000
  H   H7        1.0  0.45909  0.16624  0.39573  1.0000
  H   H8        1.0  0.62438  0.83378  0.89571  1.0000
  H   H9        1.0  0.80562  0.56607  0.55807  1.0000
  H   H10       1.0  0.37227  0.43389  0.05806  1.0000
  H   H11       1.0  0.19439  0.43391  0.44194  1.0000
  H   H12       1.0  0.62773  0.56611  0.94194  1.0000
  H   H13       1.0  0.72690  0.33509  0.62078  1.0000
  H   H14       1.0  0.06210  0.66489  0.12061  1.0000
  H   H15       1.0  0.27310  0.66490  0.37923  1.0000
  H   H16       1.0  0.93790  0.33511  0.87939  1.0000
  Pt  Pt1       1.0  0.99999  0.00000  1.00000  1.0000
  Pt  Pt2       1.0  0.99999  1.00000  0.50000  1.0000
  C   C1        1.0  0.74404  0.16817  0.94507  1.0000
  C   C2        1.0  0.91236  0.83165  0.44496  1.0000
  C   C3        1.0  0.25595  0.83184  0.05493  1.0000
  C   C4        1.0  0.08764  0.16835  0.55504  1.0000
  C   C5        1.0  0.17574  0.07317  0.89393  1.0000
  C   C6        1.0  0.24913  0.92680  0.39399  1.0000
  C   C7        1.0  0.82424  0.92685  0.10606  1.0000
  C   C8        1.0  0.75086  0.07320  0.60601  1.0000
  C   C9        1.0  0.29083  0.60702  0.71911  1.0000
  C   C10       1.0  0.89836  0.39297  0.21896  1.0000
  C   C11       1.0  0.70917  0.39298  0.28089  1.0000
  C   C12       1.0  0.10164  0.60703  0.78104  1.0000
  C   C13       1.0  0.32650  0.74227  0.68905  1.0000
  C   C14       1.0  0.06953  0.25772  0.18896  1.0000
  C   C15       1.0  0.67350  0.25772  0.31094  1.0000
  C   C16       1.0  0.93047  0.74228  0.81104  1.0000
  C   C17       1.0  0.51127  0.72962  0.62925  1.0000
  C   C18       1.0  0.24173  0.27035  0.12923  1.0000
  C   C19       1.0  0.48874  0.27037  0.37075  1.0000
  C   C20       1.0  0.75827  0.72965  0.87076  1.0000
  C   C21       1.0  0.65813  0.58182  0.60355  1.0000
  C   C22       1.0  0.24057  0.41815  0.10353  1.0000
  C   C23       1.0  0.34188  0.41817  0.39645  1.0000
  C   C24       1.0  0.75943  0.58185  0.89647  1.0000
  C   C25       1.0  0.61420  0.45191  0.63740  1.0000
  C   C26       1.0  0.06645  0.54806  0.13729  1.0000
  C   C27       1.0  0.38580  0.54808  0.36261  1.0000
  C   C28       1.0  0.93355  0.45195  0.86271  1.0000
  N   N1        1.0  0.59341  0.26747  0.91157  1.0000
  N   N2        1.0  0.86111  0.73214  0.41163  1.0000
  N   N3        1.0  0.40658  0.73254  0.08842  1.0000
  N   N4        1.0  0.13889  0.26785  0.58836  1.0000
  N   N5        1.0  0.27209  0.12627  0.83352  1.0000
  N   N6        1.0  0.39868  0.87375  0.33352  1.0000
  N   N7        1.0  0.72791  0.87373  0.16648  1.0000
  N   N8        1.0  0.60131  0.12624  0.66648  1.0000
  N   N9        1.0  0.43436  0.46371  0.69220  1.0000
  N   N10       1.0  0.89834  0.53627  0.19202  1.0000
  N   N11       1.0  0.56564  0.53629  0.30780  1.0000
  N   N12       1.0  0.10165  0.46373  0.80798  1.0000
