data_image0
_chemical_formula_structural       Sm2H20C16S2O20
_chemical_formula_sum              "Sm2 H20 C16 S2 O20"
_cell_length_a       5.89216
_cell_length_b       7.80671
_cell_length_c       14.9671
_cell_angle_alpha    73.1774
_cell_angle_beta     84.3548
_cell_angle_gamma    74.0268

_space_group_name_H-M_alt    "P 1"
_space_group_IT_number       1

loop_
  _space_group_symop_operation_xyz
  'x, y, z'

loop_
  _atom_site_type_symbol
  _atom_site_label
  _atom_site_symmetry_multiplicity
  _atom_site_fract_x
  _atom_site_fract_y
  _atom_site_fract_z
  _atom_site_occupancy
  Sm  Sm1       1.0  0.32902  0.03888  0.81818  1.0000
  Sm  Sm2       1.0  0.67097  0.96112  0.18182  1.0000
  H   H1        1.0  0.26516  0.07174  0.59469  1.0000
  H   H2        1.0  0.73485  0.92826  0.40531  1.0000
  H   H3        1.0  0.35059  0.22024  0.42761  1.0000
  H   H4        1.0  0.64943  0.77976  0.57239  1.0000
  H   H5        1.0  0.60433  0.45820  0.38191  1.0000
  H   H6        1.0  0.39569  0.54179  0.61809  1.0000
  H   H7        1.0  0.52192  0.29832  0.54733  1.0000
  H   H8        1.0  0.47808  0.70169  0.45267  1.0000
  H   H9        1.0  0.71369  0.78702  0.95764  1.0000
  H   H10       1.0  0.28630  0.21297  0.04236  1.0000
  H   H11       1.0  0.76698  0.73162  0.86294  1.0000
  H   H12       1.0  0.23302  0.26838  0.13706  1.0000
  H   H13       1.0  0.47066  0.30054  0.90072  1.0000
  H   H14       1.0  0.52935  0.69946  0.09929  1.0000
  H   H15       1.0  0.65002  0.29905  0.81680  1.0000
  H   H16       1.0  0.34998  0.70094  0.18320  1.0000
  H   H17       1.0  0.22368  0.73832  0.76179  1.0000
  H   H18       1.0  0.77632  0.26168  0.23821  1.0000
  H   H19       1.0  0.50281  0.67770  0.74786  1.0000
  H   H20       1.0  0.49718  0.32231  0.25214  1.0000
  C   C1        1.0  0.82812  0.10287  0.68231  1.0000
  C   C2        1.0  0.17188  0.89714  0.31768  1.0000
  C   C3        1.0  0.88743  0.17960  0.58133  1.0000
  C   C4        1.0  0.11258  0.82040  0.41867  1.0000
  C   C5        1.0  0.12128  0.15628  0.54776  1.0000
  C   C6        1.0  0.87873  0.84372  0.45224  1.0000
  C   C7        1.0  0.16947  0.23968  0.45457  1.0000
  C   C8        1.0  0.83054  0.76032  0.54543  1.0000
  C   C9        1.0  0.98248  0.35107  0.39632  1.0000
  C   C10       1.0  0.01753  0.64892  0.60368  1.0000
  C   C11       1.0  0.74820  0.37185  0.42833  1.0000
  C   C12       1.0  0.25181  0.62816  0.57167  1.0000
  C   C13       1.0  0.70239  0.28361  0.52047  1.0000
  C   C14       1.0  0.29762  0.71640  0.47953  1.0000
  C   C15       1.0  0.98761  0.90822  0.99421  1.0000
  C   C16       1.0  0.01236  0.09177  0.00580  1.0000
  S   S1        1.0  0.03276  0.46780  0.27834  1.0000
  S   S2        1.0  0.96724  0.53220  0.72165  1.0000
  O   O1        1.0  0.62035  0.08104  0.70138  1.0000
  O   O2        1.0  0.37965  0.91897  0.29862  1.0000
  O   O3        1.0  0.98164  0.06930  0.74283  1.0000
  O   O4        1.0  0.01835  0.93071  0.25717  1.0000
  O   O5        1.0  0.83407  0.63400  0.25696  1.0000
  O   O6        1.0  0.16593  0.36601  0.74305  1.0000
  O   O7        1.0  0.02906  0.34135  0.22226  1.0000
  O   O8        1.0  0.97093  0.65866  0.77774  1.0000
  O   O9        1.0  0.26510  0.50850  0.27214  1.0000
  O   O10       1.0  0.73490  0.49150  0.72786  1.0000
  O   O11       1.0  0.11284  0.84333  0.93294  1.0000
  O   O12       1.0  0.88716  0.15665  0.06705  1.0000
  O   O13       1.0  0.83425  0.83783  0.04806  1.0000
  O   O14       1.0  0.16575  0.16217  0.95194  1.0000
  O   O15       1.0  0.63690  0.78235  0.90283  1.0000
  O   O16       1.0  0.36310  0.21765  0.09717  1.0000
  O   O17       1.0  0.57387  0.21841  0.86689  1.0000
  O   O18       1.0  0.42613  0.78159  0.13311  1.0000
  O   O19       1.0  0.36774  0.78463  0.74957  1.0000
  O   O20       1.0  0.63225  0.21536  0.25044  1.0000
