data_image0
_chemical_formula_structural       Cu4Mo8H32C44N8O30
_chemical_formula_sum              "Cu4 Mo8 H32 C44 N8 O30"
_cell_length_a       10.8506
_cell_length_b       11.7196
_cell_length_c       13.5584
_cell_angle_alpha    98.0361
_cell_angle_beta     102.54
_cell_angle_gamma    117.495

_space_group_name_H-M_alt    "P 1"
_space_group_IT_number       1

loop_
  _space_group_symop_operation_xyz
  'x, y, z'

loop_
  _atom_site_type_symbol
  _atom_site_label
  _atom_site_symmetry_multiplicity
  _atom_site_fract_x
  _atom_site_fract_y
  _atom_site_fract_z
  _atom_site_occupancy
  Cu  Cu1       1.0  0.47128  0.28965  0.09315  1.0000
  Cu  Cu2       1.0  0.52872  0.71034  0.90685  1.0000
  Cu  Cu3       1.0  0.99686  0.03062  0.31779  1.0000
  Cu  Cu4       1.0  0.00314  0.96938  0.68221  1.0000
  Mo  Mo1       1.0  0.31694  0.31073  0.30381  1.0000
  Mo  Mo2       1.0  0.68307  0.68927  0.69619  1.0000
  Mo  Mo3       1.0  0.42165  0.61123  0.48909  1.0000
  Mo  Mo4       1.0  0.57835  0.38878  0.51091  1.0000
  Mo  Mo5       1.0  0.23251  0.33233  0.53695  1.0000
  Mo  Mo6       1.0  0.76749  0.66767  0.46305  1.0000
  Mo  Mo7       1.0  0.49820  0.59260  0.24499  1.0000
  Mo  Mo8       1.0  0.50180  0.40739  0.75502  1.0000
  H   H1        1.0  0.16695  0.09491  0.06698  1.0000
  H   H2        1.0  0.83305  0.90509  0.93302  1.0000
  H   H3        1.0  0.95246  0.12805  0.05026  1.0000
  H   H4        1.0  0.04754  0.87195  0.94974  1.0000
  H   H5        1.0  0.15929  0.44524  0.91054  1.0000
  H   H6        1.0  0.84071  0.55476  0.08946  1.0000
  H   H7        1.0  0.37204  0.40989  0.94262  1.0000
  H   H8        1.0  0.62797  0.59011  0.05738  1.0000
  H   H9        1.0  0.65793  0.28441  0.96908  1.0000
  H   H10       1.0  0.34207  0.71559  0.03092  1.0000
  H   H11       1.0  0.05999  0.37016  0.19421  1.0000
  H   H12       1.0  0.94001  0.62984  0.80580  1.0000
  H   H13       1.0  0.94228  0.37011  0.33442  1.0000
  H   H14       1.0  0.05772  0.62990  0.66559  1.0000
  H   H15       1.0  0.68578  0.32593  0.28444  1.0000
  H   H16       1.0  0.31422  0.67407  0.71556  1.0000
  H   H17       1.0  0.79264  0.98600  0.11588  1.0000
  H   H18       1.0  0.20736  0.01400  0.88412  1.0000
  H   H19       1.0  0.54764  0.96149  0.05498  1.0000
  H   H20       1.0  0.45236  0.03851  0.94502  1.0000
  H   H21       1.0  0.55637  0.02123  0.37962  1.0000
  H   H22       1.0  0.44363  0.97876  0.62038  1.0000
  H   H23       1.0  0.80022  0.03948  0.42649  1.0000
  H   H24       1.0  0.19978  0.96051  0.57351  1.0000
  H   H25       1.0  0.17728  0.02573  0.19540  1.0000
  H   H26       1.0  0.82273  0.97427  0.80460  1.0000
  H   H27       1.0  0.35654  0.78875  0.30427  1.0000
  H   H28       1.0  0.64346  0.21125  0.69573  1.0000
  H   H29       1.0  0.18878  0.72763  0.41261  1.0000
  H   H30       1.0  0.81123  0.27238  0.58739  1.0000
  H   H31       1.0  0.03025  0.82829  0.41321  1.0000
  H   H32       1.0  0.96975  0.17171  0.58679  1.0000
  C   C1        1.0  0.16174  0.17320  0.03492  1.0000
  C   C2        1.0  0.83826  0.82680  0.96508  1.0000
  C   C3        1.0  0.04285  0.19182  0.02486  1.0000
  C   C4        1.0  0.95714  0.80818  0.97514  1.0000
  C   C5        1.0  0.04325  0.29565  0.98483  1.0000
  C   C6        1.0  0.95675  0.70435  0.01517  1.0000
  C   C7        1.0  0.15887  0.36894  0.94798  1.0000
  C   C8        1.0  0.84112  0.63106  0.05202  1.0000
  C   C9        1.0  0.27721  0.34883  0.96523  1.0000
  C   C10       1.0  0.72279  0.65117  0.03476  1.0000
  C   C11       1.0  0.92706  0.33111  0.98129  1.0000
  C   C12       1.0  0.07294  0.66889  0.01871  1.0000
  C   C13       1.0  0.72241  0.30020  0.04886  1.0000
  C   C14       1.0  0.27759  0.69980  0.95114  1.0000
  C   C15       1.0  0.86528  0.32301  0.07001  1.0000
  C   C16       1.0  0.13472  0.67699  0.92999  1.0000
  C   C17       1.0  0.94677  0.34772  0.17415  1.0000
  C   C18       1.0  0.05323  0.65228  0.82586  1.0000
  C   C19       1.0  0.88196  0.34884  0.25226  1.0000
  C   C20       1.0  0.11804  0.65116  0.74775  1.0000
  C   C21       1.0  0.73911  0.32471  0.22520  1.0000
  C   C22       1.0  0.26089  0.67529  0.77480  1.0000
  C   C23       1.0  0.73643  0.99303  0.17175  1.0000
  C   C24       1.0  0.26357  0.00696  0.82824  1.0000
  C   C25       1.0  0.59916  0.97917  0.13823  1.0000
  C   C26       1.0  0.40085  0.02083  0.86177  1.0000
  C   C27       1.0  0.52776  0.98434  0.21188  1.0000
  C   C28       1.0  0.47224  0.01566  0.78812  1.0000
  C   C29       1.0  0.60268  0.00967  0.31797  1.0000
  C   C30       1.0  0.39732  0.99032  0.68203  1.0000
  C   C31       1.0  0.73991  0.02213  0.34527  1.0000
  C   C32       1.0  0.26009  0.97786  0.65473  1.0000
  C   C33       1.0  0.37670  0.96177  0.17547  1.0000
  C   C34       1.0  0.62330  0.03823  0.82453  1.0000
  C   C35       1.0  0.18413  0.96142  0.24388  1.0000
  C   C36       1.0  0.81587  0.03858  0.75613  1.0000
  C   C37       1.0  0.28303  0.91713  0.24364  1.0000
  C   C38       1.0  0.71697  0.08287  0.75636  1.0000
  C   C39       1.0  0.28622  0.83126  0.30521  1.0000
  C   C40       1.0  0.71378  0.16874  0.69478  1.0000
  C   C41       1.0  0.19213  0.79616  0.36522  1.0000
  C   C42       1.0  0.80787  0.20384  0.63478  1.0000
  C   C43       1.0  0.10233  0.85069  0.36526  1.0000
  C   C44       1.0  0.89767  0.14931  0.63474  1.0000
  N   N1        1.0  0.28275  0.25606  0.01275  1.0000
  N   N2        1.0  0.71724  0.74394  0.98725  1.0000
  N   N3        1.0  0.65955  0.30000  0.12442  1.0000
  N   N4        1.0  0.34045  0.70000  0.87559  1.0000
  N   N5        1.0  0.80633  0.01257  0.27356  1.0000
  N   N6        1.0  0.19367  0.98743  0.72643  1.0000
  N   N7        1.0  0.09861  0.93363  0.30588  1.0000
  N   N8        1.0  0.90140  0.06637  0.69412  1.0000
  O   O1        1.0  0.88586  0.37001  0.90779  1.0000
  O   O2        1.0  0.11413  0.62999  0.09221  1.0000
  O   O3        1.0  0.32969  0.97899  0.09028  1.0000
  O   O4        1.0  0.67031  0.02101  0.90971  1.0000
  O   O5        1.0  0.40016  0.24743  0.23545  1.0000
  O   O6        1.0  0.59984  0.75257  0.76455  1.0000
  O   O7        1.0  0.25741  0.42703  0.42488  1.0000
  O   O8        1.0  0.74259  0.57297  0.57512  1.0000
  O   O9        1.0  0.13113  0.18937  0.25790  1.0000
  O   O10       1.0  0.86887  0.81064  0.74210  1.0000
  O   O11       1.0  0.53430  0.49286  0.40708  1.0000
  O   O12       1.0  0.46569  0.50714  0.59292  1.0000
  O   O13       1.0  0.36970  0.27075  0.43881  1.0000
  O   O14       1.0  0.63030  0.72925  0.56119  1.0000
  O   O15       1.0  0.31400  0.43653  0.23000  1.0000
  O   O16       1.0  0.68600  0.56346  0.77000  1.0000
  O   O17       1.0  0.42291  0.65926  0.37067  1.0000
  O   O18       1.0  0.57709  0.34074  0.62933  1.0000
  O   O19       1.0  0.34625  0.68673  0.55084  1.0000
  O   O20       1.0  0.65375  0.31327  0.44917  1.0000
  O   O21       1.0  0.08587  0.17320  0.46283  1.0000
  O   O22       1.0  0.91413  0.82680  0.53716  1.0000
  O   O23       1.0  0.15621  0.40568  0.59978  1.0000
  O   O24       1.0  0.84379  0.59432  0.40022  1.0000
  O   O25       1.0  0.68013  0.71826  0.35243  1.0000
  O   O26       1.0  0.31987  0.28173  0.64757  1.0000
  O   O27       1.0  0.56003  0.50209  0.17805  1.0000
  O   O28       1.0  0.43996  0.49791  0.82195  1.0000
  O   O29       1.0  0.46310  0.68015  0.16332  1.0000
  O   O30       1.0  0.53689  0.31985  0.83668  1.0000
