data_image0
_chemical_formula_structural       Na8Cu4H24C8O36
_chemical_formula_sum              "Na8 Cu4 H24 C8 O36"
_cell_length_a       6.1066
_cell_length_b       9.78923
_cell_length_c       13.5815
_cell_angle_alpha    92.1251
_cell_angle_beta     89.9999
_cell_angle_gamma    90.0001

_space_group_name_H-M_alt    "P 1"
_space_group_IT_number       1

loop_
  _space_group_symop_operation_xyz
  'x, y, z'

loop_
  _atom_site_type_symbol
  _atom_site_label
  _atom_site_symmetry_multiplicity
  _atom_site_fract_x
  _atom_site_fract_y
  _atom_site_fract_z
  _atom_site_occupancy
  Na  Na1       1.0  0.75726  0.83628  0.80242  1.0000
  Na  Na2       1.0  0.25726  0.66371  0.69758  1.0000
  Na  Na3       1.0  0.24274  0.16372  0.19758  1.0000
  Na  Na4       1.0  0.74273  0.33629  0.30242  1.0000
  Na  Na5       1.0  0.51653  0.89207  0.59470  1.0000
  Na  Na6       1.0  0.01652  0.60793  0.90530  1.0000
  Na  Na7       1.0  0.48346  0.10793  0.40530  1.0000
  Na  Na8       1.0  0.98347  0.39208  0.09470  1.0000
  Cu  Cu1       1.0  0.49356  0.12136  0.82277  1.0000
  Cu  Cu2       1.0  0.99356  0.37863  0.67723  1.0000
  Cu  Cu3       1.0  0.50644  0.87864  0.17723  1.0000
  Cu  Cu4       1.0  0.00644  0.62137  0.32277  1.0000
  H   H1        1.0  0.92748  0.05097  0.90828  1.0000
  H   H2        1.0  0.42748  0.44903  0.59172  1.0000
  H   H3        1.0  0.07252  0.94903  0.09172  1.0000
  H   H4        1.0  0.57251  0.55098  0.40828  1.0000
  H   H5        1.0  0.75931  0.00791  0.98868  1.0000
  H   H6        1.0  0.25931  0.49209  0.51133  1.0000
  H   H7        1.0  0.24069  0.99209  0.01133  1.0000
  H   H8        1.0  0.74068  0.50791  0.48867  1.0000
  H   H9        1.0  0.75911  0.85667  0.41018  1.0000
  H   H10       1.0  0.25911  0.64334  0.08982  1.0000
  H   H11       1.0  0.24090  0.14333  0.58982  1.0000
  H   H12       1.0  0.74089  0.35666  0.91018  1.0000
  H   H13       1.0  0.52200  0.81623  0.37845  1.0000
  H   H14       1.0  0.02200  0.68377  0.12155  1.0000
  H   H15       1.0  0.47800  0.18377  0.62155  1.0000
  H   H16       1.0  0.97800  0.31623  0.87845  1.0000
  H   H17       1.0  0.10272  0.80764  0.50943  1.0000
  H   H18       1.0  0.60270  0.69235  0.99057  1.0000
  H   H19       1.0  0.89728  0.19236  0.49057  1.0000
  H   H20       1.0  0.39730  0.30765  0.00943  1.0000
  H   H21       1.0  0.04421  0.88961  0.60780  1.0000
  H   H22       1.0  0.54419  0.61038  0.89220  1.0000
  H   H23       1.0  0.95579  0.11039  0.39220  1.0000
  H   H24       1.0  0.45580  0.38962  0.10780  1.0000
  C   C1        1.0  0.25464  0.92208  0.82967  1.0000
  C   C2        1.0  0.75464  0.57791  0.67033  1.0000
  C   C3        1.0  0.74536  0.07792  0.17033  1.0000
  C   C4        1.0  0.24536  0.42207  0.32967  1.0000
  C   C5        1.0  0.84778  0.11703  0.67276  1.0000
  C   C6        1.0  0.34778  0.38296  0.82725  1.0000
  C   C7        1.0  0.15223  0.88297  0.32724  1.0000
  C   C8        1.0  0.65223  0.61704  0.17276  1.0000
  O   O1        1.0  0.41649  0.93487  0.76709  1.0000
  O   O2        1.0  0.91649  0.56512  0.73291  1.0000
  O   O3        1.0  0.58351  0.06513  0.23291  1.0000
  O   O4        1.0  0.08351  0.43488  0.26709  1.0000
  O   O5        1.0  0.22998  0.03069  0.88946  1.0000
  O   O6        1.0  0.72998  0.46930  0.61054  1.0000
  O   O7        1.0  0.77002  0.96931  0.11054  1.0000
  O   O8        1.0  0.27000  0.53070  0.38946  1.0000
  O   O9        1.0  0.13626  0.81698  0.83150  1.0000
  O   O10       1.0  0.63626  0.68301  0.66850  1.0000
  O   O11       1.0  0.86375  0.18302  0.16850  1.0000
  O   O12       1.0  0.36373  0.31701  0.33150  1.0000
  O   O13       1.0  0.71537  0.18846  0.72978  1.0000
  O   O14       1.0  0.21536  0.31153  0.77022  1.0000
  O   O15       1.0  0.28464  0.81153  0.27022  1.0000
  O   O16       1.0  0.78465  0.68847  0.22978  1.0000
  O   O17       1.0  0.84990  0.98709  0.66684  1.0000
  O   O18       1.0  0.34989  0.51289  0.83316  1.0000
  O   O19       1.0  0.15011  0.01290  0.33315  1.0000
  O   O20       1.0  0.65011  0.48710  0.16685  1.0000
  O   O21       1.0  0.98002  0.18975  0.61800  1.0000
  O   O22       1.0  0.48003  0.31024  0.88200  1.0000
  O   O23       1.0  0.01998  0.81025  0.38199  1.0000
  O   O24       1.0  0.51999  0.68975  0.11801  1.0000
  O   O25       1.0  0.77153  0.02811  0.91763  1.0000
  O   O26       1.0  0.27154  0.47189  0.58237  1.0000
  O   O27       1.0  0.22847  0.97190  0.08238  1.0000
  O   O28       1.0  0.72846  0.52812  0.41762  1.0000
  O   O29       1.0  0.60221  0.87189  0.42782  1.0000
  O   O30       1.0  0.10220  0.62812  0.07218  1.0000
  O   O31       1.0  0.39780  0.12811  0.57218  1.0000
  O   O32       1.0  0.89780  0.37189  0.92782  1.0000
  O   O33       1.0  0.14857  0.82064  0.57881  1.0000
  O   O34       1.0  0.64855  0.67935  0.92119  1.0000
  O   O35       1.0  0.85143  0.17936  0.42119  1.0000
  O   O36       1.0  0.35145  0.32065  0.07881  1.0000
