data_image0
_chemical_formula_structural       Ba2H24C20N12O32
_chemical_formula_sum              "Ba2 H24 C20 N12 O32"
_cell_length_a       6.48645
_cell_length_b       12.1992
_cell_length_c       13.4875
_cell_angle_alpha    86.3383
_cell_angle_beta     76.1023
_cell_angle_gamma    74.5872

_space_group_name_H-M_alt    "P 1"
_space_group_IT_number       1

loop_
  _space_group_symop_operation_xyz
  'x, y, z'

loop_
  _atom_site_type_symbol
  _atom_site_label
  _atom_site_symmetry_multiplicity
  _atom_site_fract_x
  _atom_site_fract_y
  _atom_site_fract_z
  _atom_site_occupancy
  Ba  Ba1       1.0  0.67405  0.50010  0.49981  1.0000
  Ba  Ba2       1.0  0.92376  0.00007  0.00022  1.0000
  H   H1        1.0  0.67595  0.21033  0.52049  1.0000
  H   H2        1.0  0.40586  0.78954  0.47918  1.0000
  H   H3        1.0  0.94704  0.71026  0.97938  1.0000
  H   H4        1.0  0.63586  0.28969  0.02086  1.0000
  H   H5        1.0  0.61223  0.26205  0.62906  1.0000
  H   H6        1.0  0.50176  0.73822  0.37048  1.0000
  H   H7        1.0  0.99092  0.76203  0.87080  1.0000
  H   H8        1.0  0.62242  0.23824  0.12955  1.0000
  H   H9        1.0  0.15226  0.58220  0.55993  1.0000
  H   H10       1.0  0.29449  0.41760  0.43999  1.0000
  H   H11       1.0  0.46219  0.08221  0.93998  1.0000
  H   H12       1.0  0.48418  0.91776  0.06025  1.0000
  H   H13       1.0  0.18720  0.51753  0.66168  1.0000
  H   H14       1.0  0.36634  0.48229  0.33822  1.0000
  H   H15       1.0  0.59912  0.01746  0.83831  1.0000
  H   H16       1.0  0.45442  0.98251  0.16199  1.0000
  H   H17       1.0  0.22164  0.25016  0.37993  1.0000
  H   H18       1.0  0.85241  0.74974  0.62021  1.0000
  H   H19       1.0  0.35101  0.75030  0.12017  1.0000
  H   H20       1.0  0.22171  0.24970  0.87967  1.0000
  H   H21       1.0  0.05862  0.26889  0.69623  1.0000
  H   H22       1.0  0.02379  0.73125  0.30387  1.0000
  H   H23       1.0  0.50444  0.76898  0.80384  1.0000
  H   H24       1.0  0.07741  0.23116  0.19599  1.0000
  C   C1        1.0  0.20821  0.20283  0.45114  1.0000
  C   C2        1.0  0.86269  0.79713  0.54901  1.0000
  C   C3        1.0  0.40910  0.70294  0.04896  1.0000
  C   C4        1.0  0.16115  0.29710  0.95085  1.0000
  C   C5        1.0  0.26045  0.08580  0.45407  1.0000
  C   C6        1.0  0.80042  0.91414  0.54612  1.0000
  C   C7        1.0  0.46473  0.58591  0.04603  1.0000
  C   C8        1.0  0.09644  0.41411  0.95373  1.0000
  C   C9        1.0  0.24188  0.01970  0.54898  1.0000
  C   C10       1.0  0.80939  0.98031  0.45126  1.0000
  C   C11       1.0  0.54105  0.51979  0.95113  1.0000
  C   C12       1.0  0.01109  0.48025  0.04860  1.0000
  C   C13       1.0  0.16185  0.09607  0.63754  1.0000
  C   C14       1.0  0.89544  0.90402  0.36266  1.0000
  C   C15       1.0  0.54928  0.59613  0.86255  1.0000
  C   C16       1.0  0.00805  0.40395  0.13722  1.0000
  C   C17       1.0  0.11696  0.21315  0.63000  1.0000
  C   C18       1.0  0.96020  0.78694  0.37015  1.0000
  C   C19       1.0  0.49663  0.71321  0.87006  1.0000
  C   C20       1.0  0.08016  0.28689  0.12973  1.0000
  N   N1        1.0  0.13740  0.26589  0.53782  1.0000
  N   N2        1.0  0.94110  0.73414  0.46230  1.0000
  N   N3        1.0  0.42497  0.76597  0.96225  1.0000
  N   N4        1.0  0.15322  0.23410  0.03758  1.0000
  N   N5        1.0  0.33045  0.03058  0.35616  1.0000
  N   N6        1.0  0.71663  0.96922  0.64410  1.0000
  N   N7        1.0  0.43654  0.53068  0.14392  1.0000
  N   N8        1.0  0.11043  0.46931  0.85582  1.0000
  N   N9        1.0  0.12117  0.05184  0.73997  1.0000
  N   N10       1.0  0.91318  0.94827  0.26021  1.0000
  N   N11       1.0  0.61112  0.55178  0.76018  1.0000
  N   N12       1.0  0.92316  0.44822  0.23965  1.0000
  O   O1        1.0  0.08430  0.37820  0.53246  1.0000
  O   O2        1.0  0.99465  0.62181  0.46756  1.0000
  O   O3        1.0  0.36650  0.87831  0.96756  1.0000
  O   O4        1.0  0.21222  0.12178  0.03231  1.0000
  O   O5        1.0  0.28509  0.91374  0.55538  1.0000
  O   O6        1.0  0.75052  0.08622  0.44497  1.0000
  O   O7        1.0  0.59096  0.41384  0.94477  1.0000
  O   O8        1.0  0.94701  0.58618  0.05492  1.0000
  O   O9        1.0  0.28647  0.08726  0.27939  1.0000
  O   O10       1.0  0.65388  0.91222  0.72084  1.0000
  O   O11       1.0  0.31526  0.58728  0.22061  1.0000
  O   O12       1.0  0.12379  0.41248  0.77906  1.0000
  O   O13       1.0  0.43303  0.92862  0.35090  1.0000
  O   O14       1.0  0.70996  0.07143  0.64944  1.0000
  O   O15       1.0  0.53410  0.42877  0.14926  1.0000
  O   O16       1.0  0.10953  0.57147  0.85054  1.0000
  O   O17       1.0  0.09820  0.95365  0.75470  1.0000
  O   O18       1.0  0.80680  0.04643  0.24544  1.0000
  O   O19       1.0  0.60225  0.45368  0.74558  1.0000
  O   O20       1.0  0.80254  0.54651  0.25433  1.0000
  O   O21       1.0  0.10596  0.11629  0.81198  1.0000
  O   O22       1.0  0.03478  0.88386  0.18825  1.0000
  O   O23       1.0  0.66867  0.61604  0.68816  1.0000
  O   O24       1.0  0.97205  0.38370  0.31168  1.0000
  O   O25       1.0  0.63479  0.28361  0.55743  1.0000
  O   O26       1.0  0.47302  0.71632  0.44202  1.0000
  O   O27       1.0  0.94256  0.78355  0.94245  1.0000
  O   O28       1.0  0.66589  0.21643  0.05798  1.0000
  O   O29       1.0  0.24566  0.56896  0.61043  1.0000
  O   O30       1.0  0.42506  0.43078  0.38941  1.0000
  O   O31       1.0  0.60613  0.06897  0.88955  1.0000
  O   O32       1.0  0.56423  0.93095  0.11081  1.0000
