data_image0
_chemical_formula_structural       Ni2H32C24N8O12
_chemical_formula_sum              "Ni2 H32 C24 N8 O12"
_cell_length_a       7.58782
_cell_length_b       8.58309
_cell_length_c       11.9343
_cell_angle_alpha    100.559
_cell_angle_beta     89.9995
_cell_angle_gamma    89.9995

_space_group_name_H-M_alt    "P 1"
_space_group_IT_number       1

loop_
  _space_group_symop_operation_xyz
  'x, y, z'

loop_
  _atom_site_type_symbol
  _atom_site_label
  _atom_site_symmetry_multiplicity
  _atom_site_fract_x
  _atom_site_fract_y
  _atom_site_fract_z
  _atom_site_occupancy
  Ni  Ni1       1.0  0.49999  1.00000  0.50000  1.0000
  Ni  Ni2       1.0  0.00000  0.50000  0.00000  1.0000
  H   H1        1.0  0.75738  0.70350  0.43012  1.0000
  H   H2        1.0  0.25738  0.79650  0.06988  1.0000
  H   H3        1.0  0.24262  0.29650  0.56988  1.0000
  H   H4        1.0  0.74263  0.20351  0.93012  1.0000
  H   H5        1.0  0.40610  0.83854  0.70702  1.0000
  H   H6        1.0  0.90611  0.66146  0.79298  1.0000
  H   H7        1.0  0.59389  0.16145  0.29297  1.0000
  H   H8        1.0  0.09390  0.33854  0.20702  1.0000
  H   H9        1.0  0.85866  0.41233  0.47755  1.0000
  H   H10       1.0  0.35866  0.08767  0.02245  1.0000
  H   H11       1.0  0.14134  0.58767  0.52244  1.0000
  H   H12       1.0  0.64134  0.91233  0.97755  1.0000
  H   H13       1.0  0.69568  0.32879  0.55511  1.0000
  H   H14       1.0  0.19568  0.17120  0.94489  1.0000
  H   H15       1.0  0.30433  0.67120  0.44488  1.0000
  H   H16       1.0  0.80433  0.82880  0.05511  1.0000
  H   H17       1.0  0.88115  0.42599  0.62725  1.0000
  H   H18       1.0  0.38116  0.07400  0.87275  1.0000
  H   H19       1.0  0.11886  0.57400  0.37274  1.0000
  H   H20       1.0  0.61885  0.92600  0.12725  1.0000
  H   H21       1.0  0.55140  0.25366  0.74586  1.0000
  H   H22       1.0  0.05141  0.24634  0.75414  1.0000
  H   H23       1.0  0.44859  0.74634  0.25414  1.0000
  H   H24       1.0  0.94858  0.75367  0.24586  1.0000
  H   H25       1.0  0.69294  0.11544  0.72826  1.0000
  H   H26       1.0  0.19294  0.38457  0.77175  1.0000
  H   H27       1.0  0.30705  0.88456  0.27174  1.0000
  H   H28       1.0  0.80705  0.61544  0.22826  1.0000
  H   H29       1.0  0.52788  0.56653  0.72166  1.0000
  H   H30       1.0  0.02789  0.93347  0.77834  1.0000
  H   H31       1.0  0.47212  0.43346  0.27833  1.0000
  H   H32       1.0  0.97212  0.06653  0.22166  1.0000
  C   C1        1.0  0.12810  0.99595  0.52957  1.0000
  C   C2        1.0  0.62811  0.50405  0.97043  1.0000
  C   C3        1.0  0.87189  0.00405  0.47043  1.0000
  C   C4        1.0  0.37189  0.49595  0.02957  1.0000
  C   C5        1.0  0.04686  0.98775  0.41625  1.0000
  C   C6        1.0  0.54687  0.51225  0.08376  1.0000
  C   C7        1.0  0.95312  0.01225  0.58375  1.0000
  C   C8        1.0  0.45313  0.48775  0.91625  1.0000
  C   C9        1.0  0.68534  0.69893  0.50818  1.0000
  C   C10       1.0  0.18534  0.80107  0.99183  1.0000
  C   C11       1.0  0.31466  0.30106  0.49182  1.0000
  C   C12       1.0  0.81466  0.19894  0.00818  1.0000
  C   C13       1.0  0.68759  0.58178  0.57307  1.0000
  C   C14       1.0  0.18759  0.91822  0.92693  1.0000
  C   C15       1.0  0.31241  0.41822  0.42692  1.0000
  C   C16       1.0  0.81242  0.08179  0.07307  1.0000
  C   C17       1.0  0.50211  0.77264  0.65018  1.0000
  C   C18       1.0  0.00212  0.72736  0.84982  1.0000
  C   C19       1.0  0.49789  0.22735  0.34981  1.0000
  C   C20       1.0  0.99789  0.27264  0.15018  1.0000
  C   C21       1.0  0.78587  0.42969  0.55825  1.0000
  C   C22       1.0  0.28587  0.07031  0.94176  1.0000
  C   C23       1.0  0.21414  0.57031  0.44175  1.0000
  C   C24       1.0  0.71413  0.92970  0.05825  1.0000
  N   N1        1.0  0.56876  0.81692  0.55717  1.0000
  N   N2        1.0  0.06877  0.68308  0.94284  1.0000
  N   N3        1.0  0.43123  0.18307  0.44283  1.0000
  N   N4        1.0  0.93124  0.31692  0.05717  1.0000
  N   N5        1.0  0.57172  0.63179  0.66207  1.0000
  N   N6        1.0  0.07173  0.86821  0.83793  1.0000
  N   N7        1.0  0.42828  0.36821  0.33793  1.0000
  N   N8        1.0  0.92828  0.13179  0.16207  1.0000
  O   O1        1.0  0.27972  0.99191  0.57358  1.0000
  O   O2        1.0  0.77973  0.50809  0.92642  1.0000
  O   O3        1.0  0.72027  0.00808  0.42641  1.0000
  O   O4        1.0  0.22028  0.49191  0.07359  1.0000
  O   O5        1.0  0.58544  0.15587  0.77048  1.0000
  O   O6        1.0  0.08544  0.34414  0.72952  1.0000
  O   O7        1.0  0.41456  0.84414  0.22952  1.0000
  O   O8        1.0  0.91456  0.65587  0.27048  1.0000
  O   O9        1.0  0.09880  0.97184  0.31483  1.0000
  O   O10       1.0  0.59880  0.52816  0.18516  1.0000
  O   O11       1.0  0.90119  0.02816  0.68516  1.0000
  O   O12       1.0  0.40120  0.47184  0.81484  1.0000
