data_image0
_chemical_formula_structural       Co2H46C50N8O8
_chemical_formula_sum              "Co2 H46 C50 N8 O8"
_cell_length_a       10.3033
_cell_length_b       11.2115
_cell_length_c       14.246
_cell_angle_alpha    90.4586
_cell_angle_beta     107.839
_cell_angle_gamma    113.14

_space_group_name_H-M_alt    "P 1"
_space_group_IT_number       1

loop_
  _space_group_symop_operation_xyz
  'x, y, z'

loop_
  _atom_site_type_symbol
  _atom_site_label
  _atom_site_symmetry_multiplicity
  _atom_site_fract_x
  _atom_site_fract_y
  _atom_site_fract_z
  _atom_site_occupancy
  Co  Co1       1.0  0.51883  0.67454  0.74142  1.0000
  Co  Co2       1.0  0.48116  0.32545  0.25858  1.0000
  H   H1        1.0  0.93074  0.51256  0.65881  1.0000
  H   H2        1.0  0.06925  0.48744  0.34118  1.0000
  H   H3        1.0  0.03131  0.55849  0.78868  1.0000
  H   H4        1.0  0.96869  0.44151  0.21131  1.0000
  H   H5        1.0  0.10012  0.65588  0.70388  1.0000
  H   H6        1.0  0.89988  0.34412  0.29611  1.0000
  H   H7        1.0  0.06682  0.88313  0.72821  1.0000
  H   H8        1.0  0.93317  0.11687  0.27178  1.0000
  H   H9        1.0  0.93421  0.04207  0.79629  1.0000
  H   H10       1.0  0.06579  0.95793  0.20371  1.0000
  H   H11       1.0  0.73532  0.96051  0.76736  1.0000
  H   H12       1.0  0.26468  0.03948  0.23264  1.0000
  H   H13       1.0  0.81419  0.99986  0.67041  1.0000
  H   H14       1.0  0.18581  0.00014  0.32958  1.0000
  H   H15       1.0  0.65444  0.28123  0.61636  1.0000
  H   H16       1.0  0.34556  0.71876  0.38365  1.0000
  H   H17       1.0  0.55361  0.25709  0.48653  1.0000
  H   H18       1.0  0.44640  0.74290  0.51347  1.0000
  H   H19       1.0  0.47260  0.15393  0.56587  1.0000
  H   H20       1.0  0.52740  0.84607  0.43413  1.0000
  H   H21       1.0  0.24652  0.26529  0.46324  1.0000
  H   H22       1.0  0.75348  0.73471  0.53676  1.0000
  H   H23       1.0  0.17324  0.50048  0.62234  1.0000
  H   H24       1.0  0.82676  0.49952  0.37766  1.0000
  H   H25       1.0  0.08452  0.39312  0.50518  1.0000
  H   H26       1.0  0.91548  0.60687  0.49482  1.0000
  H   H27       1.0  0.20539  0.56091  0.51352  1.0000
  H   H28       1.0  0.79461  0.43909  0.48647  1.0000
  H   H29       1.0  0.73892  0.43598  0.71739  1.0000
  H   H30       1.0  0.26109  0.56402  0.28261  1.0000
  H   H31       1.0  0.88406  0.62401  0.91471  1.0000
  H   H32       1.0  0.11593  0.37600  0.08528  1.0000
  H   H33       1.0  0.86094  0.58572  0.08211  1.0000
  H   H34       1.0  0.13907  0.41429  0.91789  1.0000
  H   H35       1.0  0.41913  0.28270  0.94607  1.0000
  H   H36       1.0  0.58089  0.71731  0.05394  1.0000
  H   H37       1.0  0.43951  0.31822  0.77774  1.0000
  H   H38       1.0  0.56049  0.68177  0.22227  1.0000
  H   H39       1.0  0.19851  0.75156  0.51470  1.0000
  H   H40       1.0  0.80148  0.24845  0.48530  1.0000
  H   H41       1.0  0.99534  0.81184  0.42129  1.0000
  H   H42       1.0  0.00465  0.18816  0.57871  1.0000
  H   H43       1.0  0.37320  0.08308  0.73930  1.0000
  H   H44       1.0  0.62680  0.91692  0.26070  1.0000
  H   H45       1.0  0.16964  0.14645  0.64793  1.0000
  H   H46       1.0  0.83038  0.85356  0.35207  1.0000
  C   C1        1.0  0.99713  0.59659  0.71877  1.0000
  C   C2        1.0  0.00287  0.40341  0.28123  1.0000
  C   C3        1.0  0.91529  0.67808  0.72500  1.0000
  C   C4        1.0  0.08471  0.32192  0.27500  1.0000
  C   C5        1.0  0.96027  0.81268  0.73059  1.0000
  C   C6        1.0  0.03973  0.18731  0.26941  1.0000
  C   C7        1.0  0.84103  0.83881  0.73943  1.0000
  C   C8        1.0  0.15896  0.16118  0.26057  1.0000
  C   C9        1.0  0.82987  0.96696  0.74412  1.0000
  C   C10       1.0  0.17013  0.03305  0.25588  1.0000
  C   C11       1.0  0.54297  0.25545  0.56109  1.0000
  C   C12       1.0  0.45703  0.74455  0.43891  1.0000
  C   C13       1.0  0.47249  0.34299  0.57777  1.0000
  C   C14       1.0  0.52751  0.65700  0.42223  1.0000
  C   C15       1.0  0.33068  0.33683  0.52676  1.0000
  C   C16       1.0  0.66932  0.66316  0.47323  1.0000
  C   C17       1.0  0.31652  0.43877  0.57504  1.0000
  C   C18       1.0  0.68349  0.56122  0.42497  1.0000
  C   C19       1.0  0.18683  0.47473  0.55249  1.0000
  C   C20       1.0  0.81317  0.52526  0.44751  1.0000
  C   C21       1.0  0.68049  0.49296  0.73323  1.0000
  C   C22       1.0  0.31951  0.50704  0.26677  1.0000
  C   C23       1.0  0.66333  0.47259  0.83516  1.0000
  C   C24       1.0  0.33667  0.52741  0.16485  1.0000
  C   C25       1.0  0.78254  0.54760  0.92096  1.0000
  C   C26       1.0  0.21746  0.45241  0.07904  1.0000
  C   C27       1.0  0.77024  0.52688  0.01460  1.0000
  C   C28       1.0  0.22976  0.47313  0.98540  1.0000
  C   C29       1.0  0.63921  0.43177  0.02409  1.0000
  C   C30       1.0  0.36079  0.56824  0.97591  1.0000
  C   C31       1.0  0.52106  0.35583  0.93816  1.0000
  C   C32       1.0  0.47894  0.64417  0.06184  1.0000
  C   C33       1.0  0.53325  0.37576  0.84429  1.0000
  C   C34       1.0  0.46675  0.62424  0.15572  1.0000
  C   C35       1.0  0.62748  0.41626  0.12622  1.0000
  C   C36       1.0  0.37257  0.58377  0.87381  1.0000
  C   C37       1.0  0.41986  0.87432  0.69358  1.0000
  C   C38       1.0  0.58013  0.12569  0.30642  1.0000
  C   C39       1.0  0.29890  0.91326  0.63337  1.0000
  C   C40       1.0  0.70110  0.08674  0.36663  1.0000
  C   C41       1.0  0.19159  0.83850  0.54311  1.0000
  C   C42       1.0  0.80841  0.16150  0.45689  1.0000
  C   C43       1.0  0.07663  0.87312  0.49092  1.0000
  C   C44       1.0  0.92337  0.12689  0.50909  1.0000
  C   C45       1.0  0.06292  0.98329  0.52708  1.0000
  C   C46       1.0  0.93708  0.01672  0.47292  1.0000
  C   C47       1.0  0.28915  0.02518  0.66905  1.0000
  C   C48       1.0  0.71084  0.97481  0.33095  1.0000
  C   C49       1.0  0.17359  0.05932  0.61705  1.0000
  C   C50       1.0  0.82643  0.94069  0.38296  1.0000
  N   N1        1.0  0.72782  0.72550  0.74049  1.0000
  N   N2        1.0  0.27216  0.27450  0.25951  1.0000
  N   N3        1.0  0.77387  0.62841  0.72992  1.0000
  N   N4        1.0  0.22612  0.37160  0.27008  1.0000
  N   N5        1.0  0.44357  0.50553  0.65212  1.0000
  N   N6        1.0  0.55642  0.49448  0.34789  1.0000
  N   N7        1.0  0.53756  0.44693  0.65255  1.0000
  N   N8        1.0  0.46244  0.55306  0.34746  1.0000
  O   O1        1.0  0.73731  0.48023  0.20204  1.0000
  O   O2        1.0  0.26271  0.51980  0.79796  1.0000
  O   O3        1.0  0.49713  0.33429  0.12835  1.0000
  O   O4        1.0  0.50287  0.66569  0.87166  1.0000
  O   O5        1.0  0.51774  0.94487  0.77130  1.0000
  O   O6        1.0  0.48224  0.05511  0.22869  1.0000
  O   O7        1.0  0.40889  0.76147  0.65732  1.0000
  O   O8        1.0  0.59109  0.23855  0.34267  1.0000
