data_image0
_chemical_formula_structural       Mo4H48C48N8O12
_chemical_formula_sum              "Mo4 H48 C48 N8 O12"
_cell_length_a       3.79204
_cell_length_b       14.9265
_cell_length_c       20.4
_cell_angle_alpha    90
_cell_angle_beta     95.2752
_cell_angle_gamma    90

_space_group_name_H-M_alt    "P 1"
_space_group_IT_number       1

loop_
  _space_group_symop_operation_xyz
  'x, y, z'

loop_
  _atom_site_type_symbol
  _atom_site_label
  _atom_site_symmetry_multiplicity
  _atom_site_fract_x
  _atom_site_fract_y
  _atom_site_fract_z
  _atom_site_occupancy
  Mo  Mo1       1.0  0.11851  0.64645  0.32830  1.0000
  Mo  Mo2       1.0  0.88149  0.14645  0.17170  1.0000
  Mo  Mo3       1.0  0.88149  0.35355  0.67171  1.0000
  Mo  Mo4       1.0  0.11850  0.85355  0.82830  1.0000
  H   H1        1.0  0.96623  0.64489  0.17203  1.0000
  H   H2        1.0  0.03377  0.14489  0.32797  1.0000
  H   H3        1.0  0.03377  0.35511  0.82797  1.0000
  H   H4        1.0  0.96623  0.85511  0.67203  1.0000
  H   H5        1.0  0.13643  0.52807  0.45812  1.0000
  H   H6        1.0  0.86358  0.02808  0.04188  1.0000
  H   H7        1.0  0.86357  0.47193  0.54188  1.0000
  H   H8        1.0  0.13641  0.97193  0.95812  1.0000
  H   H9        1.0  0.33438  0.37622  0.50238  1.0000
  H   H10       1.0  0.66562  0.87623  0.99762  1.0000
  H   H11       1.0  0.66562  0.62377  0.49762  1.0000
  H   H12       1.0  0.33437  0.12378  0.00238  1.0000
  H   H13       1.0  0.43630  0.34019  0.20591  1.0000
  H   H14       1.0  0.56369  0.84019  0.29409  1.0000
  H   H15       1.0  0.56370  0.65981  0.79409  1.0000
  H   H16       1.0  0.43629  0.15981  0.70591  1.0000
  H   H17       1.0  0.50849  0.30232  0.30345  1.0000
  H   H18       1.0  0.49150  0.80233  0.19655  1.0000
  H   H19       1.0  0.49152  0.69767  0.69655  1.0000
  H   H20       1.0  0.50848  0.19767  0.80345  1.0000
  H   H21       1.0  0.05626  0.55037  0.07280  1.0000
  H   H22       1.0  0.94374  0.05037  0.42720  1.0000
  H   H23       1.0  0.94376  0.44964  0.92720  1.0000
  H   H24       1.0  0.05627  0.94962  0.57280  1.0000
  H   H25       1.0  0.49608  0.32108  0.08992  1.0000
  H   H26       1.0  0.50392  0.82108  0.41008  1.0000
  H   H27       1.0  0.50394  0.67893  0.91008  1.0000
  H   H28       1.0  0.49606  0.17892  0.58992  1.0000
  H   H29       1.0  0.47125  0.41874  0.03873  1.0000
  H   H30       1.0  0.52874  0.91874  0.46127  1.0000
  H   H31       1.0  0.52876  0.58126  0.96127  1.0000
  H   H32       1.0  0.47124  0.08125  0.53873  1.0000
  H   H33       1.0  0.08702  0.35423  0.04891  1.0000
  H   H34       1.0  0.91298  0.85423  0.45109  1.0000
  H   H35       1.0  0.91300  0.64578  0.95109  1.0000
  H   H36       1.0  0.08701  0.14576  0.54891  1.0000
  H   H37       1.0  0.61179  0.23859  0.48527  1.0000
  H   H38       1.0  0.38820  0.73860  0.01473  1.0000
  H   H39       1.0  0.38821  0.76141  0.51473  1.0000
  H   H40       1.0  0.61180  0.26141  0.98527  1.0000
  H   H41       1.0  0.85530  0.22975  0.41499  1.0000
  H   H42       1.0  0.14470  0.72976  0.08502  1.0000
  H   H43       1.0  0.14470  0.77025  0.58501  1.0000
  H   H44       1.0  0.85530  0.27025  0.91498  1.0000
  H   H45       1.0  0.42694  0.18371  0.41174  1.0000
  H   H46       1.0  0.57306  0.68372  0.08826  1.0000
  H   H47       1.0  0.57307  0.81629  0.58826  1.0000
  H   H48       1.0  0.42694  0.31629  0.91174  1.0000
  C   C1        1.0  0.06302  0.57619  0.17653  1.0000
  C   C2        1.0  0.93698  0.07619  0.32347  1.0000
  C   C3        1.0  0.93698  0.42381  0.82347  1.0000
  C   C4        1.0  0.06302  0.92380  0.67653  1.0000
  C   C5        1.0  0.29971  0.43459  0.31857  1.0000
  C   C6        1.0  0.70029  0.93460  0.18143  1.0000
  C   C7        1.0  0.70030  0.56541  0.68143  1.0000
  C   C8        1.0  0.29970  0.06541  0.81857  1.0000
  C   C9        1.0  0.44513  0.32826  0.40630  1.0000
  C   C10       1.0  0.55487  0.82826  0.09370  1.0000
  C   C11       1.0  0.55488  0.67174  0.59370  1.0000
  C   C12       1.0  0.44512  0.17174  0.90630  1.0000
  C   C13       1.0  0.21535  0.47494  0.42596  1.0000
  C   C14       1.0  0.78466  0.97495  0.07404  1.0000
  C   C15       1.0  0.78466  0.52506  0.57404  1.0000
  C   C16       1.0  0.21533  0.02506  0.92596  1.0000
  C   C17       1.0  0.32892  0.39170  0.45004  1.0000
  C   C18       1.0  0.67108  0.89170  0.04996  1.0000
  C   C19       1.0  0.67109  0.60830  0.54996  1.0000
  C   C20       1.0  0.32891  0.10830  0.95004  1.0000
  C   C21       1.0  0.25527  0.46265  0.24883  1.0000
  C   C22       1.0  0.74473  0.96265  0.25117  1.0000
  C   C23       1.0  0.74473  0.53735  0.75117  1.0000
  C   C24       1.0  0.25526  0.03735  0.74883  1.0000
  C   C25       1.0  0.32585  0.40686  0.19657  1.0000
  C   C26       1.0  0.67415  0.90686  0.30343  1.0000
  C   C27       1.0  0.67415  0.59315  0.80343  1.0000
  C   C28       1.0  0.32584  0.09314  0.69657  1.0000
  C   C29       1.0  0.42421  0.35020  0.33928  1.0000
  C   C30       1.0  0.57579  0.85021  0.16072  1.0000
  C   C31       1.0  0.57580  0.64980  0.66072  1.0000
  C   C32       1.0  0.42421  0.14979  0.83928  1.0000
  C   C33       1.0  0.25900  0.43724  0.13174  1.0000
  C   C34       1.0  0.74100  0.93724  0.36825  1.0000
  C   C35       1.0  0.74102  0.56276  0.86825  1.0000
  C   C36       1.0  0.25899  0.06275  0.63175  1.0000
  C   C37       1.0  0.11749  0.52350  0.12227  1.0000
  C   C38       1.0  0.88251  0.02350  0.37773  1.0000
  C   C39       1.0  0.88251  0.47650  0.87773  1.0000
  C   C40       1.0  0.11749  0.97649  0.62227  1.0000
  C   C41       1.0  0.33469  0.37971  0.07454  1.0000
  C   C42       1.0  0.66531  0.87971  0.42545  1.0000
  C   C43       1.0  0.66532  0.62029  0.92545  1.0000
  C   C44       1.0  0.33468  0.12028  0.57455  1.0000
  C   C45       1.0  0.59078  0.24013  0.43135  1.0000
  C   C46       1.0  0.40921  0.74014  0.06865  1.0000
  C   C47       1.0  0.40922  0.75987  0.56865  1.0000
  C   C48       1.0  0.59079  0.25987  0.93134  1.0000
  N   N1        1.0  0.20504  0.49645  0.36218  1.0000
  N   N2        1.0  0.79496  0.99645  0.13782  1.0000
  N   N3        1.0  0.79496  0.50355  0.63782  1.0000
  N   N4        1.0  0.20504  0.00355  0.86218  1.0000
  N   N5        1.0  0.13256  0.54692  0.23833  1.0000
  N   N6        1.0  0.86744  0.04692  0.26167  1.0000
  N   N7        1.0  0.86744  0.45308  0.76167  1.0000
  N   N8        1.0  0.13256  0.95307  0.73833  1.0000
  O   O1        1.0  0.64923  0.62022  0.32280  1.0000
  O   O2        1.0  0.35076  0.12022  0.17720  1.0000
  O   O3        1.0  0.35077  0.37978  0.67721  1.0000
  O   O4        1.0  0.64923  0.87978  0.82280  1.0000
  O   O5        1.0  0.13415  0.73704  0.27503  1.0000
  O   O6        1.0  0.86585  0.23704  0.22497  1.0000
  O   O7        1.0  0.86585  0.26296  0.72498  1.0000
  O   O8        1.0  0.13414  0.76296  0.77503  1.0000
  O   O9        1.0  0.19518  0.68633  0.40847  1.0000
  O   O10       1.0  0.80482  0.18634  0.09153  1.0000
  O   O11       1.0  0.80482  0.31367  0.59153  1.0000
  O   O12       1.0  0.19517  0.81367  0.90848  1.0000
