data_image0
_chemical_formula_structural       Cu3P4H18C10N4O16
_chemical_formula_sum              "Cu3 P4 H18 C10 N4 O16"
_cell_length_a       7.36684
_cell_length_b       8.18246
_cell_length_c       9.58992
_cell_angle_alpha    105.125
_cell_angle_beta     107.62
_cell_angle_gamma    100.889

_space_group_name_H-M_alt    "P 1"
_space_group_IT_number       1

loop_
  _space_group_symop_operation_xyz
  'x, y, z'

loop_
  _atom_site_type_symbol
  _atom_site_label
  _atom_site_symmetry_multiplicity
  _atom_site_fract_x
  _atom_site_fract_y
  _atom_site_fract_z
  _atom_site_occupancy
  Cu  Cu1       1.0  0.91817  0.24477  0.06641  1.0000
  Cu  Cu2       1.0  0.08244  0.75525  0.93401  1.0000
  Cu  Cu3       1.0  0.49980  0.00040  0.50083  1.0000
  P   P1        1.0  0.87808  0.99270  0.76327  1.0000
  P   P2        1.0  0.12209  0.00757  0.23680  1.0000
  P   P3        1.0  0.83593  0.35024  0.77232  1.0000
  P   P4        1.0  0.16405  0.64976  0.22800  1.0000
  H   H1        1.0  0.08762  0.38021  0.43346  1.0000
  H   H2        1.0  0.91243  0.61962  0.56632  1.0000
  H   H3        1.0  0.45576  0.42816  0.88541  1.0000
  H   H4        1.0  0.54414  0.57167  0.11448  1.0000
  H   H5        1.0  0.61350  0.71764  0.81135  1.0000
  H   H6        1.0  0.38653  0.28207  0.18868  1.0000
  H   H7        1.0  0.18424  0.10785  0.65280  1.0000
  H   H8        1.0  0.81536  0.89193  0.34684  1.0000
  H   H9        1.0  0.97214  0.15496  0.53882  1.0000
  H   H10       1.0  0.02721  0.84518  0.46151  1.0000
  H   H11       1.0  0.37189  0.66049  0.53066  1.0000
  H   H12       1.0  0.62858  0.33915  0.46906  1.0000
  H   H13       1.0  0.18844  0.42081  0.97938  1.0000
  H   H14       1.0  0.81244  0.57944  0.02119  1.0000
  H   H15       1.0  0.28344  0.94570  0.77357  1.0000
  H   H16       1.0  0.71623  0.05420  0.22590  1.0000
  H   H17       1.0  0.51753  0.99802  0.80946  1.0000
  H   H18       1.0  0.48247  0.00223  0.19100  1.0000
  C   C1        1.0  0.20345  0.43581  0.54836  1.0000
  C   C2        1.0  0.79669  0.56398  0.45143  1.0000
  C   C3        1.0  0.40142  0.46877  0.78618  1.0000
  C   C4        1.0  0.59851  0.53109  0.21371  1.0000
  C   C5        1.0  0.48099  0.60649  0.74625  1.0000
  C   C6        1.0  0.51898  0.39333  0.25364  1.0000
  C   C7        1.0  0.09640  0.20198  0.65110  1.0000
  C   C8        1.0  0.90350  0.79806  0.34892  1.0000
  C   C9        1.0  0.01541  0.21866  0.78254  1.0000
  C   C10       1.0  0.98509  0.78177  0.21783  1.0000
  N   N1        1.0  0.22710  0.36634  0.66241  1.0000
  N   N2        1.0  0.77287  0.63355  0.33741  1.0000
  N   N3        1.0  0.35574  0.58174  0.59807  1.0000
  N   N4        1.0  0.64439  0.41808  0.40177  1.0000
  O   O1        1.0  0.71557  0.91040  0.59985  1.0000
  O   O2        1.0  0.28482  0.09049  0.40007  1.0000
  O   O3        1.0  0.79026  0.02062  0.89269  1.0000
  O   O4        1.0  0.20981  0.97963  0.10728  1.0000
  O   O5        1.0  0.02792  0.88337  0.78336  1.0000
  O   O6        1.0  0.97139  0.11607  0.21599  1.0000
  O   O7        1.0  0.79077  0.36773  0.92296  1.0000
  O   O8        1.0  0.20836  0.63123  0.07677  1.0000
  O   O9        1.0  0.93427  0.53108  0.76716  1.0000
  O   O10       1.0  0.06330  0.46966  0.23310  1.0000
  O   O11       1.0  0.65607  0.25137  0.61919  1.0000
  O   O12       1.0  0.34535  0.74842  0.38012  1.0000
  O   O13       1.0  0.17028  0.29057  0.93431  1.0000
  O   O14       1.0  0.83043  0.70963  0.06593  1.0000
  O   O15       1.0  0.38515  0.97002  0.72900  1.0000
  O   O16       1.0  0.61515  0.03003  0.27103  1.0000
