data_image0
_chemical_formula_structural       Zn2H52C52N8O8
_chemical_formula_sum              "Zn2 H52 C52 N8 O8"
_cell_length_a       9.14023
_cell_length_b       11.6368
_cell_length_c       13.34
_cell_angle_alpha    64.0352
_cell_angle_beta     71.1749
_cell_angle_gamma    75.1757

_space_group_name_H-M_alt    "P 1"
_space_group_IT_number       1

loop_
  _space_group_symop_operation_xyz
  'x, y, z'

loop_
  _atom_site_type_symbol
  _atom_site_label
  _atom_site_symmetry_multiplicity
  _atom_site_fract_x
  _atom_site_fract_y
  _atom_site_fract_z
  _atom_site_occupancy
  Zn  Zn1       1.0  0.12290  0.79227  0.93376  1.0000
  Zn  Zn2       1.0  0.87712  0.20773  0.06622  1.0000
  H   H1        1.0  0.00046  0.88132  0.14451  1.0000
  H   H2        1.0  0.99954  0.11869  0.85550  1.0000
  H   H3        1.0  0.43064  0.70555  0.23529  1.0000
  H   H4        1.0  0.56936  0.29445  0.76471  1.0000
  H   H5        1.0  0.42801  0.67022  0.04148  1.0000
  H   H6        1.0  0.57198  0.32977  0.95852  1.0000
  H   H7        1.0  0.03711  0.90771  0.30699  1.0000
  H   H8        1.0  0.96289  0.09229  0.69301  1.0000
  H   H9        1.0  0.22964  0.92218  0.28923  1.0000
  H   H10       1.0  0.77037  0.07781  0.71077  1.0000
  H   H11       1.0  0.77083  0.73180  0.50929  1.0000
  H   H12       1.0  0.22917  0.26820  0.49070  1.0000
  H   H13       1.0  0.86348  0.63247  0.43188  1.0000
  H   H14       1.0  0.13651  0.36754  0.56811  1.0000
  H   H15       1.0  0.87987  0.79930  0.36666  1.0000
  H   H16       1.0  0.12013  0.20071  0.63334  1.0000
  H   H17       1.0  0.87800  0.44673  0.75260  1.0000
  H   H18       1.0  0.12200  0.55326  0.24738  1.0000
  H   H19       1.0  0.82803  0.49250  0.62203  1.0000
  H   H20       1.0  0.17199  0.50750  0.37795  1.0000
  H   H21       1.0  0.77506  0.60089  0.69169  1.0000
  H   H22       1.0  0.22492  0.39909  0.30830  1.0000
  H   H23       1.0  0.43007  0.48300  0.70216  1.0000
  H   H24       1.0  0.56992  0.51700  0.29784  1.0000
  H   H25       1.0  0.45283  0.64696  0.64150  1.0000
  H   H26       1.0  0.54716  0.35304  0.35851  1.0000
  H   H27       1.0  0.53912  0.55178  0.55897  1.0000
  H   H28       1.0  0.46086  0.44822  0.44103  1.0000
  H   H29       1.0  0.53516  0.69511  0.38673  1.0000
  H   H30       1.0  0.46483  0.30489  0.61327  1.0000
  H   H31       1.0  0.47104  0.80529  0.45437  1.0000
  H   H32       1.0  0.52895  0.19471  0.54563  1.0000
  H   H33       1.0  0.42874  0.84657  0.32180  1.0000
  H   H34       1.0  0.57125  0.15343  0.67821  1.0000
  H   H35       1.0  0.05619  0.38794  0.80044  1.0000
  H   H36       1.0  0.94381  0.61207  0.19956  1.0000
  H   H37       1.0  0.26005  0.36557  0.75622  1.0000
  H   H38       1.0  0.73993  0.63444  0.24378  1.0000
  H   H39       1.0  0.03650  0.67837  0.79050  1.0000
  H   H40       1.0  0.96348  0.32163  0.20951  1.0000
  H   H41       1.0  0.28531  0.49122  0.04976  1.0000
  H   H42       1.0  0.71470  0.50878  0.95024  1.0000
  H   H43       1.0  0.31227  0.32603  0.94295  1.0000
  H   H44       1.0  0.68774  0.67397  0.05704  1.0000
  H   H45       1.0  0.21138  0.01198  0.56609  1.0000
  H   H46       1.0  0.78865  0.98800  0.43391  1.0000
  H   H47       1.0  0.66100  0.87701  0.64295  1.0000
  H   H48       1.0  0.33902  0.12297  0.35705  1.0000
  H   H49       1.0  0.69736  0.96061  0.10731  1.0000
  H   H50       1.0  0.30265  0.03941  0.89269  1.0000
  H   H51       1.0  0.57146  0.92715  0.83861  1.0000
  H   H52       1.0  0.42855  0.07288  0.16138  1.0000
  C   C1        1.0  0.11592  0.82634  0.14330  1.0000
  C   C2        1.0  0.88409  0.17367  0.85670  1.0000
  C   C3        1.0  0.34255  0.73452  0.18784  1.0000
  C   C4        1.0  0.65745  0.26548  0.81216  1.0000
  C   C5        1.0  0.33943  0.71678  0.09347  1.0000
  C   C6        1.0  0.66057  0.28321  0.90653  1.0000
  C   C7        1.0  0.15293  0.85192  0.31096  1.0000
  C   C8        1.0  0.84707  0.14808  0.68904  1.0000
  C   C9        1.0  0.15440  0.74423  0.42738  1.0000
  C   C10       1.0  0.84559  0.25578  0.57262  1.0000
  C   C11       1.0  0.02036  0.68242  0.49239  1.0000
  C   C12       1.0  0.97963  0.31758  0.50761  1.0000
  C   C13       1.0  0.01856  0.58457  0.60319  1.0000
  C   C14       1.0  0.98144  0.41543  0.39680  1.0000
  C   C15       1.0  0.15405  0.54544  0.64521  1.0000
  C   C16       1.0  0.84594  0.45455  0.35479  1.0000
  C   C17       1.0  0.28922  0.60583  0.57903  1.0000
  C   C18       1.0  0.71076  0.39418  0.42097  1.0000
  C   C19       1.0  0.28935  0.70608  0.47016  1.0000
  C   C20       1.0  0.71064  0.29392  0.52984  1.0000
  C   C21       1.0  0.87744  0.71438  0.44704  1.0000
  C   C22       1.0  0.12256  0.28563  0.55295  1.0000
  C   C23       1.0  0.86882  0.52756  0.67132  1.0000
  C   C24       1.0  0.13118  0.47244  0.32867  1.0000
  C   C25       1.0  0.43429  0.56914  0.62280  1.0000
  C   C26       1.0  0.56570  0.43086  0.37721  1.0000
  C   C27       1.0  0.43691  0.76724  0.40417  1.0000
  C   C28       1.0  0.56309  0.23276  0.59583  1.0000
  C   C29       1.0  0.15831  0.43909  0.76219  1.0000
  C   C30       1.0  0.84168  0.56091  0.23781  1.0000
  C   C31       1.0  0.10797  0.60548  0.84627  1.0000
  C   C32       1.0  0.89201  0.39452  0.15374  1.0000
  C   C33       1.0  0.23782  0.50574  0.97977  1.0000
  C   C34       1.0  0.76218  0.49427  0.02023  1.0000
  C   C35       1.0  0.25351  0.42342  0.92730  1.0000
  C   C36       1.0  0.74647  0.57658  0.07271  1.0000
  C   C37       1.0  0.35436  0.87211  0.74257  1.0000
  C   C38       1.0  0.64565  0.12788  0.25743  1.0000
  C   C39       1.0  0.42853  0.93862  0.61706  1.0000
  C   C40       1.0  0.57149  0.06137  0.38293  1.0000
  C   C41       1.0  0.33780  0.00771  0.53640  1.0000
  C   C42       1.0  0.66222  0.99228  0.46359  1.0000
  C   C43       1.0  0.59154  0.93094  0.57948  1.0000
  C   C44       1.0  0.40848  0.06904  0.42051  1.0000
  C   C45       1.0  0.81273  0.87723  0.93174  1.0000
  C   C46       1.0  0.18727  0.12279  0.06825  1.0000
  C   C47       1.0  0.65027  0.93852  0.96901  1.0000
  C   C48       1.0  0.34974  0.06150  0.03100  1.0000
  C   C49       1.0  0.60963  0.97698  0.06165  1.0000
  C   C50       1.0  0.39037  0.02303  0.93836  1.0000
  C   C51       1.0  0.53953  0.96145  0.90789  1.0000
  C   C52       1.0  0.46048  0.03856  0.09211  1.0000
  N   N1        1.0  0.19749  0.77417  0.06684  1.0000
  N   N2        1.0  0.80251  0.22583  0.93316  1.0000
  N   N3        1.0  0.20062  0.80417  0.21804  1.0000
  N   N4        1.0  0.79937  0.19583  0.78197  1.0000
  N   N5        1.0  0.17124  0.48811  0.84304  1.0000
  N   N6        1.0  0.82875  0.51189  0.15697  1.0000
  N   N7        1.0  0.14680  0.61867  0.92844  1.0000
  N   N8        1.0  0.85321  0.38133  0.07156  1.0000
  O   O1        1.0  0.20888  0.91617  0.77698  1.0000
  O   O2        1.0  0.79114  0.08382  0.22300  1.0000
  O   O3        1.0  0.43140  0.78029  0.80628  1.0000
  O   O4        1.0  0.56862  0.21970  0.19373  1.0000
  O   O5        1.0  0.90600  0.85866  0.99493  1.0000
  O   O6        1.0  0.09402  0.14135  0.00506  1.0000
  O   O7        1.0  0.85064  0.84898  0.84561  1.0000
  O   O8        1.0  0.14934  0.15105  0.15439  1.0000
