data_image0
_chemical_formula_structural       Zn2H36C42N4O12
_chemical_formula_sum              "Zn2 H36 C42 N4 O12"
_cell_length_a       8.27896
_cell_length_b       10.194
_cell_length_c       13.2276
_cell_angle_alpha    67.1799
_cell_angle_beta     79.4907
_cell_angle_gamma    79.3421

_space_group_name_H-M_alt    "P 1"
_space_group_IT_number       1

loop_
  _space_group_symop_operation_xyz
  'x, y, z'

loop_
  _atom_site_type_symbol
  _atom_site_label
  _atom_site_symmetry_multiplicity
  _atom_site_fract_x
  _atom_site_fract_y
  _atom_site_fract_z
  _atom_site_occupancy
  Zn  Zn1       1.0  0.05509  0.57019  0.84420  1.0000
  Zn  Zn2       1.0  0.94491  0.42981  0.15580  1.0000
  H   H1        1.0  0.73623  0.74031  0.93941  1.0000
  H   H2        1.0  0.26376  0.25967  0.06060  1.0000
  H   H3        1.0  0.51398  0.79155  0.66112  1.0000
  H   H4        1.0  0.48601  0.20845  0.33888  1.0000
  H   H5        1.0  0.82447  0.62552  0.65814  1.0000
  H   H6        1.0  0.17552  0.37448  0.34186  1.0000
  H   H7        1.0  0.34366  0.80429  0.88520  1.0000
  H   H8        1.0  0.65633  0.19572  0.11480  1.0000
  H   H9        1.0  0.39560  0.96091  0.77409  1.0000
  H   H10       1.0  0.60440  0.03908  0.22590  1.0000
  H   H11       1.0  0.59036  0.08142  0.71561  1.0000
  H   H12       1.0  0.40964  0.91857  0.28439  1.0000
  H   H13       1.0  0.67179  0.21145  0.74198  1.0000
  H   H14       1.0  0.32821  0.78855  0.25802  1.0000
  H   H15       1.0  0.45875  0.23187  0.72920  1.0000
  H   H16       1.0  0.54125  0.76813  0.27080  1.0000
  H   H17       1.0  0.40510  0.66500  0.02766  1.0000
  H   H18       1.0  0.59490  0.33500  0.97234  1.0000
  H   H19       1.0  0.28721  0.70070  0.14201  1.0000
  H   H20       1.0  0.71278  0.29931  0.85798  1.0000
  H   H21       1.0  0.50066  0.63787  0.14448  1.0000
  H   H22       1.0  0.49934  0.36214  0.85552  1.0000
  H   H23       1.0  0.08848  0.96013  0.82295  1.0000
  H   H24       1.0  0.91151  0.03987  0.17705  1.0000
  H   H25       1.0  0.92329  0.79479  0.17178  1.0000
  H   H26       1.0  0.07671  0.20522  0.82821  1.0000
  H   H27       1.0  0.21859  0.47732  0.47214  1.0000
  H   H28       1.0  0.78142  0.52269  0.52786  1.0000
  H   H29       1.0  0.53854  0.53758  0.66805  1.0000
  H   H30       1.0  0.46147  0.46244  0.33195  1.0000
  H   H31       1.0  0.93760  0.64985  0.37436  1.0000
  H   H32       1.0  0.06240  0.35015  0.62563  1.0000
  H   H33       1.0  0.17881  0.78207  0.48470  1.0000
  H   H34       1.0  0.82120  0.21791  0.51530  1.0000
  H   H35       1.0  0.72614  0.07047  0.42951  1.0000
  H   H36       1.0  0.27386  0.92953  0.57050  1.0000
  C   C1        1.0  0.72165  0.73161  0.86270  1.0000
  C   C2        1.0  0.27834  0.26838  0.13731  1.0000
  C   C3        1.0  0.60778  0.75666  0.71662  1.0000
  C   C4        1.0  0.39220  0.24333  0.28338  1.0000
  C   C5        1.0  0.75914  0.67423  0.71622  1.0000
  C   C6        1.0  0.24085  0.32576  0.28379  1.0000
  C   C7        1.0  0.44050  0.87529  0.84776  1.0000
  C   C8        1.0  0.55950  0.12471  0.15223  1.0000
  C   C9        1.0  0.47662  0.93685  0.92742  1.0000
  C   C10       1.0  0.52338  0.06315  0.07257  1.0000
  C   C11       1.0  0.52948  0.07392  0.88479  1.0000
  C   C12       1.0  0.47052  0.92609  0.11521  1.0000
  C   C13       1.0  0.45047  0.86092  0.04242  1.0000
  C   C14       1.0  0.54952  0.13909  0.95758  1.0000
  C   C15       1.0  0.56439  0.15288  0.76214  1.0000
  C   C16       1.0  0.43561  0.84713  0.23785  1.0000
  C   C17       1.0  0.40825  0.70907  0.09062  1.0000
  C   C18       1.0  0.59174  0.29094  0.90937  1.0000
  C   C19       1.0  0.01656  0.71916  0.99454  1.0000
  C   C20       1.0  0.98343  0.28084  0.00546  1.0000
  C   C21       1.0  0.00829  0.86441  0.99725  1.0000
  C   C22       1.0  0.99171  0.13560  0.00275  1.0000
  C   C23       1.0  0.05024  0.97899  0.89988  1.0000
  C   C24       1.0  0.94976  0.02101  0.10012  1.0000
  C   C25       1.0  0.95692  0.88528  0.09750  1.0000
  C   C26       1.0  0.04308  0.11472  0.90250  1.0000
  C   C27       1.0  0.22187  0.51504  0.66424  1.0000
  C   C28       1.0  0.77813  0.48496  0.33576  1.0000
  C   C29       1.0  0.36470  0.50735  0.57893  1.0000
  C   C30       1.0  0.63531  0.49267  0.42107  1.0000
  C   C31       1.0  0.34233  0.48531  0.48452  1.0000
  C   C32       1.0  0.65768  0.51472  0.51547  1.0000
  C   C33       1.0  0.52295  0.52216  0.59368  1.0000
  C   C34       1.0  0.47706  0.47785  0.40632  1.0000
  C   C35       1.0  0.88301  0.83059  0.40240  1.0000
  C   C36       1.0  0.11699  0.16940  0.59760  1.0000
  C   C37       1.0  0.94605  0.91749  0.45209  1.0000
  C   C38       1.0  0.05396  0.08250  0.54791  1.0000
  C   C39       1.0  0.10094  0.87738  0.49170  1.0000
  C   C40       1.0  0.89906  0.12261  0.50830  1.0000
  C   C41       1.0  0.84600  0.04067  0.46062  1.0000
  C   C42       1.0  0.15400  0.95933  0.53939  1.0000
  N   N1        1.0  0.82902  0.65937  0.80799  1.0000
  N   N2        1.0  0.17097  0.34062  0.19201  1.0000
  N   N3        1.0  0.58708  0.79209  0.80941  1.0000
  N   N4        1.0  0.41292  0.20790  0.19059  1.0000
  O   O1        1.0  0.11583  0.68810  0.91865  1.0000
  O   O2        1.0  0.88416  0.31191  0.08135  1.0000
  O   O3        1.0  0.91880  0.63665  0.06724  1.0000
  O   O4        1.0  0.08121  0.36334  0.93277  1.0000
  O   O5        1.0  0.24088  0.57917  0.72764  1.0000
  O   O6        1.0  0.75912  0.42082  0.27237  1.0000
  O   O7        1.0  0.09116  0.46219  0.67239  1.0000
  O   O8        1.0  0.90885  0.53781  0.32760  1.0000
  O   O9        1.0  0.98484  0.71148  0.40514  1.0000
  O   O10       1.0  0.01516  0.28852  0.59486  1.0000
  O   O11       1.0  0.74985  0.86582  0.36371  1.0000
  O   O12       1.0  0.25018  0.13418  0.63628  1.0000
