data_image0
_chemical_formula_structural       Zn3H38C48N4O12
_chemical_formula_sum              "Zn3 H38 C48 N4 O12"
_cell_length_a       9.6719
_cell_length_b       9.91353
_cell_length_c       13.4437
_cell_angle_alpha    105.024
_cell_angle_beta     104.395
_cell_angle_gamma    104.816

_space_group_name_H-M_alt    "P 1"
_space_group_IT_number       1

loop_
  _space_group_symop_operation_xyz
  'x, y, z'

loop_
  _atom_site_type_symbol
  _atom_site_label
  _atom_site_symmetry_multiplicity
  _atom_site_fract_x
  _atom_site_fract_y
  _atom_site_fract_z
  _atom_site_occupancy
  Zn  Zn1       1.0  1.00000  1.00000  1.00000  1.0000
  Zn  Zn2       1.0  0.71310  0.99399  0.75174  1.0000
  Zn  Zn3       1.0  0.28690  0.00601  0.24826  1.0000
  H   H1        1.0  0.33837  0.65758  0.97857  1.0000
  H   H2        1.0  0.66162  0.34242  0.02143  1.0000
  H   H3        1.0  0.58475  0.48322  0.78224  1.0000
  H   H4        1.0  0.41525  0.51678  0.21776  1.0000
  H   H5        1.0  0.16085  0.19721  0.77113  1.0000
  H   H6        1.0  0.83915  0.80279  0.22887  1.0000
  H   H7        1.0  0.13333  0.46566  0.00269  1.0000
  H   H8        1.0  0.86667  0.53434  0.99731  1.0000
  H   H9        1.0  0.02249  0.46334  0.87503  1.0000
  H   H10       1.0  0.97751  0.53666  0.12497  1.0000
  H   H11       1.0  0.56269  0.81242  0.99117  1.0000
  H   H12       1.0  0.43731  0.18758  0.00883  1.0000
  H   H13       1.0  0.70279  0.73253  0.97967  1.0000
  H   H14       1.0  0.29721  0.26747  0.02033  1.0000
  H   H15       1.0  0.43163  0.22990  0.62718  1.0000
  H   H16       1.0  0.56837  0.77010  0.37282  1.0000
  H   H17       1.0  0.27987  0.10814  0.64502  1.0000
  H   H18       1.0  0.72013  0.89186  0.35498  1.0000
  H   H19       1.0  0.96349  0.02912  0.65531  1.0000
  H   H20       1.0  0.03651  0.97088  0.34469  1.0000
  H   H21       1.0  0.04808  0.87023  0.52272  1.0000
  H   H22       1.0  0.95192  0.12977  0.47728  1.0000
  H   H23       1.0  0.64604  0.50400  0.46380  1.0000
  H   H24       1.0  0.35396  0.49600  0.53620  1.0000
  H   H25       1.0  0.58366  0.67783  0.60271  1.0000
  H   H26       1.0  0.41634  0.32217  0.39729  1.0000
  H   H27       1.0  0.01367  0.63176  0.39926  1.0000
  H   H28       1.0  0.98633  0.36824  0.60074  1.0000
  H   H29       1.0  0.71367  0.37884  0.34898  1.0000
  H   H30       1.0  0.28633  0.62116  0.65102  1.0000
  H   H31       1.0  0.09253  0.49456  0.29308  1.0000
  H   H32       1.0  0.90747  0.50544  0.70692  1.0000
  H   H33       1.0  0.15061  0.31337  0.15897  1.0000
  H   H34       1.0  0.84939  0.68663  0.84103  1.0000
  H   H35       1.0  0.75775  0.97402  0.10593  1.0000
  H   H36       1.0  0.24225  0.02598  0.89407  1.0000
  H   H37       1.0  0.67479  0.14274  0.23104  1.0000
  H   H38       1.0  0.32521  0.85726  0.76896  1.0000
  C   C1        1.0  0.23198  0.42550  0.87693  1.0000
  C   C2        1.0  0.76802  0.57450  0.12307  1.0000
  C   C3        1.0  0.34601  0.56485  0.91776  1.0000
  C   C4        1.0  0.65399  0.43515  0.08224  1.0000
  C   C5        1.0  0.47280  0.58703  0.88390  1.0000
  C   C6        1.0  0.52720  0.41297  0.11610  1.0000
  C   C7        1.0  0.48556  0.46711  0.80889  1.0000
  C   C8        1.0  0.51444  0.53289  0.19111  1.0000
  C   C9        1.0  0.37416  0.32609  0.76804  1.0000
  C   C10       1.0  0.62584  0.67391  0.23196  1.0000
  C   C11       1.0  0.24760  0.30738  0.80254  1.0000
  C   C12       1.0  0.75241  0.69262  0.19746  1.0000
  C   C13       1.0  0.09465  0.40885  0.91369  1.0000
  C   C14       1.0  0.90535  0.59115  0.08631  1.0000
  C   C15       1.0  0.00158  0.24748  0.88623  1.0000
  C   C16       1.0  0.99842  0.75252  0.11377  1.0000
  C   C17       1.0  0.59485  0.73736  0.93210  1.0000
  C   C18       1.0  0.40515  0.26264  0.06790  1.0000
  C   C19       1.0  0.62703  0.81224  0.85167  1.0000
  C   C20       1.0  0.37297  0.18776  0.14833  1.0000
  C   C21       1.0  0.39090  0.19738  0.68974  1.0000
  C   C22       1.0  0.60910  0.80262  0.31026  1.0000
  C   C23       1.0  0.49850  0.12598  0.74292  1.0000
  C   C24       1.0  0.50150  0.87402  0.25708  1.0000
  C   C25       1.0  0.89721  0.91174  0.61081  1.0000
  C   C26       1.0  0.10279  0.08826  0.38919  1.0000
  C   C27       1.0  0.94262  0.82278  0.53652  1.0000
  C   C28       1.0  0.05738  0.17722  0.46348  1.0000
  C   C29       1.0  0.85427  0.67167  0.48071  1.0000
  C   C30       1.0  0.14573  0.32833  0.51929  1.0000
  C   C31       1.0  0.72038  0.61952  0.50395  1.0000
  C   C32       1.0  0.27963  0.38048  0.49605  1.0000
  C   C33       1.0  0.68354  0.71482  0.57989  1.0000
  C   C34       1.0  0.31646  0.28518  0.42011  1.0000
  C   C35       1.0  0.90418  0.57736  0.40556  1.0000
  C   C36       1.0  0.09582  0.42264  0.59444  1.0000
  C   C37       1.0  0.82580  0.43223  0.34639  1.0000
  C   C38       1.0  0.17420  0.56777  0.65361  1.0000
  C   C39       1.0  0.87573  0.33492  0.27330  1.0000
  C   C40       1.0  0.12427  0.66508  0.72670  1.0000
  C   C41       1.0  0.01320  0.38080  0.25306  1.0000
  C   C42       1.0  0.98680  0.61920  0.74694  1.0000
  C   C43       1.0  0.04759  0.28017  0.17900  1.0000
  C   C44       1.0  0.95241  0.71983  0.82100  1.0000
  C   C45       1.0  0.82738  0.09060  0.14790  1.0000
  C   C46       1.0  0.17262  0.90940  0.85210  1.0000
  C   C47       1.0  0.78291  0.18491  0.21918  1.0000
  C   C48       1.0  0.21709  0.81509  0.78082  1.0000
  N   N1        1.0  0.77048  0.85929  0.63366  1.0000
  N   N2        1.0  0.22952  0.14071  0.36634  1.0000
  N   N3        1.0  0.95637  0.13722  0.12618  1.0000
  N   N4        1.0  0.04363  0.86278  0.87382  1.0000
  O   O1        1.0  0.05177  0.18231  0.94905  1.0000
  O   O2        1.0  0.94822  0.81769  0.05095  1.0000
  O   O3        1.0  0.88410  0.18932  0.80022  1.0000
  O   O4        1.0  0.11590  0.81068  0.19978  1.0000
  O   O5        1.0  0.55138  0.05339  0.67529  1.0000
  O   O6        1.0  0.44862  0.94661  0.32471  1.0000
  O   O7        1.0  0.52752  0.13715  0.84114  1.0000
  O   O8        1.0  0.47248  0.86285  0.15886  1.0000
  O   O9        1.0  0.53676  0.77098  0.75573  1.0000
  O   O10       1.0  0.46324  0.22902  0.24427  1.0000
  O   O11       1.0  0.75249  0.92623  0.88616  1.0000
  O   O12       1.0  0.24751  0.07377  0.11384  1.0000
