data_image0
_chemical_formula_structural       Cd3H34C44N4O12
_chemical_formula_sum              "Cd3 H34 C44 N4 O12"
_cell_length_a       9.52867
_cell_length_b       9.80689
_cell_length_c       12.9603
_cell_angle_alpha    71.7668
_cell_angle_beta     68.8446
_cell_angle_gamma    78.0424

_space_group_name_H-M_alt    "P 1"
_space_group_IT_number       1

loop_
  _space_group_symop_operation_xyz
  'x, y, z'

loop_
  _atom_site_type_symbol
  _atom_site_label
  _atom_site_symmetry_multiplicity
  _atom_site_fract_x
  _atom_site_fract_y
  _atom_site_fract_z
  _atom_site_occupancy
  Cd  Cd1       1.0  0.00000  0.00000  1.00000  1.0000
  Cd  Cd2       1.0  0.31374  0.18459  0.73720  1.0000
  Cd  Cd3       1.0  0.68626  0.81541  0.26280  1.0000
  H   H1        1.0  0.87797  0.42821  0.71297  1.0000
  H   H2        1.0  0.12203  0.57179  0.28703  1.0000
  H   H3        1.0  0.67724  0.66122  0.97221  1.0000
  H   H4        1.0  0.32276  0.33878  0.02779  1.0000
  H   H5        1.0  0.42531  0.64073  0.76191  1.0000
  H   H6        1.0  0.57469  0.35927  0.23809  1.0000
  H   H7        1.0  0.75079  0.43233  0.58452  1.0000
  H   H8        1.0  0.24921  0.56767  0.41548  1.0000
  H   H9        1.0  0.59926  0.56535  0.56934  1.0000
  H   H10       1.0  0.40074  0.43465  0.43066  1.0000
  H   H11       1.0  0.01620  0.58320  0.82783  1.0000
  H   H12       1.0  0.98380  0.41680  0.17217  1.0000
  H   H13       1.0  0.90370  0.50701  0.97002  1.0000
  H   H14       1.0  0.09629  0.49299  0.02998  1.0000
  H   H15       1.0  0.42873  0.76891  0.00749  1.0000
  H   H16       1.0  0.57127  0.23108  0.99251  1.0000
  H   H17       1.0  0.30185  0.70458  0.96830  1.0000
  H   H18       1.0  0.69814  0.29542  0.03170  1.0000
  H   H19       1.0  0.24337  0.86110  0.13519  1.0000
  H   H20       1.0  0.75663  0.13890  0.86481  1.0000
  H   H21       1.0  0.32594  0.90223  0.28269  1.0000
  H   H22       1.0  0.67406  0.09776  0.71731  1.0000
  H   H23       1.0  0.93490  0.21926  0.34122  1.0000
  H   H24       1.0  0.06510  0.78074  0.65878  1.0000
  H   H25       1.0  0.87784  0.17375  0.18415  1.0000
  H   H26       1.0  0.12216  0.82625  0.81585  1.0000
  H   H27       1.0  0.09400  0.31991  0.58885  1.0000
  H   H28       1.0  0.90600  0.68009  0.41115  1.0000
  H   H29       1.0  0.02887  0.29010  0.42867  1.0000
  H   H30       1.0  0.97113  0.70990  0.57132  1.0000
  H   H31       1.0  0.33456  0.89409  0.44211  1.0000
  H   H32       1.0  0.66544  0.10591  0.55789  1.0000
  H   H33       1.0  0.38781  0.94491  0.59929  1.0000
  H   H34       1.0  0.61219  0.05509  0.40071  1.0000
  C   C1        1.0  0.65065  0.52969  0.72637  1.0000
  C   C2        1.0  0.34935  0.47031  0.27363  1.0000
  C   C3        1.0  0.78258  0.49458  0.75737  1.0000
  C   C4        1.0  0.21742  0.50542  0.24263  1.0000
  C   C5        1.0  0.79397  0.54145  0.84532  1.0000
  C   C6        1.0  0.20603  0.45855  0.15468  1.0000
  C   C7        1.0  0.67085  0.62569  0.90223  1.0000
  C   C8        1.0  0.32915  0.37431  0.09777  1.0000
  C   C9        1.0  0.53837  0.66311  0.87213  1.0000
  C   C10       1.0  0.46163  0.33689  0.12787  1.0000
  C   C11       1.0  0.52933  0.61403  0.78465  1.0000
  C   C12       1.0  0.47067  0.38597  0.21535  1.0000
  C   C13       1.0  0.63917  0.47690  0.63281  1.0000
  C   C14       1.0  0.36083  0.52310  0.36719  1.0000
  C   C15       1.0  0.53155  0.36151  0.67266  1.0000
  C   C16       1.0  0.46845  0.63849  0.32733  1.0000
  C   C17       1.0  0.93535  0.50338  0.88068  1.0000
  C   C18       1.0  0.06465  0.49662  0.11931  1.0000
  C   C19       1.0  0.01448  0.35443  0.86952  1.0000
  C   C20       1.0  0.98552  0.64557  0.13048  1.0000
  C   C21       1.0  0.40805  0.75534  0.93315  1.0000
  C   C22       1.0  0.59195  0.24466  0.06685  1.0000
  C   C23       1.0  0.37725  0.90488  0.85887  1.0000
  C   C24       1.0  0.62275  0.09512  0.14113  1.0000
  C   C25       1.0  0.17893  0.94025  0.18265  1.0000
  C   C26       1.0  0.82107  0.05975  0.81735  1.0000
  C   C27       1.0  0.22308  0.96231  0.26672  1.0000
  C   C28       1.0  0.77692  0.03769  0.73328  1.0000
  C   C29       1.0  0.13647  0.06404  0.32731  1.0000
  C   C30       1.0  0.86353  0.93596  0.67269  1.0000
  C   C31       1.0  0.00919  0.14032  0.29716  1.0000
  C   C32       1.0  0.99081  0.85968  0.70284  1.0000
  C   C33       1.0  0.97433  0.11382  0.21067  1.0000
  C   C34       1.0  0.02567  0.88618  0.78933  1.0000
  C   C35       1.0  0.14452  0.22772  0.55271  1.0000
  C   C36       1.0  0.85548  0.77228  0.44729  1.0000
  C   C37       1.0  0.10788  0.20890  0.46404  1.0000
  C   C38       1.0  0.89212  0.79111  0.53596  1.0000
  C   C39       1.0  0.17529  0.08853  0.42013  1.0000
  C   C40       1.0  0.82471  0.91147  0.57987  1.0000
  C   C41       1.0  0.27834  0.99140  0.46981  1.0000
  C   C42       1.0  0.72166  0.00859  0.53019  1.0000
  C   C43       1.0  0.30925  0.01838  0.55804  1.0000
  C   C44       1.0  0.69075  0.98162  0.44196  1.0000
  N   N1        1.0  0.05660  0.01471  0.15463  1.0000
  N   N2        1.0  0.94340  0.98529  0.84537  1.0000
  N   N3        1.0  0.24409  0.13443  0.59916  1.0000
  N   N4        1.0  0.75591  0.86557  0.40084  1.0000
  O   O1        1.0  0.51966  0.31261  0.59579  1.0000
  O   O2        1.0  0.48034  0.68739  0.40421  1.0000
  O   O3        1.0  0.45688  0.31842  0.77851  1.0000
  O   O4        1.0  0.54312  0.68158  0.22149  1.0000
  O   O5        1.0  0.97771  0.24943  0.95747  1.0000
  O   O6        1.0  0.02229  0.75057  0.04253  1.0000
  O   O7        1.0  0.10943  0.34767  0.77167  1.0000
  O   O8        1.0  0.89057  0.65233  0.22833  1.0000
  O   O9        1.0  0.26438  0.98989  0.90457  1.0000
  O   O10       1.0  0.73562  0.01011  0.09543  1.0000
  O   O11       1.0  0.45988  0.94607  0.75641  1.0000
  O   O12       1.0  0.54012  0.05393  0.24359  1.0000
