data_image0
_chemical_formula_structural       Cd2H40C34S2N8O12
_chemical_formula_sum              "Cd2 H40 C34 S2 N8 O12"
_cell_length_a       8.96805
_cell_length_b       10.8917
_cell_length_c       12.8817
_cell_angle_alpha    67.9013
_cell_angle_beta     75.7248
_cell_angle_gamma    67.7988

_space_group_name_H-M_alt    "P 1"
_space_group_IT_number       1

loop_
  _space_group_symop_operation_xyz
  'x, y, z'

loop_
  _atom_site_type_symbol
  _atom_site_label
  _atom_site_symmetry_multiplicity
  _atom_site_fract_x
  _atom_site_fract_y
  _atom_site_fract_z
  _atom_site_occupancy
  Cd  Cd1       1.0  0.65523  0.88272  0.66975  1.0000
  Cd  Cd2       1.0  0.34477  0.11728  0.33025  1.0000
  H   H1        1.0  0.05808  0.74349  0.66621  1.0000
  H   H2        1.0  0.94192  0.25651  0.33379  1.0000
  H   H3        1.0  0.60505  0.59431  0.64344  1.0000
  H   H4        1.0  0.39494  0.40569  0.35656  1.0000
  H   H5        1.0  0.67192  0.35457  0.62718  1.0000
  H   H6        1.0  0.32808  0.64543  0.37281  1.0000
  H   H7        1.0  0.95242  0.19308  0.62942  1.0000
  H   H8        1.0  0.04758  0.80692  0.37058  1.0000
  H   H9        1.0  0.17984  0.26238  0.64125  1.0000
  H   H10       1.0  0.82016  0.73762  0.35875  1.0000
  H   H11       1.0  0.33393  0.57642  0.60297  1.0000
  H   H12       1.0  0.66606  0.42358  0.39703  1.0000
  H   H13       1.0  0.34019  0.40440  0.61933  1.0000
  H   H14       1.0  0.65981  0.59560  0.38067  1.0000
  H   H15       1.0  0.28520  0.52573  0.81185  1.0000
  H   H16       1.0  0.71480  0.47427  0.18815  1.0000
  H   H17       1.0  0.46840  0.41045  0.76877  1.0000
  H   H18       1.0  0.53160  0.58955  0.23123  1.0000
  H   H19       1.0  0.15157  0.34106  0.87798  1.0000
  H   H20       1.0  0.84843  0.65894  0.12203  1.0000
  H   H21       1.0  0.31633  0.23432  0.81065  1.0000
  H   H22       1.0  0.68367  0.76568  0.18935  1.0000
  H   H23       1.0  0.16670  0.30735  0.08081  1.0000
  H   H24       1.0  0.83331  0.69265  0.91920  1.0000
  H   H25       1.0  0.62818  0.14454  0.79509  1.0000
  H   H26       1.0  0.37182  0.85546  0.20491  1.0000
  H   H27       1.0  0.89294  0.98877  0.86140  1.0000
  H   H28       1.0  0.10706  0.01123  0.13860  1.0000
  H   H29       1.0  0.93514  0.91692  0.06169  1.0000
  H   H30       1.0  0.06487  0.08308  0.93831  1.0000
  H   H31       1.0  0.71513  0.00342  0.20211  1.0000
  H   H32       1.0  0.28487  0.99658  0.79789  1.0000
  H   H33       1.0  0.53805  0.16067  0.56535  1.0000
  H   H34       1.0  0.46195  0.83933  0.43465  1.0000
  H   H35       1.0  0.39328  0.09799  0.59101  1.0000
  H   H36       1.0  0.60672  0.90201  0.40899  1.0000
  H   H37       1.0  0.94752  0.96662  0.66316  1.0000
  H   H38       1.0  0.05248  0.03338  0.33684  1.0000
  H   H39       1.0  0.81146  0.07723  0.58121  1.0000
  H   H40       1.0  0.18854  0.92277  0.41879  1.0000
  C   C1        1.0  0.01272  0.66667  0.66101  1.0000
  C   C2        1.0  0.98728  0.33333  0.33899  1.0000
  C   C3        1.0  0.85671  0.56032  0.65088  1.0000
  C   C4        1.0  0.14328  0.43969  0.34912  1.0000
  C   C5        1.0  0.72858  0.52177  0.64286  1.0000
  C   C6        1.0  0.27142  0.47823  0.35714  1.0000
  C   C7        1.0  0.76728  0.38892  0.63465  1.0000
  C   C8        1.0  0.23272  0.61108  0.36535  1.0000
  C   C9        1.0  0.92771  0.29641  0.63484  1.0000
  C   C10       1.0  0.07229  0.70360  0.36516  1.0000
  C   C11       1.0  0.05609  0.33383  0.64202  1.0000
  C   C12       1.0  0.94391  0.66618  0.35797  1.0000
  C   C13       1.0  0.01784  0.46720  0.64939  1.0000
  C   C14       1.0  0.98216  0.53281  0.35061  1.0000
  C   C15       1.0  0.28870  0.48925  0.65704  1.0000
  C   C16       1.0  0.71130  0.51075  0.34296  1.0000
  C   C17       1.0  0.33581  0.43925  0.77575  1.0000
  C   C18       1.0  0.66419  0.56075  0.22425  1.0000
  C   C19       1.0  0.28341  0.31288  0.85356  1.0000
  C   C20       1.0  0.71659  0.68712  0.14644  1.0000
  C   C21       1.0  0.29380  0.25127  0.06208  1.0000
  C   C22       1.0  0.70620  0.74873  0.93792  1.0000
  C   C23       1.0  0.52256  0.16262  0.96321  1.0000
  C   C24       1.0  0.47744  0.83738  0.03680  1.0000
  C   C25       1.0  0.64555  0.11674  0.88275  1.0000
  C   C26       1.0  0.35445  0.88325  0.11725  1.0000
  C   C27       1.0  0.79361  0.02775  0.92120  1.0000
  C   C28       1.0  0.20639  0.97224  0.07880  1.0000
  C   C29       1.0  0.81743  0.98709  0.03513  1.0000
  C   C30       1.0  0.18257  0.01291  0.96487  1.0000
  C   C31       1.0  0.69507  0.03383  0.11484  1.0000
  C   C32       1.0  0.30493  0.96616  0.88516  1.0000
  C   C33       1.0  0.54496  0.12189  0.07786  1.0000
  C   C34       1.0  0.45504  0.87811  0.92214  1.0000
  S   S1        1.0  0.28879  0.88832  0.61168  1.0000
  S   S2        1.0  0.71121  0.11168  0.38833  1.0000
  N   N1        1.0  0.85853  0.68361  0.65905  1.0000
  N   N2        1.0  0.14147  0.31639  0.34095  1.0000
  N   N3        1.0  0.11315  0.53880  0.65560  1.0000
  N   N4        1.0  0.88685  0.46121  0.34439  1.0000
  N   N5        1.0  0.36127  0.24573  0.95632  1.0000
  N   N6        1.0  0.63874  0.75426  0.04368  1.0000
  N   N7        1.0  0.39894  0.17915  0.13713  1.0000
  N   N8        1.0  0.60106  0.82084  0.86287  1.0000
  O   O1        1.0  0.43686  0.81514  0.67041  1.0000
  O   O2        1.0  0.56314  0.18485  0.32959  1.0000
  O   O3        1.0  0.14139  0.88848  0.69448  1.0000
  O   O4        1.0  0.85861  0.11151  0.30552  1.0000
  O   O5        1.0  0.28423  0.03621  0.54301  1.0000
  O   O6        1.0  0.71577  0.96378  0.45700  1.0000
  O   O7        1.0  0.29637  0.81270  0.53263  1.0000
  O   O8        1.0  0.70363  0.18729  0.46737  1.0000
  O   O9        1.0  0.46691  0.11431  0.62803  1.0000
  O   O10       1.0  0.53309  0.88569  0.37197  1.0000
  O   O11       1.0  0.82869  0.00760  0.65733  1.0000
  O   O12       1.0  0.17131  0.99241  0.34267  1.0000
