data_image0
_chemical_formula_structural       Cd2H32C38Br2N4O10
_chemical_formula_sum              "Cd2 H32 C38 Br2 N4 O10"
_cell_length_a       8.67236
_cell_length_b       11.6521
_cell_length_c       12.0095
_cell_angle_alpha    66.2292
_cell_angle_beta     76.7505
_cell_angle_gamma    71.4652

_space_group_name_H-M_alt    "P 1"
_space_group_IT_number       1

loop_
  _space_group_symop_operation_xyz
  'x, y, z'

loop_
  _atom_site_type_symbol
  _atom_site_label
  _atom_site_symmetry_multiplicity
  _atom_site_fract_x
  _atom_site_fract_y
  _atom_site_fract_z
  _atom_site_occupancy
  Cd  Cd1       1.0  0.63433  0.71211  0.35660  1.0000
  Cd  Cd2       1.0  0.36568  0.28790  0.64339  1.0000
  H   H1        1.0  0.94960  0.92822  0.34587  1.0000
  H   H2        1.0  0.05041  0.07178  0.65411  1.0000
  H   H3        1.0  0.27571  0.92718  0.56800  1.0000
  H   H4        1.0  0.72430  0.07281  0.43200  1.0000
  H   H5        1.0  0.69614  0.55332  0.04114  1.0000
  H   H6        1.0  0.30384  0.44669  0.95885  1.0000
  H   H7        1.0  0.15765  0.54306  0.12130  1.0000
  H   H8        1.0  0.84233  0.45695  0.87870  1.0000
  H   H9        1.0  0.51265  0.82329  0.55549  1.0000
  H   H10       1.0  0.48736  0.17671  0.44451  1.0000
  H   H11       1.0  0.98321  0.60897  0.49080  1.0000
  H   H12       1.0  0.01679  0.39102  0.50921  1.0000
  H   H13       1.0  0.58824  0.87148  0.71498  1.0000
  H   H14       1.0  0.41177  0.12851  0.28502  1.0000
  H   H15       1.0  0.07997  0.63975  0.65103  1.0000
  H   H16       1.0  0.92004  0.36023  0.34898  1.0000
  H   H17       1.0  0.64309  0.86845  0.86572  1.0000
  H   H18       1.0  0.35691  0.13154  0.13430  1.0000
  H   H19       1.0  0.15537  0.72560  0.74689  1.0000
  H   H20       1.0  0.84463  0.27437  0.25313  1.0000
  H   H21       1.0  0.73402  0.93459  0.00639  1.0000
  H   H22       1.0  0.26598  0.06542  0.99361  1.0000
  H   H23       1.0  0.22456  0.80675  0.88686  1.0000
  H   H24       1.0  0.77543  0.19324  0.11314  1.0000
  H   H25       1.0  0.15774  0.88945  0.03098  1.0000
  H   H26       1.0  0.84227  0.11056  0.96901  1.0000
  H   H27       1.0  0.96139  0.88872  0.11950  1.0000
  H   H28       1.0  0.03862  0.11129  0.88050  1.0000
  H   H29       1.0  0.68615  0.46321  0.58430  1.0000
  H   H30       1.0  0.31386  0.53680  0.41568  1.0000
  H   H31       1.0  0.65406  0.40461  0.49938  1.0000
  H   H32       1.0  0.34595  0.59540  0.50061  1.0000
  C   C1        1.0  0.26345  0.83088  0.39428  1.0000
  C   C2        1.0  0.73658  0.16910  0.60570  1.0000
  C   C3        1.0  0.12828  0.91717  0.45066  1.0000
  C   C4        1.0  0.87173  0.08283  0.54935  1.0000
  C   C5        1.0  0.97155  0.95999  0.41340  1.0000
  C   C6        1.0  0.02843  0.04002  0.58659  1.0000
  C   C7        1.0  0.15483  0.95839  0.53804  1.0000
  C   C8        1.0  0.84517  0.04162  0.46197  1.0000
  C   C9        1.0  0.83294  0.61057  0.18683  1.0000
  C   C10       1.0  0.16705  0.38944  0.81318  1.0000
  C   C11       1.0  0.91891  0.55362  0.09001  1.0000
  C   C12       1.0  0.08108  0.44638  0.90999  1.0000
  C   C13       1.0  0.82926  0.52935  0.02211  1.0000
  C   C14       1.0  0.17073  0.47065  0.97788  1.0000
  C   C15       1.0  0.09026  0.52387  0.06717  1.0000
  C   C16       1.0  0.90974  0.47613  0.93281  1.0000
  C   C17       1.0  0.63683  0.78491  0.58080  1.0000
  C   C18       1.0  0.36316  0.21510  0.41920  1.0000
  C   C19       1.0  0.89853  0.66422  0.54447  1.0000
  C   C20       1.0  0.10146  0.33577  0.45554  1.0000
  C   C21       1.0  0.68067  0.80865  0.67176  1.0000
  C   C22       1.0  0.31933  0.19134  0.32824  1.0000
  C   C23       1.0  0.95237  0.68329  0.63490  1.0000
  C   C24       1.0  0.04761  0.31670  0.36512  1.0000
  C   C25       1.0  0.84252  0.75796  0.70051  1.0000
  C   C26       1.0  0.15748  0.24202  0.29950  1.0000
  C   C27       1.0  0.89197  0.79070  0.79146  1.0000
  C   C28       1.0  0.10802  0.20929  0.20856  1.0000
  C   C29       1.0  0.77399  0.84958  0.86734  1.0000
  C   C30       1.0  0.22600  0.15041  0.13266  1.0000
  C   C31       1.0  0.05716  0.77084  0.80213  1.0000
  C   C32       1.0  0.94282  0.22915  0.19789  1.0000
  C   C33       1.0  0.82075  0.88996  0.94464  1.0000
  C   C34       1.0  0.17925  0.11004  0.05537  1.0000
  C   C35       1.0  0.09878  0.81402  0.87986  1.0000
  C   C36       1.0  0.90121  0.18597  0.12014  1.0000
  C   C37       1.0  0.02533  0.92555  0.02715  1.0000
  C   C38       1.0  0.97466  0.07446  0.97285  1.0000
  Br  Br1       1.0  0.64583  0.96484  0.22197  1.0000
  Br  Br2       1.0  0.35419  0.03516  0.77803  1.0000
  N   N1        1.0  0.74340  0.71426  0.51738  1.0000
  N   N2        1.0  0.25660  0.28574  0.48263  1.0000
  N   N3        1.0  0.98143  0.87373  0.94877  1.0000
  N   N4        1.0  0.01856  0.12627  0.05124  1.0000
  O   O1        1.0  0.25797  0.83579  0.28977  1.0000
  O   O2        1.0  0.74202  0.16421  0.71022  1.0000
  O   O3        1.0  0.38019  0.75356  0.46336  1.0000
  O   O4        1.0  0.61983  0.24644  0.53667  1.0000
  O   O5        1.0  0.67778  0.62089  0.21366  1.0000
  O   O6        1.0  0.32220  0.37912  0.78633  1.0000
  O   O7        1.0  0.91457  0.64499  0.23729  1.0000
  O   O8        1.0  0.08545  0.35502  0.76270  1.0000
  O   O9        1.0  0.69337  0.47655  0.49808  1.0000
  O   O10       1.0  0.30665  0.52345  0.50191  1.0000
