data_image0
_chemical_formula_structural       Cd2H48C60Br4N8O8
_chemical_formula_sum              "Cd2 H48 C60 Br4 N8 O8"
_cell_length_a       8.32377
_cell_length_b       10.7644
_cell_length_c       19.9504
_cell_angle_alpha    94.1645
_cell_angle_beta     102.367
_cell_angle_gamma    94.7359

_space_group_name_H-M_alt    "P 1"
_space_group_IT_number       1

loop_
  _space_group_symop_operation_xyz
  'x, y, z'

loop_
  _atom_site_type_symbol
  _atom_site_label
  _atom_site_symmetry_multiplicity
  _atom_site_fract_x
  _atom_site_fract_y
  _atom_site_fract_z
  _atom_site_occupancy
  Cd  Cd1       1.0  0.22643  0.79599  0.13906  1.0000
  Cd  Cd2       1.0  0.77357  0.20401  0.86095  1.0000
  H   H1        1.0  0.40104  0.01835  0.25666  1.0000
  H   H2        1.0  0.59898  0.98165  0.74334  1.0000
  H   H3        1.0  0.26284  0.03535  0.04434  1.0000
  H   H4        1.0  0.73716  0.96466  0.95566  1.0000
  H   H5        1.0  0.52547  0.23283  0.27569  1.0000
  H   H6        1.0  0.47454  0.76717  0.72431  1.0000
  H   H7        1.0  0.37911  0.25650  0.05444  1.0000
  H   H8        1.0  0.62089  0.74350  0.94556  1.0000
  H   H9        1.0  0.50785  0.43421  0.28048  1.0000
  H   H10       1.0  0.49214  0.56579  0.71952  1.0000
  H   H11       1.0  0.60720  0.39806  0.07533  1.0000
  H   H12       1.0  0.39279  0.60193  0.92467  1.0000
  H   H13       1.0  0.66462  0.64616  0.29845  1.0000
  H   H14       1.0  0.33538  0.35385  0.70155  1.0000
  H   H15       1.0  0.75748  0.61326  0.10175  1.0000
  H   H16       1.0  0.24253  0.38674  0.89825  1.0000
  H   H17       1.0  0.89825  0.75933  0.17899  1.0000
  H   H18       1.0  0.10175  0.24066  0.82101  1.0000
  H   H19       1.0  0.89011  0.76607  0.26740  1.0000
  H   H20       1.0  0.10989  0.23393  0.73260  1.0000
  H   H21       1.0  0.60357  0.83071  0.15419  1.0000
  H   H22       1.0  0.39643  0.16928  0.84580  1.0000
  H   H23       1.0  0.63632  0.87531  0.24386  1.0000
  H   H24       1.0  0.36367  0.12468  0.75613  1.0000
  H   H25       1.0  0.64589  0.97309  0.09112  1.0000
  H   H26       1.0  0.35410  0.02690  0.90887  1.0000
  H   H27       1.0  0.94350  0.99268  0.29144  1.0000
  H   H28       1.0  0.05650  0.00732  0.70856  1.0000
  H   H29       1.0  0.77764  0.18057  0.07090  1.0000
  H   H30       1.0  0.22235  0.81943  0.92909  1.0000
  H   H31       1.0  0.09309  0.18552  0.27708  1.0000
  H   H32       1.0  0.90690  0.81448  0.72292  1.0000
  H   H33       1.0  0.00922  0.30293  0.05564  1.0000
  H   H34       1.0  0.99078  0.69707  0.94436  1.0000
  H   H35       1.0  0.04721  0.39566  0.27411  1.0000
  H   H36       1.0  0.95277  0.60433  0.72589  1.0000
  H   H37       1.0  0.12059  0.52358  0.05027  1.0000
  H   H38       1.0  0.87941  0.47642  0.94973  1.0000
  H   H39       1.0  0.14946  0.61252  0.25805  1.0000
  H   H40       1.0  0.85054  0.38748  0.74195  1.0000
  H   H41       1.0  0.30801  0.97225  0.50627  1.0000
  H   H42       1.0  0.69198  0.02775  0.49373  1.0000
  H   H43       1.0  0.44767  0.79692  0.55867  1.0000
  H   H44       1.0  0.55234  0.20310  0.44133  1.0000
  H   H45       1.0  0.51052  0.61957  0.48289  1.0000
  H   H46       1.0  0.48948  0.38044  0.51711  1.0000
  H   H47       1.0  0.44546  0.62842  0.35548  1.0000
  H   H48       1.0  0.55454  0.37159  0.64453  1.0000
  C   C1        1.0  0.40272  0.07075  0.21211  1.0000
  C   C2        1.0  0.59729  0.92924  0.78789  1.0000
  C   C3        1.0  0.32553  0.08234  0.09455  1.0000
  C   C4        1.0  0.67448  0.91767  0.90545  1.0000
  C   C5        1.0  0.47028  0.19503  0.22287  1.0000
  C   C6        1.0  0.52973  0.80497  0.77714  1.0000
  C   C7        1.0  0.39074  0.20702  0.10073  1.0000
  C   C8        1.0  0.60926  0.79298  0.89927  1.0000
  C   C9        1.0  0.46766  0.26567  0.16639  1.0000
  C   C10       1.0  0.53234  0.73432  0.83361  1.0000
  C   C11       1.0  0.54712  0.39534  0.17674  1.0000
  C   C12       1.0  0.45289  0.60466  0.82326  1.0000
  C   C13       1.0  0.56325  0.46838  0.23972  1.0000
  C   C14       1.0  0.43675  0.53162  0.76028  1.0000
  C   C15       1.0  0.61510  0.44899  0.12555  1.0000
  C   C16       1.0  0.38490  0.55101  0.87445  1.0000
  C   C17       1.0  0.64919  0.58587  0.25092  1.0000
  C   C18       1.0  0.35082  0.41413  0.74908  1.0000
  C   C19       1.0  0.69944  0.56734  0.13882  1.0000
  C   C20       1.0  0.30056  0.43265  0.86118  1.0000
  C   C21       1.0  0.81506  0.75645  0.21468  1.0000
  C   C22       1.0  0.18494  0.24355  0.78532  1.0000
  C   C23       1.0  0.69851  0.85920  0.20135  1.0000
  C   C24       1.0  0.30148  0.14079  0.79865  1.0000
  C   C25       1.0  0.74441  0.02668  0.12967  1.0000
  C   C26       1.0  0.25559  0.97331  0.87032  1.0000
  C   C27       1.0  0.91006  0.03427  0.24232  1.0000
  C   C28       1.0  0.08994  0.96573  0.75768  1.0000
  C   C29       1.0  0.81986  0.14073  0.11972  1.0000
  C   C30       1.0  0.18013  0.85926  0.88028  1.0000
  C   C31       1.0  0.99166  0.14734  0.23421  1.0000
  C   C32       1.0  0.00833  0.85266  0.76579  1.0000
  C   C33       1.0  0.94427  0.20441  0.17296  1.0000
  C   C34       1.0  0.05572  0.79559  0.82703  1.0000
  C   C35       1.0  0.01664  0.33090  0.16581  1.0000
  C   C36       1.0  0.98336  0.66910  0.83419  1.0000
  C   C37       1.0  0.03704  0.36845  0.10203  1.0000
  C   C38       1.0  0.96295  0.63155  0.89797  1.0000
  C   C39       1.0  0.06138  0.41961  0.22337  1.0000
  C   C40       1.0  0.93861  0.58039  0.77663  1.0000
  C   C41       1.0  0.09926  0.49131  0.09858  1.0000
  C   C42       1.0  0.90074  0.50869  0.90142  1.0000
  C   C43       1.0  0.11888  0.54091  0.21465  1.0000
  C   C44       1.0  0.88112  0.45909  0.78535  1.0000
  C   C45       1.0  0.34566  0.80659  0.35961  1.0000
  C   C46       1.0  0.65434  0.19341  0.64039  1.0000
  C   C47       1.0  0.30477  0.90430  0.40197  1.0000
  C   C48       1.0  0.69524  0.09570  0.59803  1.0000
  C   C49       1.0  0.33910  0.89672  0.47339  1.0000
  C   C50       1.0  0.66090  0.10328  0.52661  1.0000
  C   C51       1.0  0.41446  0.79649  0.50269  1.0000
  C   C52       1.0  0.58555  0.20352  0.49731  1.0000
  C   C53       1.0  0.45286  0.69891  0.46043  1.0000
  C   C54       1.0  0.54714  0.30110  0.53957  1.0000
  C   C55       1.0  0.41844  0.70451  0.38932  1.0000
  C   C56       1.0  0.58156  0.29549  0.61068  1.0000
  C   C57       1.0  0.30988  0.80642  0.28318  1.0000
  C   C58       1.0  0.69013  0.19358  0.71682  1.0000
  C   C59       1.0  0.23091  0.01907  0.37326  1.0000
  C   C60       1.0  0.76910  0.98093  0.62674  1.0000
  Br  Br1       1.0  0.39884  0.72563  0.04413  1.0000
  Br  Br2       1.0  0.60116  0.27436  0.95587  1.0000
  Br  Br3       1.0  0.93516  0.81565  0.05487  1.0000
  Br  Br4       1.0  0.06484  0.18435  0.94513  1.0000
  N   N1        1.0  0.33356  0.01423  0.14900  1.0000
  N   N2        1.0  0.66645  0.98577  0.85100  1.0000
  N   N3        1.0  0.71906  0.63241  0.20138  1.0000
  N   N4        1.0  0.28094  0.36759  0.79862  1.0000
  N   N5        1.0  0.78767  0.97709  0.19085  1.0000
  N   N6        1.0  0.21233  0.02290  0.80914  1.0000
  N   N7        1.0  0.13726  0.57703  0.15342  1.0000
  N   N8        1.0  0.86274  0.42297  0.84658  1.0000
  O   O1        1.0  0.41261  0.76352  0.24992  1.0000
  O   O2        1.0  0.58739  0.23648  0.75008  1.0000
  O   O3        1.0  0.17502  0.84458  0.25139  1.0000
  O   O4        1.0  0.82498  0.15542  0.74861  1.0000
  O   O5        1.0  0.32221  0.09226  0.34650  1.0000
  O   O6        1.0  0.67779  0.90774  0.65350  1.0000
  O   O7        1.0  0.08488  0.03148  0.37953  1.0000
  O   O8        1.0  0.91512  0.96852  0.62047  1.0000
