data_image0
_chemical_formula_structural       Cd6H36C30S6N12Cl12O6
_chemical_formula_sum              "Cd6 H36 C30 S6 N12 Cl12 O6"
_cell_length_a       9.46003
_cell_length_b       13.8231
_cell_length_c       13.8035
_cell_angle_alpha    114.804
_cell_angle_beta     103.48
_cell_angle_gamma    103.05

_space_group_name_H-M_alt    "P 1"
_space_group_IT_number       1

loop_
  _space_group_symop_operation_xyz
  'x, y, z'

loop_
  _atom_site_type_symbol
  _atom_site_label
  _atom_site_symmetry_multiplicity
  _atom_site_fract_x
  _atom_site_fract_y
  _atom_site_fract_z
  _atom_site_occupancy
  Cd  Cd1       1.0  0.65414  0.24160  0.64446  1.0000
  Cd  Cd2       1.0  0.41297  0.40327  0.75833  1.0000
  Cd  Cd3       1.0  0.00957  0.35515  0.59763  1.0000
  Cd  Cd4       1.0  0.91247  0.75832  0.40279  1.0000
  Cd  Cd5       1.0  0.50967  0.59670  0.35509  1.0000
  Cd  Cd6       1.0  0.15445  0.64484  0.24245  1.0000
  H   H1        1.0  0.31844  0.12185  0.55097  1.0000
  H   H2        1.0  0.19757  0.43004  0.87824  1.0000
  H   H3        1.0  0.76712  0.44854  0.57003  1.0000
  H   H4        1.0  0.69658  0.87809  0.42915  1.0000
  H   H5        1.0  0.26753  0.57008  0.44832  1.0000
  H   H6        1.0  0.81863  0.55147  0.12143  1.0000
  H   H7        1.0  0.37603  0.03808  0.45306  1.0000
  H   H8        1.0  0.33977  0.41622  0.96271  1.0000
  H   H9        1.0  0.92309  0.54624  0.58445  1.0000
  H   H10       1.0  0.83791  0.96185  0.41499  1.0000
  H   H11       1.0  0.42353  0.58386  0.54658  1.0000
  H   H12       1.0  0.87691  0.45376  0.03815  1.0000
  H   H13       1.0  0.29170  0.97398  0.58640  1.0000
  H   H14       1.0  0.31864  0.61292  0.02660  1.0000
  H   H15       1.0  0.70478  0.41310  0.38656  1.0000
  H   H16       1.0  0.81776  0.02597  0.61246  1.0000
  H   H17       1.0  0.20561  0.38720  0.41376  1.0000
  H   H18       1.0  0.79180  0.58690  0.97339  1.0000
  H   H19       1.0  0.64561  0.79144  0.83288  1.0000
  H   H20       1.0  0.85263  0.04005  0.20756  1.0000
  H   H21       1.0  0.81241  0.16756  0.95964  1.0000
  H   H22       1.0  0.35420  0.20834  0.04141  1.0000
  H   H23       1.0  0.31272  0.96006  0.16754  1.0000
  H   H24       1.0  0.14466  0.83230  0.79182  1.0000
  H   H25       1.0  0.34071  0.71875  0.72587  1.0000
  H   H26       1.0  0.62204  0.00697  0.28112  1.0000
  H   H27       1.0  0.61401  0.27398  0.99193  1.0000
  H   H28       1.0  0.12220  0.28123  0.00712  1.0000
  H   H29       1.0  0.11516  0.99301  0.27418  1.0000
  H   H30       1.0  0.83986  0.72610  0.71804  1.0000
  H   H31       1.0  0.26950  0.83097  0.61940  1.0000
  H   H32       1.0  0.43954  0.78897  0.16965  1.0000
  H   H33       1.0  0.64967  0.38049  0.21031  1.0000
  H   H34       1.0  0.93892  0.16918  0.78840  1.0000
  H   H35       1.0  0.15031  0.21095  0.38063  1.0000
  H   H36       1.0  0.76919  0.61972  0.83001  1.0000
  C   C1        1.0  0.58479  0.82325  0.78314  1.0000
  C   C2        1.0  0.76052  0.95893  0.17615  1.0000
  C   C3        1.0  0.80129  0.21715  0.04080  1.0000
  C   C4        1.0  0.26165  0.17664  0.95987  1.0000
  C   C5        1.0  0.30163  0.04115  0.21723  1.0000
  C   C6        1.0  0.08404  0.78279  0.82349  1.0000
  C   C7        1.0  0.42564  0.78747  0.72710  1.0000
  C   C8        1.0  0.63802  0.93929  0.21242  1.0000
  C   C9        1.0  0.69793  0.27291  0.06003  1.0000
  C   C10       1.0  0.13841  0.21253  0.93963  1.0000
  C   C11       1.0  0.19864  0.06072  0.27308  1.0000
  C   C12       1.0  0.92497  0.72717  0.78714  1.0000
  C   C13       1.0  0.38807  0.84850  0.67093  1.0000
  C   C14       1.0  0.53993  0.82249  0.15177  1.0000
  C   C15       1.0  0.71673  0.32909  0.17704  1.0000
  C   C16       1.0  0.03986  0.15154  0.82240  1.0000
  C   C17       1.0  0.21717  0.17748  0.32920  1.0000
  C   C18       1.0  0.88767  0.67102  0.84803  1.0000
  C   C19       1.0  0.51948  0.93099  0.68648  1.0000
  C   C20       1.0  0.58839  0.75526  0.06910  1.0000
  C   C21       1.0  0.83299  0.31379  0.24484  1.0000
  C   C22       1.0  0.08868  0.06896  0.75545  1.0000
  C   C23       1.0  0.33286  0.24476  0.31382  1.0000
  C   C24       1.0  0.01925  0.68624  0.93104  1.0000
  C   C25       1.0  0.53260  0.01099  0.64319  1.0000
  C   C26       1.0  0.52171  0.63228  0.98917  1.0000
  C   C27       1.0  0.88961  0.35704  0.36822  1.0000
  C   C28       1.0  0.02169  0.98898  0.63218  1.0000
  C   C29       1.0  0.38929  0.36776  0.35695  1.0000
  C   C30       1.0  0.03270  0.64301  0.01119  1.0000
  S   S1        1.0  0.68830  0.93083  0.76813  1.0000
  S   S2        1.0  0.75632  0.83629  0.06869  1.0000
  S   S3        1.0  0.92025  0.23245  0.16415  1.0000
  S   S4        1.0  0.25754  0.06903  0.83727  1.0000
  S   S5        1.0  0.41992  0.16383  0.23244  1.0000
  S   S6        1.0  0.18782  0.76749  0.93154  1.0000
  N   N1        1.0  0.40280  0.08669  0.53978  1.0000
  N   N2        1.0  0.31723  0.45391  0.91361  1.0000
  N   N3        1.0  0.86293  0.45979  0.54655  1.0000
  N   N4        1.0  0.81610  0.91324  0.45309  1.0000
  N   N5        1.0  0.36328  0.54617  0.45980  1.0000
  N   N6        1.0  0.90320  0.54022  0.08671  1.0000
  N   N7        1.0  0.39868  0.01591  0.58892  1.0000
  N   N8        1.0  0.38337  0.57352  0.98428  1.0000
  N   N9        1.0  0.80976  0.41097  0.42660  1.0000
  N   N10       1.0  0.88280  0.98403  0.57303  1.0000
  N   N11       1.0  0.30978  0.42658  0.41087  1.0000
  N   N12       1.0  0.89889  0.58904  0.01559  1.0000
  Cl  Cl1       1.0  0.56965  0.29733  0.82301  1.0000
  Cl  Cl2       1.0  0.27137  0.52588  0.70245  1.0000
  Cl  Cl3       1.0  0.74534  0.17683  0.47417  1.0000
  Cl  Cl4       1.0  0.77232  0.70258  0.52565  1.0000
  Cl  Cl5       1.0  0.24544  0.47408  0.17662  1.0000
  Cl  Cl6       1.0  0.06850  0.82314  0.29731  1.0000
  Cl  Cl7       1.0  0.56434  0.39973  0.62015  1.0000
  Cl  Cl8       1.0  0.16509  0.22074  0.60089  1.0000
  Cl  Cl9       1.0  0.94434  0.38002  0.77975  1.0000
  Cl  Cl10      1.0  0.66456  0.60021  0.22040  1.0000
  Cl  Cl11      1.0  0.44436  0.77923  0.38015  1.0000
  Cl  Cl12      1.0  0.06430  0.61995  0.39970  1.0000
  O   O1        1.0  0.66514  0.07278  0.65622  1.0000
  O   O2        1.0  0.59220  0.58338  0.92727  1.0000
  O   O3        1.0  0.00950  0.34420  0.41775  1.0000
  O   O4        1.0  0.09236  0.92716  0.58335  1.0000
  O   O5        1.0  0.50872  0.41661  0.34396  1.0000
  O   O6        1.0  0.16543  0.65587  0.07356  1.0000
