data_image0
_chemical_formula_structural       Ag4H40C52S4N8O16F12
_chemical_formula_sum              "Ag4 H40 C52 S4 N8 O16 F12"
_cell_length_a       9.13772
_cell_length_b       10.2359
_cell_length_c       16.4755
_cell_angle_alpha    90
_cell_angle_beta     101.201
_cell_angle_gamma    90

_space_group_name_H-M_alt    "P 1"
_space_group_IT_number       1

loop_
  _space_group_symop_operation_xyz
  'x, y, z'

loop_
  _atom_site_type_symbol
  _atom_site_label
  _atom_site_symmetry_multiplicity
  _atom_site_fract_x
  _atom_site_fract_y
  _atom_site_fract_z
  _atom_site_occupancy
  Ag  Ag1       1.0  0.53746  0.59074  0.11182  1.0000
  Ag  Ag2       1.0  0.46254  0.09073  0.38818  1.0000
  Ag  Ag3       1.0  0.46254  0.40927  0.88818  1.0000
  Ag  Ag4       1.0  0.53746  0.90926  0.61182  1.0000
  H   H1        1.0  0.86325  0.61613  0.16242  1.0000
  H   H2        1.0  0.13675  0.11614  0.33758  1.0000
  H   H3        1.0  0.13675  0.38387  0.83758  1.0000
  H   H4        1.0  0.86325  0.88387  0.66242  1.0000
  H   H5        1.0  0.08815  0.50661  0.24473  1.0000
  H   H6        1.0  0.91185  0.00662  0.25526  1.0000
  H   H7        1.0  0.91185  0.49339  0.75526  1.0000
  H   H8        1.0  0.08815  0.99339  0.74474  1.0000
  H   H9        1.0  0.05105  0.31184  0.33034  1.0000
  H   H10       1.0  0.94894  0.81184  0.16966  1.0000
  H   H11       1.0  0.94895  0.68816  0.66966  1.0000
  H   H12       1.0  0.05105  0.18816  0.83034  1.0000
  H   H13       1.0  0.79057  0.22984  0.32704  1.0000
  H   H14       1.0  0.20942  0.72985  0.17297  1.0000
  H   H15       1.0  0.20943  0.77016  0.67296  1.0000
  H   H16       1.0  0.79057  0.27016  0.82704  1.0000
  H   H17       1.0  0.53016  0.23172  0.25259  1.0000
  H   H18       1.0  0.46983  0.73172  0.24741  1.0000
  H   H19       1.0  0.46984  0.76828  0.74740  1.0000
  H   H20       1.0  0.53016  0.26828  0.75260  1.0000
  H   H21       1.0  0.46121  0.36031  0.18128  1.0000
  H   H22       1.0  0.53878  0.86031  0.31872  1.0000
  H   H23       1.0  0.53879  0.63970  0.81872  1.0000
  H   H24       1.0  0.46121  0.13970  0.68128  1.0000
  H   H25       1.0  0.64337  0.58929  0.41823  1.0000
  H   H26       1.0  0.35663  0.08929  0.08177  1.0000
  H   H27       1.0  0.35663  0.41071  0.58177  1.0000
  H   H28       1.0  0.64336  0.91071  0.91823  1.0000
  H   H29       1.0  0.82205  0.55475  0.55331  1.0000
  H   H30       1.0  0.17795  0.05475  0.94669  1.0000
  H   H31       1.0  0.17795  0.44525  0.44669  1.0000
  H   H32       1.0  0.82205  0.94525  0.05331  1.0000
  H   H33       1.0  0.83772  0.33068  0.61771  1.0000
  H   H34       1.0  0.16228  0.83068  0.88229  1.0000
  H   H35       1.0  0.16228  0.66932  0.38229  1.0000
  H   H36       1.0  0.83772  0.16932  0.11771  1.0000
  H   H37       1.0  0.67817  0.15167  0.54397  1.0000
  H   H38       1.0  0.32184  0.65166  0.95603  1.0000
  H   H39       1.0  0.32184  0.84834  0.45603  1.0000
  H   H40       1.0  0.67817  0.34833  0.04397  1.0000
  C   C1        1.0  0.85225  0.53201  0.20104  1.0000
  C   C2        1.0  0.14775  0.03201  0.29896  1.0000
  C   C3        1.0  0.14776  0.46799  0.79896  1.0000
  C   C4        1.0  0.85224  0.96799  0.70104  1.0000
  C   C5        1.0  0.97686  0.47151  0.24777  1.0000
  C   C6        1.0  0.02314  0.97151  0.25223  1.0000
  C   C7        1.0  0.02314  0.52850  0.75223  1.0000
  C   C8        1.0  0.97686  0.02850  0.74777  1.0000
  C   C9        1.0  0.95527  0.36214  0.29432  1.0000
  C   C10       1.0  0.04473  0.86214  0.20568  1.0000
  C   C11       1.0  0.04473  0.63786  0.70568  1.0000
  C   C12       1.0  0.95526  0.13786  0.79432  1.0000
  C   C13       1.0  0.81077  0.31703  0.29265  1.0000
  C   C14       1.0  0.18922  0.81703  0.20735  1.0000
  C   C15       1.0  0.18923  0.68297  0.70734  1.0000
  C   C16       1.0  0.81077  0.18297  0.79265  1.0000
  C   C17       1.0  0.69081  0.38309  0.24412  1.0000
  C   C18       1.0  0.30919  0.88310  0.25588  1.0000
  C   C19       1.0  0.30920  0.61691  0.75588  1.0000
  C   C20       1.0  0.69080  0.11690  0.74412  1.0000
  C   C21       1.0  0.53448  0.33708  0.24080  1.0000
  C   C22       1.0  0.46552  0.83708  0.25920  1.0000
  C   C23       1.0  0.46553  0.66292  0.75920  1.0000
  C   C24       1.0  0.53447  0.16292  0.74080  1.0000
  C   C25       1.0  0.57139  0.38866  0.41321  1.0000
  C   C26       1.0  0.42861  0.88866  0.08679  1.0000
  C   C27       1.0  0.42861  0.61134  0.58679  1.0000
  C   C28       1.0  0.57139  0.11134  0.91321  1.0000
  C   C29       1.0  0.65564  0.49457  0.44857  1.0000
  C   C30       1.0  0.34436  0.99457  0.05143  1.0000
  C   C31       1.0  0.34436  0.50543  0.55143  1.0000
  C   C32       1.0  0.65564  0.00543  0.94857  1.0000
  C   C33       1.0  0.75435  0.47433  0.52348  1.0000
  C   C34       1.0  0.24565  0.97433  0.97652  1.0000
  C   C35       1.0  0.24565  0.52567  0.47652  1.0000
  C   C36       1.0  0.75435  0.02567  0.02348  1.0000
  C   C37       1.0  0.76279  0.35060  0.55916  1.0000
  C   C38       1.0  0.23721  0.85059  0.94084  1.0000
  C   C39       1.0  0.23721  0.64941  0.44083  1.0000
  C   C40       1.0  0.76279  0.14940  0.05916  1.0000
  C   C41       1.0  0.67401  0.25032  0.51876  1.0000
  C   C42       1.0  0.32599  0.75032  0.98124  1.0000
  C   C43       1.0  0.32600  0.74968  0.48124  1.0000
  C   C44       1.0  0.67400  0.24968  0.01876  1.0000
  C   C45       1.0  0.24712  0.44230  0.07085  1.0000
  C   C46       1.0  0.75288  0.94230  0.42915  1.0000
  C   C47       1.0  0.75288  0.55769  0.92915  1.0000
  C   C48       1.0  0.24712  0.05769  0.57085  1.0000
  C   C49       1.0  0.11852  0.33987  0.05091  1.0000
  C   C50       1.0  0.88148  0.83987  0.44909  1.0000
  C   C51       1.0  0.88148  0.66013  0.94909  1.0000
  C   C52       1.0  0.11852  0.16013  0.55091  1.0000
  S   S1        1.0  0.44270  0.41329  0.31633  1.0000
  S   S2        1.0  0.55730  0.91329  0.18367  1.0000
  S   S3        1.0  0.55730  0.58671  0.68367  1.0000
  S   S4        1.0  0.44270  0.08671  0.81633  1.0000
  N   N1        1.0  0.71187  0.48937  0.19865  1.0000
  N   N2        1.0  0.28813  0.98938  0.30135  1.0000
  N   N3        1.0  0.28813  0.51063  0.80135  1.0000
  N   N4        1.0  0.71186  0.01062  0.69865  1.0000
  N   N5        1.0  0.57939  0.26861  0.44623  1.0000
  N   N6        1.0  0.42062  0.76861  0.05377  1.0000
  N   N7        1.0  0.42061  0.73139  0.55377  1.0000
  N   N8        1.0  0.57939  0.23139  0.94623  1.0000
  O   O1        1.0  0.30682  0.34064  0.31758  1.0000
  O   O2        1.0  0.69318  0.84064  0.18242  1.0000
  O   O3        1.0  0.69318  0.65936  0.68242  1.0000
  O   O4        1.0  0.30682  0.15936  0.81758  1.0000
  O   O5        1.0  0.43493  0.55345  0.30371  1.0000
  O   O6        1.0  0.56507  0.05345  0.19630  1.0000
  O   O7        1.0  0.56507  0.44655  0.69629  1.0000
  O   O8        1.0  0.43493  0.94655  0.80370  1.0000
  O   O9        1.0  0.35868  0.41860  0.03772  1.0000
  O   O10       1.0  0.64132  0.91860  0.46228  1.0000
  O   O11       1.0  0.64132  0.58140  0.96228  1.0000
  O   O12       1.0  0.35869  0.08140  0.53772  1.0000
  O   O13       1.0  0.22960  0.53026  0.12060  1.0000
  O   O14       1.0  0.77040  0.03027  0.37940  1.0000
  O   O15       1.0  0.77040  0.46973  0.87940  1.0000
  O   O16       1.0  0.22960  0.96973  0.62060  1.0000
  F   F1        1.0  0.98325  0.38832  0.05818  1.0000
  F   F2        1.0  0.01676  0.88832  0.44183  1.0000
  F   F3        1.0  0.01675  0.61168  0.94182  1.0000
  F   F4        1.0  0.98325  0.11168  0.55818  1.0000
  F   F5        1.0  0.14795  0.23688  0.10564  1.0000
  F   F6        1.0  0.85205  0.73688  0.39436  1.0000
  F   F7        1.0  0.85205  0.76312  0.89436  1.0000
  F   F8        1.0  0.14795  0.26312  0.60564  1.0000
  F   F9        1.0  0.10243  0.28723  0.97332  1.0000
  F   F10       1.0  0.89757  0.78723  0.52668  1.0000
  F   F11       1.0  0.89757  0.71277  0.02668  1.0000
  F   F12       1.0  0.10243  0.21277  0.47333  1.0000
