data_image0
_chemical_formula_structural       Cu4H40C44S4N8Cl8O8
_chemical_formula_sum              "Cu4 H40 C44 S4 N8 Cl8 O8"
_cell_length_a       7.67906
_cell_length_b       12.6546
_cell_length_c       13.6358
_cell_angle_alpha    90
_cell_angle_beta     90
_cell_angle_gamma    100.2

_space_group_name_H-M_alt    "P 1"
_space_group_IT_number       1

loop_
  _space_group_symop_operation_xyz
  'x, y, z'

loop_
  _atom_site_type_symbol
  _atom_site_label
  _atom_site_symmetry_multiplicity
  _atom_site_fract_x
  _atom_site_fract_y
  _atom_site_fract_z
  _atom_site_occupancy
  Cu  Cu1       1.0  0.32886  0.45967  0.78306  1.0000
  Cu  Cu2       1.0  0.17114  0.04033  0.28306  1.0000
  Cu  Cu3       1.0  0.67114  0.54033  0.21694  1.0000
  Cu  Cu4       1.0  0.82886  0.95967  0.71694  1.0000
  H   H1        1.0  0.47912  0.36485  0.62119  1.0000
  H   H2        1.0  0.02088  0.13515  0.12119  1.0000
  H   H3        1.0  0.52088  0.63515  0.37881  1.0000
  H   H4        1.0  0.97912  0.86485  0.87881  1.0000
  H   H5        1.0  0.72019  0.41569  0.49535  1.0000
  H   H6        1.0  0.77981  0.08432  0.99536  1.0000
  H   H7        1.0  0.27981  0.58431  0.50464  1.0000
  H   H8        1.0  0.22019  0.91569  0.00465  1.0000
  H   H9        1.0  0.89705  0.60096  0.49797  1.0000
  H   H10       1.0  0.60295  0.89904  0.99797  1.0000
  H   H11       1.0  0.10295  0.39904  0.50203  1.0000
  H   H12       1.0  0.39704  0.10096  0.00203  1.0000
  H   H13       1.0  0.83321  0.72978  0.62801  1.0000
  H   H14       1.0  0.66679  0.77022  0.12801  1.0000
  H   H15       1.0  0.16679  0.27022  0.37200  1.0000
  H   H16       1.0  0.33321  0.22978  0.87199  1.0000
  H   H17       1.0  0.30100  0.74849  0.71406  1.0000
  H   H18       1.0  0.19900  0.75151  0.21406  1.0000
  H   H19       1.0  0.69900  0.25151  0.28594  1.0000
  H   H20       1.0  0.80100  0.24849  0.78594  1.0000
  H   H21       1.0  0.44247  0.86194  0.77127  1.0000
  H   H22       1.0  0.05754  0.63806  0.27127  1.0000
  H   H23       1.0  0.55753  0.13806  0.22873  1.0000
  H   H24       1.0  0.94247  0.36194  0.72873  1.0000
  H   H25       1.0  0.26826  0.75056  0.54847  1.0000
  H   H26       1.0  0.23174  0.74944  0.04847  1.0000
  H   H27       1.0  0.73174  0.24944  0.45153  1.0000
  H   H28       1.0  0.76826  0.25056  0.95153  1.0000
  H   H29       1.0  0.36860  0.81863  0.38025  1.0000
  H   H30       1.0  0.13140  0.68137  0.88025  1.0000
  H   H31       1.0  0.63140  0.18137  0.61975  1.0000
  H   H32       1.0  0.86860  0.31863  0.11975  1.0000
  H   H33       1.0  0.66088  0.94429  0.36595  1.0000
  H   H34       1.0  0.83911  0.55571  0.86595  1.0000
  H   H35       1.0  0.33912  0.05572  0.63405  1.0000
  H   H36       1.0  0.16088  0.44429  0.13405  1.0000
  H   H37       1.0  0.83664  0.99473  0.51599  1.0000
  H   H38       1.0  0.66336  0.50527  0.01599  1.0000
  H   H39       1.0  0.16336  0.00527  0.48401  1.0000
  H   H40       1.0  0.33664  0.49473  0.98402  1.0000
  C   C1        1.0  0.55851  0.44508  0.61825  1.0000
  C   C2        1.0  0.94149  0.05492  0.11826  1.0000
  C   C3        1.0  0.44149  0.55492  0.38174  1.0000
  C   C4        1.0  0.05851  0.94508  0.88174  1.0000
  C   C5        1.0  0.69355  0.47345  0.54999  1.0000
  C   C6        1.0  0.80645  0.02655  0.04999  1.0000
  C   C7        1.0  0.30645  0.52655  0.45001  1.0000
  C   C8        1.0  0.19355  0.97345  0.95001  1.0000
  C   C9        1.0  0.79183  0.57693  0.55123  1.0000
  C   C10       1.0  0.70817  0.92307  0.05123  1.0000
  C   C11       1.0  0.20817  0.42307  0.44877  1.0000
  C   C12       1.0  0.29183  0.07693  0.94877  1.0000
  C   C13       1.0  0.75349  0.64942  0.62167  1.0000
  C   C14       1.0  0.74650  0.85058  0.12167  1.0000
  C   C15       1.0  0.24651  0.35058  0.37833  1.0000
  C   C16       1.0  0.25349  0.14942  0.87833  1.0000
  C   C17       1.0  0.61395  0.61494  0.68570  1.0000
  C   C18       1.0  0.88605  0.88506  0.18569  1.0000
  C   C19       1.0  0.38605  0.38506  0.31430  1.0000
  C   C20       1.0  0.11395  0.11494  0.81431  1.0000
  C   C21       1.0  0.43565  0.79502  0.71857  1.0000
  C   C22       1.0  0.06436  0.70499  0.21857  1.0000
  C   C23       1.0  0.56436  0.20499  0.28143  1.0000
  C   C24       1.0  0.93565  0.29501  0.78143  1.0000
  C   C25       1.0  0.50054  0.83512  0.61948  1.0000
  C   C26       1.0  0.99947  0.66488  0.11947  1.0000
  C   C27       1.0  0.49947  0.16488  0.38052  1.0000
  C   C28       1.0  0.00053  0.33512  0.88053  1.0000
  C   C29       1.0  0.39556  0.80262  0.53738  1.0000
  C   C30       1.0  0.10444  0.69738  0.03737  1.0000
  C   C31       1.0  0.60444  0.19738  0.46262  1.0000
  C   C32       1.0  0.89556  0.30262  0.96262  1.0000
  C   C33       1.0  0.45098  0.84058  0.44462  1.0000
  C   C34       1.0  0.04902  0.65942  0.94462  1.0000
  C   C35       1.0  0.54903  0.15942  0.55538  1.0000
  C   C36       1.0  0.95098  0.34058  0.05538  1.0000
  C   C37       1.0  0.61203  0.91025  0.43609  1.0000
  C   C38       1.0  0.88797  0.58975  0.93609  1.0000
  C   C39       1.0  0.38797  0.08975  0.56391  1.0000
  C   C40       1.0  0.11203  0.41025  0.06391  1.0000
  C   C41       1.0  0.71079  0.93970  0.52023  1.0000
  C   C42       1.0  0.78921  0.56030  0.02023  1.0000
  C   C43       1.0  0.28921  0.06030  0.47977  1.0000
  C   C44       1.0  0.21079  0.43970  0.97977  1.0000
  S   S1        1.0  0.56585  0.70826  0.77868  1.0000
  S   S2        1.0  0.93415  0.79174  0.27868  1.0000
  S   S3        1.0  0.43415  0.29175  0.22132  1.0000
  S   S4        1.0  0.06585  0.20826  0.72132  1.0000
  N   N1        1.0  0.51714  0.51573  0.68434  1.0000
  N   N2        1.0  0.98286  0.98427  0.18434  1.0000
  N   N3        1.0  0.48286  0.48427  0.31566  1.0000
  N   N4        1.0  0.01713  0.01573  0.81566  1.0000
  N   N5        1.0  0.65668  0.90355  0.61026  1.0000
  N   N6        1.0  0.84332  0.59646  0.11025  1.0000
  N   N7        1.0  0.34332  0.09646  0.38974  1.0000
  N   N8        1.0  0.15668  0.40355  0.88975  1.0000
  Cl  Cl1       1.0  0.12821  0.54044  0.69813  1.0000
  Cl  Cl2       1.0  0.37180  0.95956  0.19813  1.0000
  Cl  Cl3       1.0  0.87180  0.45956  0.30187  1.0000
  Cl  Cl4       1.0  0.62821  0.04044  0.80187  1.0000
  Cl  Cl5       1.0  0.54609  0.38428  0.85832  1.0000
  Cl  Cl6       1.0  0.95391  0.11573  0.35832  1.0000
  Cl  Cl7       1.0  0.45391  0.61573  0.14168  1.0000
  Cl  Cl8       1.0  0.04609  0.88427  0.64168  1.0000
  O   O1        1.0  0.73527  0.77280  0.80519  1.0000
  O   O2        1.0  0.76473  0.72720  0.30519  1.0000
  O   O3        1.0  0.26473  0.22720  0.19481  1.0000
  O   O4        1.0  0.23527  0.27280  0.69481  1.0000
  O   O5        1.0  0.45735  0.64929  0.85480  1.0000
  O   O6        1.0  0.04264  0.85071  0.35480  1.0000
  O   O7        1.0  0.54265  0.35071  0.14520  1.0000
  O   O8        1.0  0.95735  0.14928  0.64520  1.0000
