data_image0
_chemical_formula_structural       Sn8H60C48N4O28
_chemical_formula_sum              "Sn8 H60 C48 N4 O28"
_cell_length_a       11.2513
_cell_length_b       13.5799
_cell_length_c       14.121
_cell_angle_alpha    118.722
_cell_angle_beta     113.751
_cell_angle_gamma    89.8564

_space_group_name_H-M_alt    "P 1"
_space_group_IT_number       1

loop_
  _space_group_symop_operation_xyz
  'x, y, z'

loop_
  _atom_site_type_symbol
  _atom_site_label
  _atom_site_symmetry_multiplicity
  _atom_site_fract_x
  _atom_site_fract_y
  _atom_site_fract_z
  _atom_site_occupancy
  Sn  Sn1       1.0  0.54587  0.24992  0.49963  1.0000
  Sn  Sn2       1.0  0.95389  0.25012  0.50027  1.0000
  Sn  Sn3       1.0  0.45413  0.75008  0.50036  1.0000
  Sn  Sn4       1.0  0.04611  0.74988  0.49973  1.0000
  Sn  Sn5       1.0  0.32742  0.32721  0.65401  1.0000
  Sn  Sn6       1.0  0.17242  0.17322  0.34591  1.0000
  Sn  Sn7       1.0  0.67258  0.67279  0.34599  1.0000
  Sn  Sn8       1.0  0.82759  0.82678  0.65409  1.0000
  H   H1        1.0  0.68758  0.47903  0.99941  1.0000
  H   H2        1.0  0.31243  0.52097  0.00059  1.0000
  H   H3        1.0  0.18784  0.02044  0.99945  1.0000
  H   H4        1.0  0.81215  0.97957  0.00055  1.0000
  H   H5        1.0  0.88759  0.25977  0.80483  1.0000
  H   H6        1.0  0.91643  0.54463  0.80381  1.0000
  H   H7        1.0  0.58290  0.24074  0.19582  1.0000
  H   H8        1.0  0.61274  0.95542  0.19557  1.0000
  H   H9        1.0  0.11241  0.74021  0.19517  1.0000
  H   H10       1.0  0.08357  0.45537  0.19619  1.0000
  H   H11       1.0  0.41710  0.75927  0.80417  1.0000
  H   H12       1.0  0.38725  0.04458  0.80443  1.0000
  H   H13       1.0  0.62114  0.45024  0.52227  1.0000
  H   H14       1.0  0.90139  0.07220  0.52285  1.0000
  H   H15       1.0  0.59916  0.04960  0.47760  1.0000
  H   H16       1.0  0.87836  0.42792  0.47741  1.0000
  H   H17       1.0  0.37886  0.54976  0.47773  1.0000
  H   H18       1.0  0.09861  0.92781  0.47716  1.0000
  H   H19       1.0  0.40084  0.95040  0.52240  1.0000
  H   H20       1.0  0.12164  0.57208  0.52259  1.0000
  H   H21       1.0  0.76370  0.42463  0.61726  1.0000
  H   H22       1.0  0.85386  0.19243  0.61728  1.0000
  H   H23       1.0  0.64643  0.07515  0.38292  1.0000
  H   H24       1.0  0.73584  0.30789  0.38246  1.0000
  H   H25       1.0  0.23630  0.57538  0.38275  1.0000
  H   H26       1.0  0.14615  0.80758  0.38272  1.0000
  H   H27       1.0  0.35357  0.92485  0.61708  1.0000
  H   H28       1.0  0.26417  0.69211  0.61753  1.0000
  H   H29       1.0  0.64082  0.47772  0.66671  1.0000
  H   H30       1.0  0.02665  0.18910  0.66740  1.0000
  H   H31       1.0  0.47373  0.02205  0.33289  1.0000
  H   H32       1.0  0.85881  0.31099  0.33310  1.0000
  H   H33       1.0  0.35918  0.52228  0.33329  1.0000
  H   H34       1.0  0.97335  0.81091  0.33260  1.0000
  H   H35       1.0  0.52628  0.97795  0.66711  1.0000
  H   H36       1.0  0.14119  0.68901  0.66690  1.0000
  H   H37       1.0  0.37415  0.23795  0.79494  1.0000
  H   H38       1.0  0.42090  0.55708  0.79502  1.0000
  H   H39       1.0  0.07845  0.26218  0.20461  1.0000
  H   H40       1.0  0.12618  0.94319  0.20520  1.0000
  H   H41       1.0  0.62584  0.76205  0.20506  1.0000
  H   H42       1.0  0.57911  0.44292  0.20498  1.0000
  H   H43       1.0  0.92154  0.73781  0.79538  1.0000
  H   H44       1.0  0.87382  0.05681  0.79480  1.0000
  H   H45       1.0  0.41781  0.15151  0.67536  1.0000
  H   H46       1.0  0.25694  0.52361  0.67497  1.0000
  H   H47       1.0  0.24231  0.34830  0.32464  1.0000
  H   H48       1.0  0.08275  0.97665  0.32494  1.0000
  H   H49       1.0  0.58219  0.84849  0.32464  1.0000
  H   H50       1.0  0.74307  0.47639  0.32504  1.0000
  H   H51       1.0  0.75769  0.65170  0.67536  1.0000
  H   H52       1.0  0.91725  0.02335  0.67506  1.0000
  H   H53       1.0  0.24544  0.13652  0.64522  1.0000
  H   H54       1.0  0.39949  0.50953  0.64556  1.0000
  H   H55       1.0  0.09974  0.36404  0.35399  1.0000
  H   H56       1.0  0.25507  0.99128  0.35496  1.0000
  H   H57       1.0  0.75455  0.86348  0.35478  1.0000
  H   H58       1.0  0.60051  0.49047  0.35444  1.0000
  H   H59       1.0  0.90025  0.63596  0.64600  1.0000
  H   H60       1.0  0.74494  0.00873  0.64505  1.0000
  C   C1        1.0  0.77409  0.44296  0.99974  1.0000
  C   C2        1.0  0.22590  0.55704  0.00026  1.0000
  C   C3        1.0  0.27412  0.05674  0.99961  1.0000
  C   C4        1.0  0.72587  0.94327  0.00038  1.0000
  C   C5        1.0  0.77408  0.36518  0.88976  1.0000
  C   C6        1.0  0.11567  0.52464  0.88982  1.0000
  C   C7        1.0  0.38412  0.13476  0.10998  1.0000
  C   C8        1.0  0.72594  0.97560  0.11043  1.0000
  C   C9        1.0  0.22592  0.63481  0.11024  1.0000
  C   C10       1.0  0.88433  0.47536  0.11017  1.0000
  C   C11       1.0  0.61587  0.86525  0.89002  1.0000
  C   C12       1.0  0.27405  0.02440  0.88957  1.0000
  C   C13       1.0  0.88594  0.32033  0.88956  1.0000
  C   C14       1.0  0.00317  0.56889  0.88884  1.0000
  C   C15       1.0  0.49634  0.17989  0.11084  1.0000
  C   C16       1.0  0.61438  0.93112  0.11080  1.0000
  C   C17       1.0  0.11406  0.67966  0.11045  1.0000
  C   C18       1.0  0.99683  0.43111  0.11116  1.0000
  C   C19       1.0  0.50366  0.82011  0.88915  1.0000
  C   C20       1.0  0.38562  0.06889  0.88920  1.0000
  C   C21       1.0  0.99594  0.35528  0.00059  1.0000
  C   C22       1.0  0.00407  0.64472  0.99941  1.0000
  C   C23       1.0  0.49540  0.14498  0.00017  1.0000
  C   C24       1.0  0.50459  0.85501  0.99982  1.0000
  C   C25       1.0  0.65460  0.33346  0.77334  1.0000
  C   C26       1.0  0.11912  0.44028  0.77394  1.0000
  C   C27       1.0  0.38071  0.16642  0.22592  1.0000
  C   C28       1.0  0.84524  0.06031  0.22676  1.0000
  C   C29       1.0  0.34540  0.66654  0.22666  1.0000
  C   C30       1.0  0.88088  0.55972  0.22606  1.0000
  C   C31       1.0  0.61929  0.83359  0.77408  1.0000
  C   C32       1.0  0.15476  0.93969  0.77324  1.0000
  C   C33       1.0  0.65698  0.42228  0.58773  1.0000
  C   C34       1.0  0.93110  0.16549  0.58811  1.0000
  C   C35       1.0  0.56923  0.07756  0.41213  1.0000
  C   C36       1.0  0.84254  0.33465  0.41205  1.0000
  C   C37       1.0  0.34301  0.57772  0.41227  1.0000
  C   C38       1.0  0.06890  0.83452  0.41189  1.0000
  C   C39       1.0  0.43077  0.92244  0.58787  1.0000
  C   C40       1.0  0.15746  0.66535  0.58795  1.0000
  C   C41       1.0  0.34366  0.19663  0.69777  1.0000
  C   C42       1.0  0.35396  0.50140  0.69775  1.0000
  C   C43       1.0  0.14537  0.30362  0.30189  1.0000
  C   C44       1.0  0.15673  0.99905  0.30235  1.0000
  C   C45       1.0  0.65634  0.80337  0.30223  1.0000
  C   C46       1.0  0.64605  0.49860  0.30226  1.0000
  C   C47       1.0  0.85463  0.69637  0.69810  1.0000
  C   C48       1.0  0.84328  0.00095  0.69766  1.0000
  N   N1        1.0  0.11619  0.31147  0.00096  1.0000
  N   N2        1.0  0.88382  0.68852  0.99904  1.0000
  N   N3        1.0  0.61539  0.18910  0.00046  1.0000
  N   N4        1.0  0.38461  0.81090  0.99953  1.0000
  O   O1        1.0  0.65281  0.25296  0.67455  1.0000
  O   O2        1.0  0.02117  0.42133  0.67469  1.0000
  O   O3        1.0  0.47825  0.24682  0.32510  1.0000
  O   O4        1.0  0.84714  0.07866  0.32565  1.0000
  O   O5        1.0  0.34719  0.74704  0.32545  1.0000
  O   O6        1.0  0.97882  0.57867  0.32531  1.0000
  O   O7        1.0  0.52175  0.75318  0.67490  1.0000
  O   O8        1.0  0.15286  0.92134  0.67435  1.0000
  O   O9        1.0  0.56472  0.38868  0.77928  1.0000
  O   O10       1.0  0.21568  0.39193  0.78043  1.0000
  O   O11       1.0  0.28463  0.11159  0.21962  1.0000
  O   O12       1.0  0.93478  0.10950  0.22072  1.0000
  O   O13       1.0  0.43528  0.61131  0.22072  1.0000
  O   O14       1.0  0.78431  0.60807  0.21956  1.0000
  O   O15       1.0  0.71539  0.88841  0.78039  1.0000
  O   O16       1.0  0.06523  0.89050  0.77927  1.0000
  O   O17       1.0  0.21349  0.34433  0.10085  1.0000
  O   O18       1.0  0.88655  0.75542  0.09865  1.0000
  O   O19       1.0  0.61268  0.15624  0.90083  1.0000
  O   O20       1.0  0.28753  0.74375  0.89969  1.0000
  O   O21       1.0  0.78650  0.65566  0.89915  1.0000
  O   O22       1.0  0.11345  0.24458  0.90136  1.0000
  O   O23       1.0  0.38731  0.84375  0.09916  1.0000
  O   O24       1.0  0.71246  0.25625  0.10030  1.0000
  O   O25       1.0  0.36681  0.25024  0.49995  1.0000
  O   O26       1.0  0.13296  0.25018  0.49993  1.0000
  O   O27       1.0  0.63319  0.74977  0.50005  1.0000
  O   O28       1.0  0.86704  0.74982  0.50007  1.0000
