data_image0
_chemical_formula_structural       Cd2H40C56S8N8O8
_chemical_formula_sum              "Cd2 H40 C56 S8 N8 O8"
_cell_length_a       5.05178
_cell_length_b       11.8835
_cell_length_c       22.815
_cell_angle_alpha    90
_cell_angle_beta     90
_cell_angle_gamma    100.138

_space_group_name_H-M_alt    "P 1"
_space_group_IT_number       1

loop_
  _space_group_symop_operation_xyz
  'x, y, z'

loop_
  _atom_site_type_symbol
  _atom_site_label
  _atom_site_symmetry_multiplicity
  _atom_site_fract_x
  _atom_site_fract_y
  _atom_site_fract_z
  _atom_site_occupancy
  Cd  Cd1       1.0  0.50000  0.50000  0.50000  1.0000
  Cd  Cd2       1.0  0.50000  0.00000  0.00000  1.0000
  H   H1        1.0  0.88619  0.46104  0.31818  1.0000
  H   H2        1.0  0.11381  0.03896  0.81818  1.0000
  H   H3        1.0  0.11381  0.53896  0.68182  1.0000
  H   H4        1.0  0.88619  0.96104  0.18182  1.0000
  H   H5        1.0  0.60605  0.41773  0.36595  1.0000
  H   H6        1.0  0.39395  0.08227  0.86595  1.0000
  H   H7        1.0  0.39395  0.58227  0.63405  1.0000
  H   H8        1.0  0.60605  0.91773  0.13405  1.0000
  H   H9        1.0  0.54831  0.10079  0.16748  1.0000
  H   H10       1.0  0.45170  0.39921  0.66748  1.0000
  H   H11       1.0  0.45170  0.89921  0.83253  1.0000
  H   H12       1.0  0.54831  0.60079  0.33253  1.0000
  H   H13       1.0  0.87386  0.24417  0.11404  1.0000
  H   H14       1.0  0.12615  0.25583  0.61404  1.0000
  H   H15       1.0  0.12614  0.75583  0.88596  1.0000
  H   H16       1.0  0.87386  0.74417  0.38596  1.0000
  H   H17       1.0  0.90213  0.45315  0.13406  1.0000
  H   H18       1.0  0.09787  0.04685  0.63406  1.0000
  H   H19       1.0  0.09787  0.54685  0.86594  1.0000
  H   H20       1.0  0.90214  0.95315  0.36594  1.0000
  H   H21       1.0  0.59833  0.51964  0.20725  1.0000
  H   H22       1.0  0.40167  0.98036  0.70725  1.0000
  H   H23       1.0  0.40167  0.48036  0.79275  1.0000
  H   H24       1.0  0.59833  0.01964  0.29275  1.0000
  H   H25       1.0  0.20697  0.26872  0.43483  1.0000
  H   H26       1.0  0.79303  0.23128  0.93483  1.0000
  H   H27       1.0  0.79303  0.73128  0.56517  1.0000
  H   H28       1.0  0.20697  0.76872  0.06517  1.0000
  H   H29       1.0  0.18462  0.05992  0.43404  1.0000
  H   H30       1.0  0.81538  0.44008  0.93404  1.0000
  H   H31       1.0  0.81538  0.94008  0.56596  1.0000
  H   H32       1.0  0.18462  0.55992  0.06596  1.0000
  H   H33       1.0  0.82074  0.10807  0.56371  1.0000
  H   H34       1.0  0.17926  0.39193  0.06371  1.0000
  H   H35       1.0  0.17926  0.89193  0.43629  1.0000
  H   H36       1.0  0.82074  0.60807  0.93629  1.0000
  H   H37       1.0  0.82117  0.31563  0.55677  1.0000
  H   H38       1.0  0.17883  0.18437  0.05677  1.0000
  H   H39       1.0  0.17883  0.68437  0.44323  1.0000
  H   H40       1.0  0.82117  0.81562  0.94323  1.0000
  C   C1        1.0  0.98750  0.47495  0.40967  1.0000
  C   C2        1.0  0.01250  0.02505  0.90967  1.0000
  C   C3        1.0  0.01250  0.52505  0.59033  1.0000
  C   C4        1.0  0.98750  0.97495  0.09033  1.0000
  C   C5        1.0  0.81986  0.41542  0.35907  1.0000
  C   C6        1.0  0.18013  0.08458  0.85907  1.0000
  C   C7        1.0  0.18013  0.58458  0.64093  1.0000
  C   C8        1.0  0.81987  0.91542  0.14093  1.0000
  C   C9        1.0  0.09344  0.27843  0.29415  1.0000
  C   C10       1.0  0.90656  0.22157  0.79415  1.0000
  C   C11       1.0  0.90656  0.72157  0.70585  1.0000
  C   C12       1.0  0.09344  0.77843  0.20585  1.0000
  C   C13       1.0  0.40848  0.34803  0.23021  1.0000
  C   C14       1.0  0.59153  0.15197  0.73021  1.0000
  C   C15       1.0  0.59152  0.65198  0.76979  1.0000
  C   C16       1.0  0.40848  0.84802  0.26979  1.0000
  C   C17       1.0  0.39786  0.22962  0.21869  1.0000
  C   C18       1.0  0.60214  0.27038  0.71869  1.0000
  C   C19       1.0  0.60215  0.77038  0.78131  1.0000
  C   C20       1.0  0.39785  0.72962  0.28131  1.0000
  C   C21       1.0  0.56288  0.19147  0.17685  1.0000
  C   C22       1.0  0.43713  0.30853  0.67685  1.0000
  C   C23       1.0  0.43712  0.80853  0.82315  1.0000
  C   C24       1.0  0.56288  0.69147  0.32315  1.0000
  C   C25       1.0  0.74436  0.27335  0.14672  1.0000
  C   C26       1.0  0.25565  0.22665  0.64672  1.0000
  C   C27       1.0  0.25564  0.72665  0.85328  1.0000
  C   C28       1.0  0.74436  0.77335  0.35328  1.0000
  C   C29       1.0  0.75772  0.39044  0.15777  1.0000
  C   C30       1.0  0.24228  0.10956  0.65777  1.0000
  C   C31       1.0  0.24228  0.60956  0.84223  1.0000
  C   C32       1.0  0.75772  0.89043  0.34223  1.0000
  C   C33       1.0  0.59044  0.42881  0.19890  1.0000
  C   C34       1.0  0.40956  0.07119  0.69890  1.0000
  C   C35       1.0  0.40956  0.57119  0.80110  1.0000
  C   C36       1.0  0.59044  0.92881  0.30110  1.0000
  C   C37       1.0  0.33900  0.22917  0.46294  1.0000
  C   C38       1.0  0.66100  0.27083  0.96294  1.0000
  C   C39       1.0  0.66100  0.77083  0.53706  1.0000
  C   C40       1.0  0.33900  0.72917  0.03706  1.0000
  C   C41       1.0  0.32886  0.11155  0.46290  1.0000
  C   C42       1.0  0.67114  0.38845  0.96290  1.0000
  C   C43       1.0  0.67114  0.88845  0.53710  1.0000
  C   C44       1.0  0.32886  0.61155  0.03710  1.0000
  C   C45       1.0  0.50217  0.06241  0.49921  1.0000
  C   C46       1.0  0.49782  0.43760  0.99921  1.0000
  C   C47       1.0  0.49782  0.93760  0.50079  1.0000
  C   C48       1.0  0.50217  0.56241  0.00079  1.0000
  C   C49       1.0  0.68029  0.13817  0.53397  1.0000
  C   C50       1.0  0.31971  0.36183  0.03397  1.0000
  C   C51       1.0  0.31971  0.86183  0.46603  1.0000
  C   C52       1.0  0.68029  0.63817  0.96603  1.0000
  C   C53       1.0  0.67952  0.25487  0.53142  1.0000
  C   C54       1.0  0.32048  0.24513  0.03142  1.0000
  C   C55       1.0  0.32048  0.74513  0.46858  1.0000
  C   C56       1.0  0.67952  0.75487  0.96858  1.0000
  S   S1        1.0  0.15954  0.14980  0.26397  1.0000
  S   S2        1.0  0.84046  0.35020  0.76398  1.0000
  S   S3        1.0  0.84047  0.85020  0.73602  1.0000
  S   S4        1.0  0.15954  0.64980  0.23603  1.0000
  S   S5        1.0  0.84282  0.26721  0.34708  1.0000
  S   S6        1.0  0.15718  0.23279  0.84708  1.0000
  S   S7        1.0  0.15718  0.73279  0.65292  1.0000
  S   S8        1.0  0.84282  0.76721  0.15292  1.0000
  N   N1        1.0  0.23427  0.37266  0.27332  1.0000
  N   N2        1.0  0.76573  0.12734  0.77332  1.0000
  N   N3        1.0  0.76573  0.62734  0.72668  1.0000
  N   N4        1.0  0.23427  0.87266  0.22668  1.0000
  N   N5        1.0  0.51213  0.30063  0.49652  1.0000
  N   N6        1.0  0.48787  0.19937  0.99652  1.0000
  N   N7        1.0  0.48787  0.69937  0.50348  1.0000
  N   N8        1.0  0.51213  0.80063  0.00348  1.0000
  O   O1        1.0  0.22590  0.45713  0.41636  1.0000
  O   O2        1.0  0.77410  0.04287  0.91636  1.0000
  O   O3        1.0  0.77410  0.54287  0.58364  1.0000
  O   O4        1.0  0.22590  0.95713  0.08364  1.0000
  O   O5        1.0  0.87776  0.54392  0.43997  1.0000
  O   O6        1.0  0.12224  0.95608  0.93997  1.0000
  O   O7        1.0  0.12224  0.45608  0.56003  1.0000
  O   O8        1.0  0.87776  0.04392  0.06003  1.0000
