data_image0
_chemical_formula_structural       Cu2H40C56S8N8O8
_chemical_formula_sum              "Cu2 H40 C56 S8 N8 O8"
_cell_length_a       10.6248
_cell_length_b       11.0247
_cell_length_c       12.269
_cell_angle_alpha    112.158
_cell_angle_beta     98.5204
_cell_angle_gamma    90.5708

_space_group_name_H-M_alt    "P 1"
_space_group_IT_number       1

loop_
  _space_group_symop_operation_xyz
  'x, y, z'

loop_
  _atom_site_type_symbol
  _atom_site_label
  _atom_site_symmetry_multiplicity
  _atom_site_fract_x
  _atom_site_fract_y
  _atom_site_fract_z
  _atom_site_occupancy
  Cu  Cu1       1.0  0.25015  0.75622  0.50027  1.0000
  Cu  Cu2       1.0  0.74985  0.24378  0.49973  1.0000
  H   H1        1.0  0.34180  0.51038  0.11181  1.0000
  H   H2        1.0  0.65820  0.48962  0.88819  1.0000
  H   H3        1.0  0.23612  0.62546  0.08995  1.0000
  H   H4        1.0  0.76388  0.37454  0.91005  1.0000
  H   H5        1.0  0.47304  0.10069  0.25312  1.0000
  H   H6        1.0  0.52696  0.89931  0.74688  1.0000
  H   H7        1.0  0.37594  0.88542  0.23632  1.0000
  H   H8        1.0  0.62406  0.11458  0.76368  1.0000
  H   H9        1.0  0.14405  0.82507  0.16112  1.0000
  H   H10       1.0  0.85595  0.17493  0.83888  1.0000
  H   H11       1.0  0.00568  0.97578  0.09983  1.0000
  H   H12       1.0  0.99432  0.02422  0.90017  1.0000
  H   H13       1.0  0.15995  0.83400  0.88863  1.0000
  H   H14       1.0  0.84006  0.16600  0.11137  1.0000
  H   H15       1.0  0.26636  0.96920  0.91254  1.0000
  H   H16       1.0  0.73364  0.03080  0.08745  1.0000
  H   H17       1.0  0.02163  0.30550  0.74053  1.0000
  H   H18       1.0  0.97836  0.69451  0.25947  1.0000
  H   H19       1.0  0.11408  0.10488  0.75951  1.0000
  H   H20       1.0  0.88592  0.89512  0.24049  1.0000
  H   H21       1.0  0.34452  0.10918  0.83747  1.0000
  H   H22       1.0  0.65548  0.89082  0.16253  1.0000
  H   H23       1.0  0.48672  0.31279  0.89848  1.0000
  H   H24       1.0  0.51328  0.68721  0.10152  1.0000
  H   H25       1.0  0.42644  0.61526  0.60895  1.0000
  H   H26       1.0  0.57356  0.38474  0.39105  1.0000
  H   H27       1.0  0.43640  0.39332  0.61172  1.0000
  H   H28       1.0  0.56360  0.60668  0.38827  1.0000
  H   H29       1.0  0.06338  0.29558  0.38623  1.0000
  H   H30       1.0  0.93662  0.70442  0.61377  1.0000
  H   H31       1.0  0.07313  0.52083  0.39091  1.0000
  H   H32       1.0  0.92687  0.47917  0.60909  1.0000
  H   H33       1.0  0.06358  0.90324  0.41080  1.0000
  H   H34       1.0  0.93642  0.09676  0.58920  1.0000
  H   H35       1.0  0.05312  0.12588  0.40924  1.0000
  H   H36       1.0  0.94688  0.87412  0.59076  1.0000
  H   H37       1.0  0.44680  0.20541  0.58932  1.0000
  H   H38       1.0  0.55320  0.79459  0.41068  1.0000
  H   H39       1.0  0.43608  0.98211  0.58941  1.0000
  H   H40       1.0  0.56392  0.01789  0.41059  1.0000
  C   C1        1.0  0.27989  0.64298  0.27267  1.0000
  C   C2        1.0  0.72011  0.35702  0.72733  1.0000
  C   C3        1.0  0.25564  0.56009  0.13869  1.0000
  C   C4        1.0  0.74436  0.43991  0.86131  1.0000
  C   C5        1.0  0.17135  0.31860  0.12904  1.0000
  C   C6        1.0  0.82865  0.68139  0.87096  1.0000
  C   C7        1.0  0.15949  0.12466  0.14381  1.0000
  C   C8        1.0  0.84051  0.87534  0.85619  1.0000
  C   C9        1.0  0.29209  0.15864  0.18783  1.0000
  C   C10       1.0  0.70791  0.84136  0.81217  1.0000
  C   C11       1.0  0.37128  0.07387  0.22155  1.0000
  C   C12       1.0  0.62872  0.92613  0.77845  1.0000
  C   C13       1.0  0.31629  0.95367  0.21110  1.0000
  C   C14       1.0  0.68371  0.04633  0.78891  1.0000
  C   C15       1.0  0.18540  0.91924  0.16833  1.0000
  C   C16       1.0  0.81460  0.08076  0.83168  1.0000
  C   C17       1.0  0.10656  0.00344  0.13460  1.0000
  C   C18       1.0  0.89344  0.99656  0.86540  1.0000
  C   C19       1.0  0.22175  0.83525  0.72852  1.0000
  C   C20       1.0  0.77825  0.16475  0.27148  1.0000
  C   C21       1.0  0.24633  0.86291  0.86218  1.0000
  C   C22       1.0  0.75367  0.13709  0.13782  1.0000
  C   C23       1.0  0.32838  0.62858  0.86666  1.0000
  C   C24       1.0  0.67162  0.37142  0.13334  1.0000
  C   C25       1.0  0.33628  0.42161  0.85019  1.0000
  C   C26       1.0  0.66372  0.57839  0.14981  1.0000
  C   C27       1.0  0.20439  0.41803  0.80516  1.0000
  C   C28       1.0  0.79561  0.58198  0.19483  1.0000
  C   C29       1.0  0.12309  0.30503  0.77189  1.0000
  C   C30       1.0  0.87691  0.69497  0.22811  1.0000
  C   C31       1.0  0.17519  0.19442  0.78436  1.0000
  C   C32       1.0  0.82480  0.80558  0.21564  1.0000
  C   C33       1.0  0.30541  0.19680  0.82887  1.0000
  C   C34       1.0  0.69458  0.80320  0.17113  1.0000
  C   C35       1.0  0.38644  0.30904  0.86166  1.0000
  C   C36       1.0  0.61356  0.69096  0.13834  1.0000
  C   C37       1.0  0.34906  0.54038  0.55973  1.0000
  C   C38       1.0  0.65094  0.45962  0.44027  1.0000
  C   C39       1.0  0.35305  0.41513  0.56075  1.0000
  C   C40       1.0  0.64695  0.58487  0.43925  1.0000
  C   C41       1.0  0.24990  0.32195  0.49899  1.0000
  C   C42       1.0  0.75010  0.67805  0.50101  1.0000
  C   C43       1.0  0.14674  0.36163  0.43748  1.0000
  C   C44       1.0  0.85326  0.63837  0.56252  1.0000
  C   C45       1.0  0.15057  0.48832  0.43968  1.0000
  C   C46       1.0  0.84943  0.51168  0.56032  1.0000
  C   C47       1.0  0.14558  0.97448  0.45063  1.0000
  C   C48       1.0  0.85441  0.02552  0.54937  1.0000
  C   C49       1.0  0.14134  0.09972  0.44973  1.0000
  C   C50       1.0  0.85866  0.90028  0.55027  1.0000
  C   C51       1.0  0.24993  0.18796  0.49913  1.0000
  C   C52       1.0  0.75007  0.81204  0.50087  1.0000
  C   C53       1.0  0.35853  0.14366  0.54898  1.0000
  C   C54       1.0  0.64147  0.85634  0.45102  1.0000
  C   C55       1.0  0.35422  0.01797  0.54900  1.0000
  C   C56       1.0  0.64578  0.98202  0.45100  1.0000
  S   S1        1.0  0.33216  0.31210  0.18849  1.0000
  S   S2        1.0  0.66784  0.68790  0.81151  1.0000
  S   S3        1.0  0.11720  0.44475  0.08684  1.0000
  S   S4        1.0  0.88280  0.55525  0.91316  1.0000
  S   S5        1.0  0.16677  0.57166  0.80675  1.0000
  S   S6        1.0  0.83323  0.42834  0.19325  1.0000
  S   S7        1.0  0.38419  0.79170  0.91239  1.0000
  S   S8        1.0  0.61581  0.20830  0.08761  1.0000
  N   N1        1.0  0.09432  0.21726  0.11163  1.0000
  N   N2        1.0  0.90568  0.78274  0.88837  1.0000
  N   N3        1.0  0.40346  0.54152  0.88298  1.0000
  N   N4        1.0  0.59654  0.45848  0.11702  1.0000
  N   N5        1.0  0.24971  0.57682  0.50004  1.0000
  N   N6        1.0  0.75029  0.42318  0.49996  1.0000
  N   N7        1.0  0.24989  0.93404  0.50005  1.0000
  N   N8        1.0  0.75011  0.06596  0.49995  1.0000
  O   O1        1.0  0.18129  0.67737  0.32449  1.0000
  O   O2        1.0  0.81871  0.32263  0.67551  1.0000
  O   O3        1.0  0.39266  0.67403  0.32492  1.0000
  O   O4        1.0  0.60734  0.32597  0.67509  1.0000
  O   O5        1.0  0.32009  0.82543  0.67593  1.0000
  O   O6        1.0  0.67991  0.17457  0.32407  1.0000
  O   O7        1.0  0.10889  0.82465  0.67752  1.0000
  O   O8        1.0  0.89111  0.17535  0.32248  1.0000
