data_image0
_chemical_formula_structural       K4H40Au4C56S8N8O28
_chemical_formula_sum              "K4 H40 Au4 C56 S8 N8 O28"
_cell_length_a       8.66781
_cell_length_b       13.5509
_cell_length_c       16.0005
_cell_angle_alpha    85.0263
_cell_angle_beta     74.2714
_cell_angle_gamma    71.3477

_space_group_name_H-M_alt    "P 1"
_space_group_IT_number       1

loop_
  _space_group_symop_operation_xyz
  'x, y, z'

loop_
  _atom_site_type_symbol
  _atom_site_label
  _atom_site_symmetry_multiplicity
  _atom_site_fract_x
  _atom_site_fract_y
  _atom_site_fract_z
  _atom_site_occupancy
  K   K1        1.0  0.40417  0.01899  0.82436  1.0000
  K   K2        1.0  0.24742  0.98111  0.17569  1.0000
  K   K3        1.0  0.97847  0.51892  0.67567  1.0000
  K   K4        1.0  0.17326  0.48106  0.32435  1.0000
  H   H1        1.0  0.35644  0.87875  0.98790  1.0000
  H   H2        1.0  0.22305  0.12125  0.01211  1.0000
  H   H3        1.0  0.09436  0.37874  0.51211  1.0000
  H   H4        1.0  0.98520  0.62123  0.48788  1.0000
  H   H5        1.0  0.52967  0.89055  0.98818  1.0000
  H   H6        1.0  0.40833  0.10949  0.01184  1.0000
  H   H7        1.0  0.26786  0.39053  0.51183  1.0000
  H   H8        1.0  0.17021  0.60946  0.48818  1.0000
  H   H9        1.0  0.90202  0.81283  0.53135  1.0000
  H   H10       1.0  0.24617  0.18712  0.46865  1.0000
  H   H11       1.0  0.18333  0.31288  0.96864  1.0000
  H   H12       1.0  0.46487  0.68712  0.03135  1.0000
  H   H13       1.0  0.10640  0.86026  0.40272  1.0000
  H   H14       1.0  0.36938  0.13972  0.59727  1.0000
  H   H15       1.0  0.25911  0.36025  0.09730  1.0000
  H   H16       1.0  0.71666  0.63972  0.90271  1.0000
  H   H17       1.0  0.31164  0.94120  0.42384  1.0000
  H   H18       1.0  0.67664  0.05877  0.57617  1.0000
  H   H19       1.0  0.48544  0.44124  0.07616  1.0000
  H   H20       1.0  0.00286  0.55878  0.92382  1.0000
  H   H21       1.0  0.33195  0.96589  0.57345  1.0000
  H   H22       1.0  0.87134  0.03412  0.42656  1.0000
  H   H23       1.0  0.65539  0.46589  0.92655  1.0000
  H   H24       1.0  0.04788  0.53412  0.07343  1.0000
  H   H25       1.0  0.50869  0.90640  0.26913  1.0000
  H   H26       1.0  0.68421  0.09360  0.73088  1.0000
  H   H27       1.0  0.52775  0.40641  0.23088  1.0000
  H   H28       1.0  0.16504  0.59362  0.76915  1.0000
  H   H29       1.0  0.59558  0.85910  0.40830  1.0000
  H   H30       1.0  0.86297  0.14090  0.59170  1.0000
  H   H31       1.0  0.75381  0.35914  0.09168  1.0000
  H   H32       1.0  0.20466  0.64088  0.90834  1.0000
  H   H33       1.0  0.89493  0.77423  0.40524  1.0000
  H   H34       1.0  0.07441  0.22576  0.59475  1.0000
  H   H35       1.0  0.05012  0.27426  0.09471  1.0000
  H   H36       1.0  0.41916  0.72576  0.90527  1.0000
  H   H37       1.0  0.11656  0.74452  0.26611  1.0000
  H   H38       1.0  0.12722  0.25547  0.73388  1.0000
  H   H39       1.0  0.13262  0.24453  0.23384  1.0000
  H   H40       1.0  0.61110  0.75546  0.76613  1.0000
  Au  Au1       1.0  0.93738  0.86194  0.90996  1.0000
  Au  Au2       1.0  0.70922  0.13811  0.09005  1.0000
  Au  Au3       1.0  0.59741  0.36188  0.59003  1.0000
  Au  Au4       1.0  0.54936  0.63800  0.40996  1.0000
  C   C1        1.0  0.11645  0.91330  0.72849  1.0000
  C   C2        1.0  0.75820  0.08675  0.27151  1.0000
  C   C3        1.0  0.59500  0.41322  0.77150  1.0000
  C   C4        1.0  0.77976  0.58673  0.22848  1.0000
  C   C5        1.0  0.12923  0.90339  0.63452  1.0000
  C   C6        1.0  0.66714  0.09662  0.36549  1.0000
  C   C7        1.0  0.51378  0.40335  0.86548  1.0000
  C   C8        1.0  0.78265  0.59665  0.13451  1.0000
  C   C9        1.0  0.01104  0.86072  0.62113  1.0000
  C   C10       1.0  0.49286  0.13921  0.37887  1.0000
  C   C11       1.0  0.38211  0.36077  0.87887  1.0000
  C   C12       1.0  0.62180  0.63925  0.12112  1.0000
  C   C13       1.0  0.99690  0.84524  0.53940  1.0000
  C   C14       1.0  0.38150  0.15466  0.46061  1.0000
  C   C15       1.0  0.28618  0.34535  0.96062  1.0000
  C   C16       1.0  0.59217  0.65469  0.03939  1.0000
  C   C17       1.0  0.11003  0.87351  0.46828  1.0000
  C   C18       1.0  0.45182  0.12640  0.53170  1.0000
  C   C19       1.0  0.32818  0.37361  0.03173  1.0000
  C   C20       1.0  0.73357  0.62642  0.96827  1.0000
  C   C21       1.0  0.22777  0.91784  0.48037  1.0000
  C   C22       1.0  0.62597  0.08206  0.51964  1.0000
  C   C23       1.0  0.45800  0.41795  0.01964  1.0000
  C   C24       1.0  0.89562  0.58211  0.98035  1.0000
  C   C25       1.0  0.23891  0.93310  0.56361  1.0000
  C   C26       1.0  0.73565  0.06689  0.43639  1.0000
  C   C27       1.0  0.55247  0.43313  0.93638  1.0000
  C   C28       1.0  0.92205  0.56693  0.06359  1.0000
  C   C29       1.0  0.74035  0.87212  0.10087  1.0000
  C   C30       1.0  0.71333  0.12793  0.89914  1.0000
  C   C31       1.0  0.59125  0.37210  0.39914  1.0000
  C   C32       1.0  0.36245  0.62786  0.60088  1.0000
  C   C33       1.0  0.76406  0.85312  0.19041  1.0000
  C   C34       1.0  0.80757  0.14692  0.80958  1.0000
  C   C35       1.0  0.70444  0.35311  0.30958  1.0000
  C   C36       1.0  0.36714  0.64689  0.69043  1.0000
  C   C37       1.0  0.64037  0.87208  0.26867  1.0000
  C   C38       1.0  0.78109  0.12795  0.73134  1.0000
  C   C39       1.0  0.65899  0.37209  0.23132  1.0000
  C   C40       1.0  0.26240  0.62794  0.76871  1.0000
  C   C41       1.0  0.68931  0.84526  0.34599  1.0000
  C   C42       1.0  0.88056  0.15477  0.65400  1.0000
  C   C43       1.0  0.78526  0.34527  0.15398  1.0000
  C   C44       1.0  0.28454  0.65476  0.84603  1.0000
  C   C45       1.0  0.85891  0.79866  0.34487  1.0000
  C   C46       1.0  0.00243  0.20135  0.65513  1.0000
  C   C47       1.0  0.95372  0.29868  0.15509  1.0000
  C   C48       1.0  0.40756  0.70133  0.84490  1.0000
  C   C49       1.0  0.98483  0.78066  0.26681  1.0000
  C   C50       1.0  0.03235  0.21932  0.73318  1.0000
  C   C51       1.0  0.00160  0.28068  0.23314  1.0000
  C   C52       1.0  0.51553  0.71931  0.76683  1.0000
  C   C53       1.0  0.93320  0.80992  0.19105  1.0000
  C   C54       1.0  0.93419  0.19007  0.80895  1.0000
  C   C55       1.0  0.87424  0.30993  0.30892  1.0000
  C   C56       1.0  0.49313  0.69005  0.69108  1.0000
  S   S1        1.0  0.88706  0.83643  0.72292  1.0000
  S   S2        1.0  0.44638  0.16357  0.27708  1.0000
  S   S3        1.0  0.35999  0.33643  0.77708  1.0000
  S   S4        1.0  0.47351  0.66356  0.22293  1.0000
  S   S5        1.0  0.05729  0.80274  0.08310  1.0000
  S   S6        1.0  0.94315  0.19729  0.91689  1.0000
  S   S7        1.0  0.89045  0.30272  0.41686  1.0000
  S   S8        1.0  0.61000  0.69725  0.58311  1.0000
  N   N1        1.0  0.98935  0.87692  0.77978  1.0000
  N   N2        1.0  0.64603  0.12313  0.22023  1.0000
  N   N3        1.0  0.51917  0.37689  0.72022  1.0000
  N   N4        1.0  0.61629  0.62307  0.27977  1.0000
  N   N5        1.0  0.89307  0.84633  0.03970  1.0000
  N   N6        1.0  0.77908  0.15372  0.96030  1.0000
  N   N7        1.0  0.68282  0.34631  0.46029  1.0000
  N   N8        1.0  0.48938  0.65366  0.53971  1.0000
  O   O1        1.0  0.71438  0.90429  0.73552  1.0000
  O   O2        1.0  0.35419  0.09572  0.26444  1.0000
  O   O3        1.0  0.19992  0.40428  0.76447  1.0000
  O   O4        1.0  0.36867  0.59572  0.23553  1.0000
  O   O5        1.0  0.90477  0.72642  0.73785  1.0000
  O   O6        1.0  0.36901  0.27358  0.26218  1.0000
  O   O7        1.0  0.39268  0.22642  0.76215  1.0000
  O   O8        1.0  0.38125  0.77357  0.23788  1.0000
  O   O9        1.0  0.15077  0.87797  0.06852  1.0000
  O   O10       1.0  0.09726  0.12208  0.93148  1.0000
  O   O11       1.0  0.96942  0.37789  0.43146  1.0000
  O   O12       1.0  0.77870  0.62203  0.56851  1.0000
  O   O13       1.0  0.15785  0.69741  0.05545  1.0000
  O   O14       1.0  0.91075  0.30264  0.94450  1.0000
  O   O15       1.0  0.96332  0.19737  0.44449  1.0000
  O   O16       1.0  0.60516  0.80260  0.55548  1.0000
  O   O17       1.0  0.20646  0.94906  0.75714  1.0000
  O   O18       1.0  0.91262  0.05098  0.24285  1.0000
  O   O19       1.0  0.71366  0.44899  0.74286  1.0000
  O   O20       1.0  0.90550  0.55095  0.25715  1.0000
  O   O21       1.0  0.60078  0.90475  0.08404  1.0000
  O   O22       1.0  0.58954  0.09530  0.91599  1.0000
  O   O23       1.0  0.43483  0.40475  0.41599  1.0000
  O   O24       1.0  0.25552  0.59523  0.58405  1.0000
  O   O25       1.0  0.46460  0.88071  0.94931  1.0000
  O   O26       1.0  0.29451  0.11935  0.05070  1.0000
  O   O27       1.0  0.16391  0.38065  0.55070  1.0000
  O   O28       1.0  0.09530  0.61931  0.44931  1.0000
