data_image0
_chemical_formula_structural       Cd4H48C48Se8N24
_chemical_formula_sum              "Cd4 H48 C48 Se8 N24"
_cell_length_a       5.68383
_cell_length_b       13.9914
_cell_length_c       18.838
_cell_angle_alpha    90
_cell_angle_beta     90
_cell_angle_gamma    90

_space_group_name_H-M_alt    "P 1"
_space_group_IT_number       1

loop_
  _space_group_symop_operation_xyz
  'x, y, z'

loop_
  _atom_site_type_symbol
  _atom_site_label
  _atom_site_symmetry_multiplicity
  _atom_site_fract_x
  _atom_site_fract_y
  _atom_site_fract_z
  _atom_site_occupancy
  Cd  Cd1       1.0  0.99999  0.50000  0.50000  1.0000
  Cd  Cd2       1.0  0.00001  0.00000  1.00000  1.0000
  Cd  Cd3       1.0  0.49999  0.99999  0.50000  1.0000
  Cd  Cd4       1.0  0.50000  0.50000  1.00000  1.0000
  H   H1        1.0  0.57698  0.63664  0.43898  1.0000
  H   H2        1.0  0.42301  0.86336  0.93898  1.0000
  H   H3        1.0  0.92300  0.13664  0.56102  1.0000
  H   H4        1.0  0.07700  0.36336  0.06101  1.0000
  H   H5        1.0  0.42299  0.36336  0.56102  1.0000
  H   H6        1.0  0.57700  0.13664  0.06102  1.0000
  H   H7        1.0  0.07700  0.86336  0.43898  1.0000
  H   H8        1.0  0.92300  0.63664  0.93898  1.0000
  H   H9        1.0  0.41571  0.70027  0.32794  1.0000
  H   H10       1.0  0.58429  0.79973  0.82794  1.0000
  H   H11       1.0  0.08428  0.20027  0.67206  1.0000
  H   H12       1.0  0.91572  0.29973  0.17206  1.0000
  H   H13       1.0  0.58426  0.29973  0.67206  1.0000
  H   H14       1.0  0.41573  0.20027  0.17206  1.0000
  H   H15       1.0  0.91574  0.79973  0.32794  1.0000
  H   H16       1.0  0.08427  0.70028  0.82794  1.0000
  H   H17       1.0  0.01881  0.57856  0.21945  1.0000
  H   H18       1.0  0.98120  0.92145  0.71945  1.0000
  H   H19       1.0  0.48119  0.07855  0.78055  1.0000
  H   H20       1.0  0.51882  0.42145  0.28055  1.0000
  H   H21       1.0  0.98117  0.42145  0.78055  1.0000
  H   H22       1.0  0.01882  0.07856  0.28055  1.0000
  H   H23       1.0  0.51883  0.92144  0.21945  1.0000
  H   H24       1.0  0.48119  0.57856  0.71945  1.0000
  H   H25       1.0  0.15568  0.52027  0.33683  1.0000
  H   H26       1.0  0.84432  0.97973  0.83683  1.0000
  H   H27       1.0  0.34432  0.02026  0.66317  1.0000
  H   H28       1.0  0.65569  0.47973  0.16317  1.0000
  H   H29       1.0  0.84431  0.47974  0.66317  1.0000
  H   H30       1.0  0.15569  0.02026  0.16317  1.0000
  H   H31       1.0  0.65569  0.97974  0.33683  1.0000
  H   H32       1.0  0.34432  0.52026  0.83683  1.0000
  H   H33       1.0  0.45757  0.70809  0.19690  1.0000
  H   H34       1.0  0.54244  0.79192  0.69690  1.0000
  H   H35       1.0  0.04243  0.20809  0.80310  1.0000
  H   H36       1.0  0.95757  0.29191  0.30310  1.0000
  H   H37       1.0  0.54241  0.29191  0.80310  1.0000
  H   H38       1.0  0.45758  0.20809  0.30310  1.0000
  H   H39       1.0  0.95758  0.79191  0.19690  1.0000
  H   H40       1.0  0.04243  0.70809  0.69690  1.0000
  H   H41       1.0  0.68606  0.65372  0.15366  1.0000
  H   H42       1.0  0.31395  0.84629  0.65366  1.0000
  H   H43       1.0  0.81393  0.15371  0.84634  1.0000
  H   H44       1.0  0.18607  0.34629  0.34634  1.0000
  H   H45       1.0  0.31392  0.34628  0.84634  1.0000
  H   H46       1.0  0.68607  0.15372  0.34634  1.0000
  H   H47       1.0  0.18608  0.84628  0.15366  1.0000
  H   H48       1.0  0.81394  0.65372  0.65366  1.0000
  C   C1        1.0  0.50334  0.39639  0.44161  1.0000
  C   C2        1.0  0.49665  0.10362  0.94160  1.0000
  C   C3        1.0  0.99663  0.89638  0.55839  1.0000
  C   C4        1.0  0.00337  0.60363  0.05840  1.0000
  C   C5        1.0  0.49663  0.60362  0.55839  1.0000
  C   C6        1.0  0.50337  0.89638  0.05838  1.0000
  C   C7        1.0  0.00333  0.10361  0.44161  1.0000
  C   C8        1.0  0.99663  0.39637  0.94161  1.0000
  C   C9        1.0  0.67179  0.62497  0.38959  1.0000
  C   C10       1.0  0.32821  0.87503  0.88959  1.0000
  C   C11       1.0  0.82820  0.12497  0.61041  1.0000
  C   C12       1.0  0.17180  0.37502  0.11041  1.0000
  C   C13       1.0  0.32819  0.37502  0.61041  1.0000
  C   C14       1.0  0.67180  0.12497  0.11041  1.0000
  C   C15       1.0  0.17181  0.87502  0.38959  1.0000
  C   C16       1.0  0.82821  0.62497  0.88959  1.0000
  C   C17       1.0  0.58096  0.66083  0.32690  1.0000
  C   C18       1.0  0.41905  0.83917  0.82690  1.0000
  C   C19       1.0  0.91903  0.16083  0.67310  1.0000
  C   C20       1.0  0.08096  0.33917  0.17310  1.0000
  C   C21       1.0  0.41902  0.33917  0.67310  1.0000
  C   C22       1.0  0.58097  0.16084  0.17310  1.0000
  C   C23       1.0  0.08098  0.83916  0.32690  1.0000
  C   C24       1.0  0.91903  0.66083  0.82690  1.0000
  C   C25       1.0  0.70227  0.64510  0.26258  1.0000
  C   C26       1.0  0.29774  0.85490  0.76258  1.0000
  C   C27       1.0  0.79773  0.14510  0.73742  1.0000
  C   C28       1.0  0.20228  0.35490  0.23742  1.0000
  C   C29       1.0  0.29770  0.35490  0.73742  1.0000
  C   C30       1.0  0.70229  0.14511  0.23742  1.0000
  C   C31       1.0  0.20229  0.85490  0.26258  1.0000
  C   C32       1.0  0.79772  0.64511  0.76258  1.0000
  C   C33       1.0  0.91481  0.59277  0.26692  1.0000
  C   C34       1.0  0.08520  0.90724  0.76692  1.0000
  C   C35       1.0  0.58519  0.09276  0.73308  1.0000
  C   C36       1.0  0.41481  0.40723  0.23308  1.0000
  C   C37       1.0  0.08518  0.40723  0.73308  1.0000
  C   C38       1.0  0.91482  0.09277  0.23308  1.0000
  C   C39       1.0  0.41482  0.90723  0.26692  1.0000
  C   C40       1.0  0.58519  0.59277  0.76692  1.0000
  C   C41       1.0  0.99164  0.55999  0.33225  1.0000
  C   C42       1.0  0.00837  0.94001  0.83225  1.0000
  C   C43       1.0  0.50836  0.05999  0.66775  1.0000
  C   C44       1.0  0.49164  0.44001  0.16775  1.0000
  C   C45       1.0  0.00835  0.44001  0.66775  1.0000
  C   C46       1.0  0.99165  0.05999  0.16775  1.0000
  C   C47       1.0  0.49164  0.94001  0.33225  1.0000
  C   C48       1.0  0.50836  0.55999  0.83225  1.0000
  Se  Se1       1.0  0.76705  0.32881  0.45714  1.0000
  Se  Se2       1.0  0.23296  0.17119  0.95714  1.0000
  Se  Se3       1.0  0.73293  0.82880  0.54286  1.0000
  Se  Se4       1.0  0.26705  0.67120  0.04287  1.0000
  Se  Se5       1.0  0.23295  0.67119  0.54286  1.0000
  Se  Se6       1.0  0.76705  0.82881  0.04285  1.0000
  Se  Se7       1.0  0.26704  0.17119  0.45714  1.0000
  Se  Se8       1.0  0.73296  0.32881  0.95715  1.0000
  N   N1        1.0  0.32654  0.43955  0.43253  1.0000
  N   N2        1.0  0.67345  0.06044  0.93253  1.0000
  N   N3        1.0  0.17341  0.93954  0.56747  1.0000
  N   N4        1.0  0.82657  0.56045  0.06747  1.0000
  N   N5        1.0  0.67342  0.56046  0.56747  1.0000
  N   N6        1.0  0.32656  0.93955  0.06746  1.0000
  N   N7        1.0  0.82655  0.06045  0.43254  1.0000
  N   N8        1.0  0.17343  0.43955  0.93253  1.0000
  N   N9        1.0  0.87401  0.57464  0.39362  1.0000
  N   N10       1.0  0.12599  0.92536  0.89362  1.0000
  N   N11       1.0  0.62598  0.07464  0.60638  1.0000
  N   N12       1.0  0.37402  0.42536  0.10638  1.0000
  N   N13       1.0  0.12597  0.42536  0.60638  1.0000
  N   N14       1.0  0.87402  0.07464  0.10638  1.0000
  N   N15       1.0  0.37402  0.92536  0.39362  1.0000
  N   N16       1.0  0.62598  0.57463  0.89362  1.0000
  N   N17       1.0  0.62500  0.68237  0.19989  1.0000
  N   N18       1.0  0.37501  0.81763  0.69989  1.0000
  N   N19       1.0  0.87499  0.18237  0.80011  1.0000
  N   N20       1.0  0.12501  0.31763  0.30011  1.0000
  N   N21       1.0  0.37498  0.31763  0.80011  1.0000
  N   N22       1.0  0.62502  0.18238  0.30011  1.0000
  N   N23       1.0  0.12502  0.81762  0.19989  1.0000
  N   N24       1.0  0.87499  0.68238  0.69989  1.0000
