data_image0
_chemical_formula_structural       Cd6H24C56N4O24
_chemical_formula_sum              "Cd6 H24 C56 N4 O24"
_cell_length_a       9.41412
_cell_length_b       9.393
_cell_length_c       16.4832
_cell_angle_alpha    78.0932
_cell_angle_beta     78.1203
_cell_angle_gamma    71.1839

_space_group_name_H-M_alt    "P 1"
_space_group_IT_number       1

loop_
  _space_group_symop_operation_xyz
  'x, y, z'

loop_
  _atom_site_type_symbol
  _atom_site_label
  _atom_site_symmetry_multiplicity
  _atom_site_fract_x
  _atom_site_fract_y
  _atom_site_fract_z
  _atom_site_occupancy
  Cd  Cd1       1.0  0.92159  0.05386  0.90881  1.0000
  Cd  Cd2       1.0  0.94620  0.07828  0.59120  1.0000
  Cd  Cd3       1.0  0.07841  0.94614  0.09119  1.0000
  Cd  Cd4       1.0  0.05380  0.92172  0.40880  1.0000
  Cd  Cd5       1.0  0.19021  0.80956  0.75003  1.0000
  Cd  Cd6       1.0  0.80979  0.19044  0.24996  1.0000
  H   H1        1.0  0.85819  0.59529  0.77505  1.0000
  H   H2        1.0  0.40405  0.14112  0.72525  1.0000
  H   H3        1.0  0.14181  0.40471  0.22495  1.0000
  H   H4        1.0  0.59594  0.85888  0.27475  1.0000
  H   H5        1.0  0.67799  0.44280  0.80219  1.0000
  H   H6        1.0  0.55652  0.32146  0.69793  1.0000
  H   H7        1.0  0.32201  0.55719  0.19781  1.0000
  H   H8        1.0  0.44348  0.67854  0.30207  1.0000
  H   H9        1.0  0.50935  0.96196  0.87946  1.0000
  H   H10       1.0  0.03844  0.49086  0.62053  1.0000
  H   H11       1.0  0.49065  0.03804  0.12054  1.0000
  H   H12       1.0  0.96156  0.50914  0.37947  1.0000
  H   H13       1.0  0.53192  0.33614  0.94596  1.0000
  H   H14       1.0  0.66321  0.46752  0.55406  1.0000
  H   H15       1.0  0.46808  0.66386  0.05404  1.0000
  H   H16       1.0  0.33679  0.53248  0.44594  1.0000
  H   H17       1.0  0.35096  0.17944  0.97800  1.0000
  H   H18       1.0  0.81982  0.64861  0.52213  1.0000
  H   H19       1.0  0.64903  0.82057  0.02200  1.0000
  H   H20       1.0  0.18018  0.35138  0.47787  1.0000
  H   H21       1.0  0.05492  0.53585  0.82744  1.0000
  H   H22       1.0  0.46434  0.94561  0.67239  1.0000
  H   H23       1.0  0.94508  0.46415  0.17255  1.0000
  H   H24       1.0  0.53566  0.05439  0.32761  1.0000
  C   C1        1.0  0.81009  0.87115  0.82055  1.0000
  C   C2        1.0  0.12884  0.18963  0.67950  1.0000
  C   C3        1.0  0.18992  0.12885  0.17945  1.0000
  C   C4        1.0  0.87116  0.81037  0.32050  1.0000
  C   C5        1.0  0.69480  0.78872  0.82574  1.0000
  C   C6        1.0  0.21119  0.30496  0.67438  1.0000
  C   C7        1.0  0.30520  0.21128  0.17426  1.0000
  C   C8        1.0  0.78880  0.69504  0.32562  1.0000
  C   C9        1.0  0.74129  0.64278  0.80317  1.0000
  C   C10       1.0  0.35679  0.25826  0.69703  1.0000
  C   C11       1.0  0.25871  0.35722  0.19683  1.0000
  C   C12       1.0  0.64321  0.74174  0.30297  1.0000
  C   C13       1.0  0.63973  0.55765  0.81816  1.0000
  C   C14       1.0  0.44191  0.35988  0.68195  1.0000
  C   C15       1.0  0.36027  0.44235  0.18184  1.0000
  C   C16       1.0  0.55808  0.64012  0.31805  1.0000
  C   C17       1.0  0.48795  0.61780  0.85352  1.0000
  C   C18       1.0  0.38205  0.51198  0.64643  1.0000
  C   C19       1.0  0.51205  0.38220  0.14648  1.0000
  C   C20       1.0  0.61795  0.48802  0.35357  1.0000
  C   C21       1.0  0.43976  0.76632  0.87402  1.0000
  C   C22       1.0  0.23384  0.56037  0.62597  1.0000
  C   C23       1.0  0.56024  0.23368  0.12598  1.0000
  C   C24       1.0  0.76616  0.43964  0.37403  1.0000
  C   C25       1.0  0.54382  0.84975  0.86047  1.0000
  C   C26       1.0  0.15040  0.45625  0.63959  1.0000
  C   C27       1.0  0.45619  0.15025  0.13953  1.0000
  C   C28       1.0  0.84960  0.54375  0.36041  1.0000
  C   C29       1.0  0.38497  0.52114  0.87176  1.0000
  C   C30       1.0  0.47865  0.61501  0.62813  1.0000
  C   C31       1.0  0.61502  0.47886  0.12824  1.0000
  C   C32       1.0  0.52135  0.38499  0.37187  1.0000
  C   C33       1.0  0.42499  0.37764  0.92081  1.0000
  C   C34       1.0  0.62184  0.57470  0.57916  1.0000
  C   C35       1.0  0.57501  0.62236  0.07919  1.0000
  C   C36       1.0  0.37816  0.42530  0.42084  1.0000
  C   C37       1.0  0.32532  0.29004  0.93831  1.0000
  C   C38       1.0  0.70941  0.67443  0.56172  1.0000
  C   C39       1.0  0.67468  0.70997  0.06169  1.0000
  C   C40       1.0  0.29059  0.32557  0.43828  1.0000
  C   C41       1.0  0.19013  0.34471  0.90409  1.0000
  C   C42       1.0  0.65501  0.80993  0.59589  1.0000
  C   C43       1.0  0.80986  0.65529  0.09591  1.0000
  C   C44       1.0  0.34499  0.19007  0.40411  1.0000
  C   C45       1.0  0.15894  0.48790  0.85499  1.0000
  C   C46       1.0  0.51206  0.84135  0.64488  1.0000
  C   C47       1.0  0.84106  0.51211  0.14501  1.0000
  C   C48       1.0  0.48794  0.15865  0.35512  1.0000
  C   C49       1.0  0.08533  0.24863  0.91830  1.0000
  C   C50       1.0  0.75136  0.91454  0.58180  1.0000
  C   C51       1.0  0.91467  0.75137  0.08171  1.0000
  C   C52       1.0  0.24864  0.08546  0.41820  1.0000
  C   C53       1.0  0.28318  0.83463  0.91993  1.0000
  C   C54       1.0  0.16560  0.71719  0.58004  1.0000
  C   C55       1.0  0.71682  0.16537  0.08007  1.0000
  C   C56       1.0  0.83440  0.28281  0.41995  1.0000
  N   N1        1.0  0.25265  0.57493  0.83998  1.0000
  N   N2        1.0  0.42502  0.74763  0.65987  1.0000
  N   N3        1.0  0.74735  0.42507  0.16002  1.0000
  N   N4        1.0  0.57498  0.25237  0.34013  1.0000
  O   O1        1.0  0.76307  0.00124  0.84561  1.0000
  O   O2        1.0  0.99895  0.23678  0.65454  1.0000
  O   O3        1.0  0.23693  0.99876  0.15439  1.0000
  O   O4        1.0  0.00105  0.76323  0.34546  1.0000
  O   O5        1.0  0.94671  0.80166  0.79587  1.0000
  O   O6        1.0  0.19838  0.05270  0.70405  1.0000
  O   O7        1.0  0.05329  0.19834  0.20413  1.0000
  O   O8        1.0  0.80162  0.94730  0.29595  1.0000
  O   O9        1.0  0.27444  0.82582  0.99807  1.0000
  O   O10       1.0  0.17435  0.72599  0.50191  1.0000
  O   O11       1.0  0.72556  0.17417  0.00193  1.0000
  O   O12       1.0  0.82565  0.27400  0.49809  1.0000
  O   O13       1.0  0.17499  0.89955  0.87650  1.0000
  O   O14       1.0  0.10058  0.82547  0.62351  1.0000
  O   O15       1.0  0.82501  0.10045  0.12350  1.0000
  O   O16       1.0  0.89942  0.17454  0.37649  1.0000
  O   O17       1.0  0.08494  0.15496  0.98580  1.0000
  O   O18       1.0  0.84536  0.91431  0.51449  1.0000
  O   O19       1.0  0.91506  0.84504  0.01420  1.0000
  O   O20       1.0  0.15464  0.08569  0.48551  1.0000
  O   O21       1.0  0.00668  0.26198  0.86108  1.0000
  O   O22       1.0  0.73793  0.99358  0.63890  1.0000
  O   O23       1.0  0.99332  0.73802  0.13892  1.0000
  O   O24       1.0  0.26207  0.00642  0.36110  1.0000
