data_image0
_chemical_formula_structural       Mo2H30C40N2O8
_chemical_formula_sum              "Mo2 H30 C40 N2 O8"
_cell_length_a       8.1673
_cell_length_b       10.2715
_cell_length_c       11.9834
_cell_angle_alpha    113.013
_cell_angle_beta     90.8447
_cell_angle_gamma    108.641

_space_group_name_H-M_alt    "P 1"
_space_group_IT_number       1

loop_
  _space_group_symop_operation_xyz
  'x, y, z'

loop_
  _atom_site_type_symbol
  _atom_site_label
  _atom_site_symmetry_multiplicity
  _atom_site_fract_x
  _atom_site_fract_y
  _atom_site_fract_z
  _atom_site_occupancy
  Mo  Mo1       1.0  0.05765  0.92317  0.94085  1.0000
  Mo  Mo2       1.0  0.94235  0.07684  0.05915  1.0000
  H   H1        1.0  0.37969  0.77612  0.00543  1.0000
  H   H2        1.0  0.62030  0.22388  0.99456  1.0000
  H   H3        1.0  0.09766  0.56186  0.94555  1.0000
  H   H4        1.0  0.90233  0.43815  0.05444  1.0000
  H   H5        1.0  0.08810  0.29830  0.82591  1.0000
  H   H6        1.0  0.91191  0.70170  0.17409  1.0000
  H   H7        1.0  0.36209  0.25078  0.76704  1.0000
  H   H8        1.0  0.63792  0.74923  0.23299  1.0000
  H   H9        1.0  0.64361  0.46861  0.82372  1.0000
  H   H10       1.0  0.35639  0.53140  0.17629  1.0000
  H   H11       1.0  0.27301  0.75534  0.18350  1.0000
  H   H12       1.0  0.72698  0.24465  0.81649  1.0000
  H   H13       1.0  0.36721  0.70993  0.36011  1.0000
  H   H14       1.0  0.63277  0.29005  0.63988  1.0000
  H   H15       1.0  0.33551  0.86581  0.57144  1.0000
  H   H16       1.0  0.66449  0.13418  0.42855  1.0000
  H   H17       1.0  0.20889  0.06628  0.60756  1.0000
  H   H18       1.0  0.79113  0.93373  0.39245  1.0000
  H   H19       1.0  0.11429  0.11133  0.43183  1.0000
  H   H20       1.0  0.88573  0.88867  0.56817  1.0000
  H   H21       1.0  0.96121  0.59888  0.70272  1.0000
  H   H22       1.0  0.03878  0.40112  0.29729  1.0000
  H   H23       1.0  0.08356  0.41946  0.55445  1.0000
  H   H24       1.0  0.91644  0.58053  0.44556  1.0000
  H   H25       1.0  0.59025  0.77923  0.68611  1.0000
  H   H26       1.0  0.40975  0.22076  0.31389  1.0000
  H   H27       1.0  0.44595  0.94173  0.82808  1.0000
  H   H28       1.0  0.55405  0.05826  0.17192  1.0000
  H   H29       1.0  0.32333  0.36757  0.46065  1.0000
  H   H30       1.0  0.67666  0.63242  0.53934  1.0000
  C   C1        1.0  0.52853  0.63488  0.91677  1.0000
  C   C2        1.0  0.47147  0.36513  0.08323  1.0000
  C   C3        1.0  0.37490  0.66098  0.95266  1.0000
  C   C4        1.0  0.62510  0.33903  0.04733  1.0000
  C   C5        1.0  0.21698  0.54017  0.91924  1.0000
  C   C6        1.0  0.78302  0.45984  0.08075  1.0000
  C   C7        1.0  0.21161  0.39246  0.85151  1.0000
  C   C8        1.0  0.78839  0.60755  0.14849  1.0000
  C   C9        1.0  0.36474  0.36600  0.81700  1.0000
  C   C10       1.0  0.63526  0.63400  0.18300  1.0000
  C   C11       1.0  0.52242  0.48662  0.84855  1.0000
  C   C12       1.0  0.47758  0.51338  0.15145  1.0000
  C   C13       1.0  0.69537  0.76196  0.94969  1.0000
  C   C14       1.0  0.30463  0.23805  0.05032  1.0000
  C   C15       1.0  0.18914  0.93729  0.29683  1.0000
  C   C16       1.0  0.81087  0.06271  0.70316  1.0000
  C   C17       1.0  0.26051  0.82350  0.27677  1.0000
  C   C18       1.0  0.73948  0.17649  0.72322  1.0000
  C   C19       1.0  0.31158  0.79774  0.37533  1.0000
  C   C20       1.0  0.68842  0.20225  0.62468  1.0000
  C   C21       1.0  0.29354  0.88511  0.49449  1.0000
  C   C22       1.0  0.70646  0.11488  0.50551  1.0000
  C   C23       1.0  0.22424  0.99885  0.51495  1.0000
  C   C24       1.0  0.77577  0.00116  0.48505  1.0000
  C   C25       1.0  0.17204  0.02502  0.41700  1.0000
  C   C26       1.0  0.82798  0.97498  0.58300  1.0000
  C   C27       1.0  0.12614  0.96105  0.19299  1.0000
  C   C28       1.0  0.87386  0.03895  0.80701  1.0000
  C   C29       1.0  0.10018  0.63441  0.69496  1.0000
  C   C30       1.0  0.89982  0.36559  0.30505  1.0000
  C   C31       1.0  0.16897  0.53498  0.61251  1.0000
  C   C32       1.0  0.83103  0.46501  0.38749  1.0000
  C   C33       1.0  0.34817  0.58442  0.60386  1.0000
  C   C34       1.0  0.65183  0.41557  0.39614  1.0000
  C   C35       1.0  0.44991  0.73381  0.68496  1.0000
  C   C36       1.0  0.55009  0.26619  0.31503  1.0000
  C   C37       1.0  0.37037  0.82513  0.76496  1.0000
  C   C38       1.0  0.62963  0.17486  0.23503  1.0000
  C   C39       1.0  0.41737  0.48207  0.51272  1.0000
  C   C40       1.0  0.58263  0.51792  0.48728  1.0000
  N   N1        1.0  0.19766  0.77804  0.76960  1.0000
  N   N2        1.0  0.80234  0.22196  0.23040  1.0000
  O   O1        1.0  0.82962  0.73753  0.90175  1.0000
  O   O2        1.0  0.17038  0.26248  0.09826  1.0000
  O   O3        1.0  0.70610  0.89626  0.02427  1.0000
  O   O4        1.0  0.29389  0.10374  0.97574  1.0000
  O   O5        1.0  0.15520  0.88826  0.08408  1.0000
  O   O6        1.0  0.84480  0.11175  0.91592  1.0000
  O   O7        1.0  0.04005  0.05100  0.21129  1.0000
  O   O8        1.0  0.95996  0.94900  0.78871  1.0000
