data_image0
_chemical_formula_structural       Zn2H32C36N8O8F8
_chemical_formula_sum              "Zn2 H32 C36 N8 O8 F8"
_cell_length_a       8.57518
_cell_length_b       8.5752
_cell_length_c       13.2555
_cell_angle_alpha    82.9037
_cell_angle_beta     82.9039
_cell_angle_gamma    88.7936

_space_group_name_H-M_alt    "P 1"
_space_group_IT_number       1

loop_
  _space_group_symop_operation_xyz
  'x, y, z'

loop_
  _atom_site_type_symbol
  _atom_site_label
  _atom_site_symmetry_multiplicity
  _atom_site_fract_x
  _atom_site_fract_y
  _atom_site_fract_z
  _atom_site_occupancy
  Zn  Zn1       1.0  0.99986  0.00014  0.75000  1.0000
  Zn  Zn2       1.0  0.00014  0.99987  0.25000  1.0000
  H   H1        1.0  0.77327  0.86580  0.60653  1.0000
  H   H2        1.0  0.13420  0.22673  0.89347  1.0000
  H   H3        1.0  0.22673  0.13420  0.39347  1.0000
  H   H4        1.0  0.86580  0.77327  0.10653  1.0000
  H   H5        1.0  0.69158  0.05108  0.43168  1.0000
  H   H6        1.0  0.94892  0.30842  0.06832  1.0000
  H   H7        1.0  0.30842  0.94892  0.56832  1.0000
  H   H8        1.0  0.05108  0.69158  0.93168  1.0000
  H   H9        1.0  0.97812  0.31201  0.58812  1.0000
  H   H10       1.0  0.68799  0.02188  0.91188  1.0000
  H   H11       1.0  0.02188  0.68799  0.41188  1.0000
  H   H12       1.0  0.31201  0.97812  0.08812  1.0000
  H   H13       1.0  0.79458  0.32563  0.34186  1.0000
  H   H14       1.0  0.67437  0.20542  0.15814  1.0000
  H   H15       1.0  0.20542  0.67438  0.65814  1.0000
  H   H16       1.0  0.32563  0.79458  0.84186  1.0000
  H   H17       1.0  0.89401  0.44303  0.41315  1.0000
  H   H18       1.0  0.55697  0.10599  0.08686  1.0000
  H   H19       1.0  0.10599  0.55697  0.58686  1.0000
  H   H20       1.0  0.44303  0.89401  0.91314  1.0000
  H   H21       1.0  0.80642  0.49299  0.88277  1.0000
  H   H22       1.0  0.50701  0.19358  0.61723  1.0000
  H   H23       1.0  0.19358  0.50701  0.11723  1.0000
  H   H24       1.0  0.49299  0.80642  0.38277  1.0000
  H   H25       1.0  0.91395  0.48392  0.76065  1.0000
  H   H26       1.0  0.51608  0.08605  0.73935  1.0000
  H   H27       1.0  0.08605  0.51608  0.23935  1.0000
  H   H28       1.0  0.48392  0.91395  0.26065  1.0000
  H   H29       1.0  0.70411  0.51446  0.77363  1.0000
  H   H30       1.0  0.48554  0.29589  0.72637  1.0000
  H   H31       1.0  0.29589  0.48554  0.22637  1.0000
  H   H32       1.0  0.51446  0.70411  0.27363  1.0000
  C   C1        1.0  0.80259  0.98608  0.57658  1.0000
  C   C2        1.0  0.01392  0.19741  0.92342  1.0000
  C   C3        1.0  0.19741  0.01392  0.42342  1.0000
  C   C4        1.0  0.98608  0.80259  0.07658  1.0000
  C   C5        1.0  0.75908  0.07592  0.49162  1.0000
  C   C6        1.0  0.92408  0.24092  0.00838  1.0000
  C   C7        1.0  0.24092  0.92408  0.50838  1.0000
  C   C8        1.0  0.07592  0.75908  0.99162  1.0000
  C   C9        1.0  0.90897  0.21683  0.57063  1.0000
  C   C10       1.0  0.78317  0.09103  0.92937  1.0000
  C   C11       1.0  0.09103  0.78317  0.42937  1.0000
  C   C12       1.0  0.21684  0.90897  0.07063  1.0000
  C   C13       1.0  0.79695  0.36076  0.41825  1.0000
  C   C14       1.0  0.63924  0.20305  0.08175  1.0000
  C   C15       1.0  0.20305  0.63924  0.58175  1.0000
  C   C16       1.0  0.36076  0.79695  0.91825  1.0000
  C   C17       1.0  0.64457  0.43594  0.45723  1.0000
  C   C18       1.0  0.56406  0.35543  0.04277  1.0000
  C   C19       1.0  0.35543  0.56406  0.54277  1.0000
  C   C20       1.0  0.43594  0.64457  0.95723  1.0000
  C   C21       1.0  0.50069  0.39375  0.42993  1.0000
  C   C22       1.0  0.60625  0.49931  0.07007  1.0000
  C   C23       1.0  0.49931  0.60625  0.57007  1.0000
  C   C24       1.0  0.39375  0.50069  0.92993  1.0000
  C   C25       1.0  0.35985  0.45661  0.47170  1.0000
  C   C26       1.0  0.54339  0.64015  0.02830  1.0000
  C   C27       1.0  0.64015  0.54339  0.52830  1.0000
  C   C28       1.0  0.45661  0.35985  0.97170  1.0000
  C   C29       1.0  0.83550  0.71818  0.79296  1.0000
  C   C30       1.0  0.28182  0.16450  0.70704  1.0000
  C   C31       1.0  0.16450  0.28182  0.20704  1.0000
  C   C32       1.0  0.71818  0.83550  0.29296  1.0000
  C   C33       1.0  0.81440  0.54153  0.80154  1.0000
  C   C34       1.0  0.45848  0.18560  0.69846  1.0000
  C   C35       1.0  0.18560  0.45847  0.19846  1.0000
  C   C36       1.0  0.54152  0.81440  0.30154  1.0000
  N   N1        1.0  0.89605  0.07526  0.62491  1.0000
  N   N2        1.0  0.92474  0.10395  0.87509  1.0000
  N   N3        1.0  0.10394  0.92474  0.37509  1.0000
  N   N4        1.0  0.07526  0.89605  0.12491  1.0000
  N   N5        1.0  0.82805  0.22116  0.48867  1.0000
  N   N6        1.0  0.77884  0.17195  0.01133  1.0000
  N   N7        1.0  0.17195  0.77884  0.51133  1.0000
  N   N8        1.0  0.22116  0.82805  0.98867  1.0000
  O   O1        1.0  0.97870  0.76747  0.76356  1.0000
  O   O2        1.0  0.23253  0.02130  0.73644  1.0000
  O   O3        1.0  0.02130  0.23253  0.23644  1.0000
  O   O4        1.0  0.76747  0.97870  0.26356  1.0000
  O   O5        1.0  0.72143  0.80639  0.81488  1.0000
  O   O6        1.0  0.19361  0.27857  0.68512  1.0000
  O   O7        1.0  0.27857  0.19361  0.18512  1.0000
  O   O8        1.0  0.80639  0.72143  0.31488  1.0000
  F   F1        1.0  0.49663  0.28849  0.36173  1.0000
  F   F2        1.0  0.71151  0.50337  0.13827  1.0000
  F   F3        1.0  0.50337  0.71151  0.63827  1.0000
  F   F4        1.0  0.28849  0.49663  0.86173  1.0000
  F   F5        1.0  0.22314  0.41171  0.44187  1.0000
  F   F6        1.0  0.58829  0.77686  0.05813  1.0000
  F   F7        1.0  0.77686  0.58829  0.55813  1.0000
  F   F8        1.0  0.41171  0.22313  0.94187  1.0000
