data_image0
_chemical_formula_structural       Ba4H16C32N24O8
_chemical_formula_sum              "Ba4 H16 C32 N24 O8"
_cell_length_a       6.76703
_cell_length_b       10.8991
_cell_length_c       17.6131
_cell_angle_alpha    90.0001
_cell_angle_beta     96.9275
_cell_angle_gamma    90.0001

_space_group_name_H-M_alt    "P 1"
_space_group_IT_number       1

loop_
  _space_group_symop_operation_xyz
  'x, y, z'

loop_
  _atom_site_type_symbol
  _atom_site_label
  _atom_site_symmetry_multiplicity
  _atom_site_fract_x
  _atom_site_fract_y
  _atom_site_fract_z
  _atom_site_occupancy
  Ba  Ba1       1.0  0.75318  0.85326  0.97340  1.0000
  Ba  Ba2       1.0  0.74682  0.35326  0.52660  1.0000
  Ba  Ba3       1.0  0.24683  0.14674  0.02660  1.0000
  Ba  Ba4       1.0  0.25318  0.64674  0.47340  1.0000
  H   H1        1.0  0.11224  0.98151  0.87845  1.0000
  H   H2        1.0  0.38776  0.48151  0.62155  1.0000
  H   H3        1.0  0.88776  0.01849  0.12155  1.0000
  H   H4        1.0  0.61224  0.51849  0.37845  1.0000
  H   H5        1.0  0.20414  0.87685  0.93098  1.0000
  H   H6        1.0  0.29586  0.37686  0.56902  1.0000
  H   H7        1.0  0.79586  0.12314  0.06902  1.0000
  H   H8        1.0  0.70414  0.62315  0.43098  1.0000
  H   H9        1.0  0.45146  0.06341  0.87528  1.0000
  H   H10       1.0  0.04854  0.56341  0.62472  1.0000
  H   H11       1.0  0.54854  0.93659  0.12472  1.0000
  H   H12       1.0  0.95146  0.43659  0.37528  1.0000
  H   H13       1.0  0.63921  0.13060  0.91986  1.0000
  H   H14       1.0  0.86079  0.63060  0.58014  1.0000
  H   H15       1.0  0.36079  0.86940  0.08014  1.0000
  H   H16       1.0  0.13921  0.36940  0.41986  1.0000
  C   C1        1.0  0.66561  0.91261  0.66307  1.0000
  C   C2        1.0  0.83439  0.41261  0.83693  1.0000
  C   C3        1.0  0.33440  0.08739  0.33693  1.0000
  C   C4        1.0  0.16560  0.58739  0.16307  1.0000
  C   C5        1.0  0.69376  0.90225  0.74316  1.0000
  C   C6        1.0  0.80623  0.40225  0.75683  1.0000
  C   C7        1.0  0.30624  0.09775  0.25684  1.0000
  C   C8        1.0  0.19376  0.59775  0.24316  1.0000
  C   C9        1.0  0.65985  0.02788  0.62723  1.0000
  C   C10       1.0  0.84015  0.52787  0.87277  1.0000
  C   C11       1.0  0.34016  0.97213  0.37278  1.0000
  C   C12       1.0  0.15984  0.47212  0.12722  1.0000
  C   C13       1.0  0.64144  0.80638  0.61870  1.0000
  C   C14       1.0  0.85855  0.30637  0.88130  1.0000
  C   C15       1.0  0.35856  0.19362  0.38130  1.0000
  C   C16       1.0  0.14144  0.69362  0.11870  1.0000
  C   C17       1.0  0.32784  0.54587  0.84983  1.0000
  C   C18       1.0  0.17216  0.04587  0.65017  1.0000
  C   C19       1.0  0.67216  0.45413  0.15017  1.0000
  C   C20       1.0  0.82784  0.95413  0.34982  1.0000
  C   C21       1.0  0.29263  0.54323  0.77006  1.0000
  C   C22       1.0  0.20737  0.04324  0.72993  1.0000
  C   C23       1.0  0.70737  0.45676  0.22993  1.0000
  C   C24       1.0  0.79263  0.95676  0.27006  1.0000
  C   C25       1.0  0.34844  0.65919  0.88649  1.0000
  C   C26       1.0  0.15155  0.15919  0.61351  1.0000
  C   C27       1.0  0.65155  0.34081  0.11351  1.0000
  C   C28       1.0  0.84845  0.84081  0.38649  1.0000
  C   C29       1.0  0.33443  0.43708  0.89278  1.0000
  C   C30       1.0  0.16557  0.93709  0.60723  1.0000
  C   C31       1.0  0.66557  0.56292  0.10722  1.0000
  C   C32       1.0  0.83442  0.06291  0.39277  1.0000
  N   N1        1.0  0.71767  0.89162  0.80985  1.0000
  N   N2        1.0  0.78233  0.39162  0.69015  1.0000
  N   N3        1.0  0.28234  0.10838  0.19015  1.0000
  N   N4        1.0  0.21767  0.60838  0.30985  1.0000
  N   N5        1.0  0.65312  0.12376  0.59685  1.0000
  N   N6        1.0  0.84688  0.62376  0.90315  1.0000
  N   N7        1.0  0.34689  0.87624  0.40315  1.0000
  N   N8        1.0  0.15311  0.37624  0.09685  1.0000
  N   N9        1.0  0.62138  0.71642  0.58153  1.0000
  N   N10       1.0  0.87861  0.21642  0.91846  1.0000
  N   N11       1.0  0.37863  0.28358  0.41846  1.0000
  N   N12       1.0  0.12138  0.78359  0.08153  1.0000
  N   N13       1.0  0.26173  0.54330  0.70304  1.0000
  N   N14       1.0  0.23827  0.04330  0.79696  1.0000
  N   N15       1.0  0.73827  0.45670  0.29696  1.0000
  N   N16       1.0  0.76174  0.95670  0.20304  1.0000
  N   N17       1.0  0.36673  0.75534  0.91662  1.0000
  N   N18       1.0  0.13327  0.25534  0.58338  1.0000
  N   N19       1.0  0.63327  0.24466  0.08338  1.0000
  N   N20       1.0  0.86673  0.74466  0.41662  1.0000
  N   N21       1.0  0.33976  0.34690  0.92911  1.0000
  N   N22       1.0  0.16025  0.84690  0.57089  1.0000
  N   N23       1.0  0.66024  0.65310  0.07089  1.0000
  N   N24       1.0  0.83975  0.15310  0.42911  1.0000
  O   O1        1.0  0.10874  0.94675  0.93011  1.0000
  O   O2        1.0  0.39127  0.44675  0.56989  1.0000
  O   O3        1.0  0.89127  0.05325  0.06989  1.0000
  O   O4        1.0  0.60873  0.55325  0.43011  1.0000
  O   O5        1.0  0.53199  0.07076  0.92579  1.0000
  O   O6        1.0  0.96802  0.57076  0.57421  1.0000
  O   O7        1.0  0.46801  0.92924  0.07421  1.0000
  O   O8        1.0  0.03199  0.42924  0.42579  1.0000
