data_image0
_chemical_formula_structural       Cu8H12C64S4F40
_chemical_formula_sum              "Cu8 H12 C64 S4 F40"
_cell_length_a       11.0633
_cell_length_b       11.4764
_cell_length_c       14.6181
_cell_angle_alpha    86.5749
_cell_angle_beta     82.2885
_cell_angle_gamma    61.2212

_space_group_name_H-M_alt    "P 1"
_space_group_IT_number       1

loop_
  _space_group_symop_operation_xyz
  'x, y, z'

loop_
  _atom_site_type_symbol
  _atom_site_label
  _atom_site_symmetry_multiplicity
  _atom_site_fract_x
  _atom_site_fract_y
  _atom_site_fract_z
  _atom_site_occupancy
  Cu  Cu1       1.0  0.25527  0.32591  0.70000  1.0000
  Cu  Cu2       1.0  0.74473  0.67409  0.30000  1.0000
  Cu  Cu3       1.0  0.00702  0.48613  0.72546  1.0000
  Cu  Cu4       1.0  0.99298  0.51387  0.27454  1.0000
  Cu  Cu5       1.0  0.94249  0.70469  0.78649  1.0000
  Cu  Cu6       1.0  0.05751  0.29531  0.21351  1.0000
  Cu  Cu7       1.0  0.18932  0.53775  0.77731  1.0000
  Cu  Cu8       1.0  0.81068  0.46225  0.22269  1.0000
  H   H1        1.0  0.41029  0.21785  0.47830  1.0000
  H   H2        1.0  0.58971  0.78215  0.52170  1.0000
  H   H3        1.0  0.67369  0.16227  0.46287  1.0000
  H   H4        1.0  0.32631  0.83774  0.53713  1.0000
  H   H5        1.0  0.79251  0.03622  0.60925  1.0000
  H   H6        1.0  0.20749  0.96378  0.39075  1.0000
  H   H7        1.0  0.42704  0.98503  0.80810  1.0000
  H   H8        1.0  0.57296  0.01497  0.19190  1.0000
  H   H9        1.0  0.52979  0.88368  0.96365  1.0000
  H   H10       1.0  0.47021  0.11632  0.03635  1.0000
  H   H11       1.0  0.78231  0.85489  0.96212  1.0000
  H   H12       1.0  0.21769  0.14511  0.03788  1.0000
  C   C1        1.0  0.09877  0.31609  0.65291  1.0000
  C   C2        1.0  0.90123  0.68391  0.34709  1.0000
  C   C3        1.0  0.05217  0.22904  0.69451  1.0000
  C   C4        1.0  0.94783  0.77096  0.30548  1.0000
  C   C5        1.0  0.99915  0.16691  0.64603  1.0000
  C   C6        1.0  0.00085  0.83309  0.35397  1.0000
  C   C7        1.0  0.98848  0.19352  0.55228  1.0000
  C   C8        1.0  0.01152  0.80647  0.44772  1.0000
  C   C9        1.0  0.03339  0.27908  0.50757  1.0000
  C   C10       1.0  0.96662  0.72092  0.49243  1.0000
  C   C11       1.0  0.08893  0.33683  0.55798  1.0000
  C   C12       1.0  0.91107  0.66316  0.44202  1.0000
  C   C13       1.0  0.82111  0.61842  0.78733  1.0000
  C   C14       1.0  0.17889  0.38158  0.21267  1.0000
  C   C15       1.0  0.71240  0.66325  0.73249  1.0000
  C   C16       1.0  0.28760  0.33675  0.26751  1.0000
  C   C17       1.0  0.59050  0.65666  0.75926  1.0000
  C   C18       1.0  0.40951  0.34333  0.24074  1.0000
  C   C19       1.0  0.57086  0.60735  0.84627  1.0000
  C   C20       1.0  0.42914  0.39265  0.15373  1.0000
  C   C21       1.0  0.67534  0.56158  0.90409  1.0000
  C   C22       1.0  0.32466  0.43842  0.09591  1.0000
  C   C23       1.0  0.79625  0.56878  0.87425  1.0000
  C   C24       1.0  0.20376  0.43122  0.12575  1.0000
  C   C25       1.0  0.10390  0.72854  0.81566  1.0000
  C   C26       1.0  0.89610  0.27146  0.18434  1.0000
  C   C27       1.0  0.16227  0.79335  0.75559  1.0000
  C   C28       1.0  0.83773  0.20665  0.24441  1.0000
  C   C29       1.0  0.20324  0.88036  0.78530  1.0000
  C   C30       1.0  0.79676  0.11964  0.21470  1.0000
  C   C31       1.0  0.18579  0.90673  0.87938  1.0000
  C   C32       1.0  0.81421  0.09327  0.12061  1.0000
  C   C33       1.0  0.12782  0.84574  0.94231  1.0000
  C   C34       1.0  0.87218  0.15425  0.05769  1.0000
  C   C35       1.0  0.08944  0.75852  0.90973  1.0000
  C   C36       1.0  0.91056  0.24148  0.09027  1.0000
  C   C37       1.0  0.37739  0.37646  0.75700  1.0000
  C   C38       1.0  0.62261  0.62354  0.24300  1.0000
  C   C39       1.0  0.42549  0.31516  0.84020  1.0000
  C   C40       1.0  0.57451  0.68484  0.15980  1.0000
  C   C41       1.0  0.55583  0.28291  0.86310  1.0000
  C   C42       1.0  0.44417  0.71709  0.13691  1.0000
  C   C43       1.0  0.64564  0.30966  0.79985  1.0000
  C   C44       1.0  0.35436  0.69034  0.20015  1.0000
  C   C45       1.0  0.60416  0.36764  0.71497  1.0000
  C   C46       1.0  0.39584  0.63236  0.28503  1.0000
  C   C47       1.0  0.47175  0.40121  0.69559  1.0000
  C   C48       1.0  0.52825  0.59879  0.30441  1.0000
  C   C49       1.0  0.48354  0.16741  0.52816  1.0000
  C   C50       1.0  0.51646  0.83259  0.47184  1.0000
  C   C51       1.0  0.62043  0.13671  0.52222  1.0000
  C   C52       1.0  0.37957  0.86330  0.47778  1.0000
  C   C53       1.0  0.68440  0.06851  0.60130  1.0000
  C   C54       1.0  0.31560  0.93149  0.39870  1.0000
  C   C55       1.0  0.59592  0.04737  0.66798  1.0000
  C   C56       1.0  0.40408  0.95263  0.33202  1.0000
  C   C57       1.0  0.62008  0.98680  0.75755  1.0000
  C   C58       1.0  0.37992  0.01320  0.24245  1.0000
  C   C59       1.0  0.53049  0.96283  0.82142  1.0000
  C   C60       1.0  0.46951  0.03717  0.17858  1.0000
  C   C61       1.0  0.58530  0.90906  0.90579  1.0000
  C   C62       1.0  0.41470  0.09094  0.09421  1.0000
  C   C63       1.0  0.71626  0.89254  0.90714  1.0000
  C   C64       1.0  0.28374  0.10746  0.09286  1.0000
  S   S1        1.0  0.43216  0.11096  0.63052  1.0000
  S   S2        1.0  0.56784  0.88904  0.36948  1.0000
  S   S3        1.0  0.77470  0.94149  0.80345  1.0000
  S   S4        1.0  0.22530  0.05851  0.19655  1.0000
  F   F1        1.0  0.05980  0.20276  0.78615  1.0000
  F   F2        1.0  0.94020  0.79724  0.21386  1.0000
  F   F3        1.0  0.95562  0.08254  0.68733  1.0000
  F   F4        1.0  0.04438  0.91746  0.31267  1.0000
  F   F5        1.0  0.93325  0.13765  0.50483  1.0000
  F   F6        1.0  0.06675  0.86235  0.49517  1.0000
  F   F7        1.0  0.01964  0.30400  0.41688  1.0000
  F   F8        1.0  0.98036  0.69600  0.58312  1.0000
  F   F9        1.0  0.13738  0.41602  0.51251  1.0000
  F   F10       1.0  0.86262  0.58398  0.48749  1.0000
  F   F11       1.0  0.72254  0.71713  0.64821  1.0000
  F   F12       1.0  0.27746  0.28287  0.35179  1.0000
  F   F13       1.0  0.49160  0.69628  0.70179  1.0000
  F   F14       1.0  0.50839  0.30372  0.29821  1.0000
  F   F15       1.0  0.45137  0.60418  0.87438  1.0000
  F   F16       1.0  0.54863  0.39582  0.12562  1.0000
  F   F17       1.0  0.65723  0.51003  0.98709  1.0000
  F   F18       1.0  0.34277  0.48997  0.01292  1.0000
  F   F19       1.0  0.89321  0.52755  0.93374  1.0000
  F   F20       1.0  0.10680  0.47245  0.06626  1.0000
  F   F21       1.0  0.18027  0.77233  0.66287  1.0000
  F   F22       1.0  0.81973  0.22767  0.33712  1.0000
  F   F23       1.0  0.25929  0.94027  0.72448  1.0000
  F   F24       1.0  0.74071  0.05973  0.27552  1.0000
  F   F25       1.0  0.22467  0.99091  0.90983  1.0000
  F   F26       1.0  0.77533  0.00908  0.09017  1.0000
  F   F27       1.0  0.10761  0.87448  0.03303  1.0000
  F   F28       1.0  0.89239  0.12552  0.96696  1.0000
  F   F29       1.0  0.03001  0.70434  0.97375  1.0000
  F   F30       1.0  0.96999  0.29566  0.02625  1.0000
  F   F31       1.0  0.34223  0.28374  0.90251  1.0000
  F   F32       1.0  0.65777  0.71626  0.09749  1.0000
  F   F33       1.0  0.59669  0.22684  0.94522  1.0000
  F   F34       1.0  0.40331  0.77316  0.05478  1.0000
  F   F35       1.0  0.77158  0.28129  0.82083  1.0000
  F   F36       1.0  0.22842  0.71871  0.17918  1.0000
  F   F37       1.0  0.69308  0.39150  0.65387  1.0000
  F   F38       1.0  0.30692  0.60850  0.34613  1.0000
  F   F39       1.0  0.43424  0.45962  0.61306  1.0000
  F   F40       1.0  0.56576  0.54038  0.38694  1.0000
