data_image0
_chemical_formula_structural       Cd8H24C48N48O16
_chemical_formula_sum              "Cd8 H24 C48 N48 O16"
_cell_length_a       10.4999
_cell_length_b       11.3661
_cell_length_c       16.868
_cell_angle_alpha    90
_cell_angle_beta     90
_cell_angle_gamma    115.311

_space_group_name_H-M_alt    "P 1"
_space_group_IT_number       1

loop_
  _space_group_symop_operation_xyz
  'x, y, z'

loop_
  _atom_site_type_symbol
  _atom_site_label
  _atom_site_symmetry_multiplicity
  _atom_site_fract_x
  _atom_site_fract_y
  _atom_site_fract_z
  _atom_site_occupancy
  Cd  Cd1       1.0  0.66873  0.09906  0.18691  1.0000
  Cd  Cd2       1.0  0.33127  0.40094  0.68690  1.0000
  Cd  Cd3       1.0  0.33127  0.90094  0.81310  1.0000
  Cd  Cd4       1.0  0.66873  0.59906  0.31309  1.0000
  Cd  Cd5       1.0  0.28755  0.34941  0.31084  1.0000
  Cd  Cd6       1.0  0.71245  0.15059  0.81084  1.0000
  Cd  Cd7       1.0  0.71245  0.65059  0.68916  1.0000
  Cd  Cd8       1.0  0.28755  0.84941  0.18916  1.0000
  H   H1        1.0  0.06414  0.13726  0.47013  1.0000
  H   H2        1.0  0.93586  0.36274  0.97013  1.0000
  H   H3        1.0  0.93586  0.86274  0.52987  1.0000
  H   H4        1.0  0.06414  0.63726  0.02987  1.0000
  H   H5        1.0  0.80515  0.99272  0.49013  1.0000
  H   H6        1.0  0.19485  0.50728  0.99013  1.0000
  H   H7        1.0  0.19485  0.00728  0.50987  1.0000
  H   H8        1.0  0.80515  0.49272  0.00987  1.0000
  H   H9        1.0  0.64285  0.96634  0.37422  1.0000
  H   H10       1.0  0.35715  0.53366  0.87422  1.0000
  H   H11       1.0  0.35715  0.03366  0.62578  1.0000
  H   H12       1.0  0.64286  0.46634  0.12578  1.0000
  H   H13       1.0  0.85041  0.89889  0.86627  1.0000
  H   H14       1.0  0.14959  0.60111  0.36627  1.0000
  H   H15       1.0  0.14959  0.10111  0.13373  1.0000
  H   H16       1.0  0.85041  0.39889  0.63373  1.0000
  H   H17       1.0  0.86433  0.77793  0.98980  1.0000
  H   H18       1.0  0.13566  0.72207  0.48980  1.0000
  H   H19       1.0  0.13566  0.22207  0.01020  1.0000
  H   H20       1.0  0.86434  0.27793  0.51019  1.0000
  H   H21       1.0  0.78900  0.84400  0.12069  1.0000
  H   H22       1.0  0.21100  0.65600  0.62069  1.0000
  H   H23       1.0  0.21100  0.15600  0.87931  1.0000
  H   H24       1.0  0.78900  0.34400  0.37931  1.0000
  C   C1        1.0  0.99342  0.24860  0.22596  1.0000
  C   C2        1.0  0.00658  0.25140  0.72595  1.0000
  C   C3        1.0  0.00658  0.75140  0.77404  1.0000
  C   C4        1.0  0.99342  0.74860  0.27405  1.0000
  C   C5        1.0  0.94184  0.17419  0.29851  1.0000
  C   C6        1.0  0.05816  0.32581  0.79851  1.0000
  C   C7        1.0  0.05816  0.82581  0.70149  1.0000
  C   C8        1.0  0.94184  0.67419  0.20149  1.0000
  C   C9        1.0  0.98790  0.12331  0.42313  1.0000
  C   C10       1.0  0.01210  0.37669  0.92313  1.0000
  C   C11       1.0  0.01210  0.87669  0.57687  1.0000
  C   C12       1.0  0.98791  0.62331  0.07687  1.0000
  C   C13       1.0  0.84516  0.04268  0.43415  1.0000
  C   C14       1.0  0.15484  0.45731  0.93415  1.0000
  C   C15       1.0  0.15484  0.95731  0.56585  1.0000
  C   C16       1.0  0.84516  0.54269  0.06585  1.0000
  C   C17       1.0  0.75515  0.03015  0.37083  1.0000
  C   C18       1.0  0.24485  0.46985  0.87083  1.0000
  C   C19       1.0  0.24485  0.96985  0.62917  1.0000
  C   C20       1.0  0.75516  0.53015  0.12917  1.0000
  C   C21       1.0  0.66959  0.13021  0.99955  1.0000
  C   C22       1.0  0.33041  0.36979  0.49955  1.0000
  C   C23       1.0  0.33041  0.86979  0.00045  1.0000
  C   C24       1.0  0.66959  0.63021  0.50045  1.0000
  C   C25       1.0  0.73219  0.03771  0.99769  1.0000
  C   C26       1.0  0.26781  0.46229  0.49769  1.0000
  C   C27       1.0  0.26782  0.96229  0.00231  1.0000
  C   C28       1.0  0.73219  0.53771  0.50231  1.0000
  C   C29       1.0  0.82083  0.92072  0.92458  1.0000
  C   C30       1.0  0.17917  0.57927  0.42458  1.0000
  C   C31       1.0  0.17917  0.07927  0.07542  1.0000
  C   C32       1.0  0.82083  0.42072  0.57542  1.0000
  C   C33       1.0  0.82806  0.85436  0.99281  1.0000
  C   C34       1.0  0.17194  0.64565  0.49281  1.0000
  C   C35       1.0  0.17194  0.14564  0.00719  1.0000
  C   C36       1.0  0.82806  0.35436  0.50719  1.0000
  C   C37       1.0  0.78671  0.88984  0.06407  1.0000
  C   C38       1.0  0.21329  0.61015  0.56407  1.0000
  C   C39       1.0  0.21329  0.11015  0.93593  1.0000
  C   C40       1.0  0.78671  0.38985  0.43593  1.0000
  C   C41       1.0  0.54771  0.78610  0.23773  1.0000
  C   C42       1.0  0.45230  0.71390  0.73773  1.0000
  C   C43       1.0  0.45229  0.21390  0.76227  1.0000
  C   C44       1.0  0.54770  0.28611  0.26227  1.0000
  C   C45       1.0  0.41122  0.66061  0.25687  1.0000
  C   C46       1.0  0.58878  0.83938  0.75686  1.0000
  C   C47       1.0  0.58878  0.33938  0.74313  1.0000
  C   C48       1.0  0.41122  0.16062  0.24313  1.0000
  N   N1        1.0  0.91267  0.24215  0.16331  1.0000
  N   N2        1.0  0.08733  0.25785  0.66331  1.0000
  N   N3        1.0  0.08733  0.75785  0.83669  1.0000
  N   N4        1.0  0.91267  0.74216  0.33669  1.0000
  N   N5        1.0  0.00006  0.32359  0.10923  1.0000
  N   N6        1.0  0.99994  0.17641  0.60923  1.0000
  N   N7        1.0  0.99994  0.67641  0.89077  1.0000
  N   N8        1.0  0.00006  0.82359  0.39077  1.0000
  N   N9        1.0  0.12995  0.37800  0.13849  1.0000
  N   N10       1.0  0.87005  0.12200  0.63849  1.0000
  N   N11       1.0  0.87005  0.62200  0.86151  1.0000
  N   N12       1.0  0.12996  0.87800  0.36151  1.0000
  N   N13       1.0  0.12781  0.33198  0.21204  1.0000
  N   N14       1.0  0.87218  0.16802  0.71204  1.0000
  N   N15       1.0  0.87219  0.66802  0.78796  1.0000
  N   N16       1.0  0.12782  0.83199  0.28797  1.0000
  N   N17       1.0  0.03665  0.18927  0.35553  1.0000
  N   N18       1.0  0.96335  0.31073  0.85553  1.0000
  N   N19       1.0  0.96335  0.81072  0.64447  1.0000
  N   N20       1.0  0.03665  0.68927  0.14447  1.0000
  N   N21       1.0  0.80322  0.09621  0.30302  1.0000
  N   N22       1.0  0.19678  0.40379  0.80302  1.0000
  N   N23       1.0  0.19678  0.90379  0.69698  1.0000
  N   N24       1.0  0.80322  0.59621  0.19698  1.0000
  N   N25       1.0  0.61909  0.16312  0.06458  1.0000
  N   N26       1.0  0.38091  0.33688  0.56458  1.0000
  N   N27       1.0  0.38091  0.83688  0.93542  1.0000
  N   N28       1.0  0.61909  0.66312  0.43542  1.0000
  N   N29       1.0  0.56604  0.24599  0.04029  1.0000
  N   N30       1.0  0.43396  0.25401  0.54029  1.0000
  N   N31       1.0  0.43396  0.75401  0.95971  1.0000
  N   N32       1.0  0.56604  0.74599  0.45971  1.0000
  N   N33       1.0  0.58350  0.26228  0.96264  1.0000
  N   N34       1.0  0.41650  0.23772  0.46264  1.0000
  N   N35       1.0  0.41650  0.73772  0.03736  1.0000
  N   N36       1.0  0.58350  0.76228  0.53736  1.0000
  N   N37       1.0  0.64842  0.19027  0.93595  1.0000
  N   N38       1.0  0.35158  0.30973  0.43595  1.0000
  N   N39       1.0  0.35158  0.80973  0.06405  1.0000
  N   N40       1.0  0.64842  0.69027  0.56405  1.0000
  N   N41       1.0  0.77343  0.01313  0.92660  1.0000
  N   N42       1.0  0.22657  0.48687  0.42660  1.0000
  N   N43       1.0  0.22657  0.98687  0.07340  1.0000
  N   N44       1.0  0.77343  0.51313  0.57340  1.0000
  N   N45       1.0  0.73910  0.98210  0.06689  1.0000
  N   N46       1.0  0.26090  0.51790  0.56689  1.0000
  N   N47       1.0  0.26090  0.01790  0.93311  1.0000
  N   N48       1.0  0.73910  0.48210  0.43311  1.0000
  O   O1        1.0  0.52629  0.88362  0.21629  1.0000
  O   O2        1.0  0.47371  0.61638  0.71628  1.0000
  O   O3        1.0  0.47371  0.11638  0.78371  1.0000
  O   O4        1.0  0.52629  0.38362  0.28372  1.0000
  O   O5        1.0  0.66612  0.78461  0.24512  1.0000
  O   O6        1.0  0.33388  0.71539  0.74512  1.0000
  O   O7        1.0  0.33388  0.21539  0.75488  1.0000
  O   O8        1.0  0.66612  0.28462  0.25488  1.0000
  O   O9        1.0  0.43316  0.56480  0.28135  1.0000
  O   O10       1.0  0.56684  0.93520  0.78135  1.0000
  O   O11       1.0  0.56684  0.43520  0.71865  1.0000
  O   O12       1.0  0.43317  0.06480  0.21865  1.0000
  O   O13       1.0  0.29302  0.66168  0.24812  1.0000
  O   O14       1.0  0.70697  0.83832  0.74812  1.0000
  O   O15       1.0  0.70698  0.33832  0.75188  1.0000
  O   O16       1.0  0.29303  0.16168  0.25188  1.0000
