data_image0
_chemical_formula_structural       Cu4H24C16O32
_chemical_formula_sum              "Cu4 H24 C16 O32"
_cell_length_a       7.85322
_cell_length_b       8.56992
_cell_length_c       12.2269
_cell_angle_alpha    90.0005
_cell_angle_beta     89.999
_cell_angle_gamma    89.9991

_space_group_name_H-M_alt    "P 1"
_space_group_IT_number       1

loop_
  _space_group_symop_operation_xyz
  'x, y, z'

loop_
  _atom_site_type_symbol
  _atom_site_label
  _atom_site_symmetry_multiplicity
  _atom_site_fract_x
  _atom_site_fract_y
  _atom_site_fract_z
  _atom_site_occupancy
  Cu  Cu1       1.0  0.50000  1.00000  0.50000  1.0000
  Cu  Cu2       1.0  0.00000  1.00000  0.00000  1.0000
  Cu  Cu3       1.0  1.00000  0.50000  0.50000  1.0000
  Cu  Cu4       1.0  0.50000  0.50000  0.00000  1.0000
  H   H1        1.0  0.80410  0.20518  0.43855  1.0000
  H   H2        1.0  0.69591  0.79482  0.93855  1.0000
  H   H3        1.0  0.30410  0.29482  0.56144  1.0000
  H   H4        1.0  0.19590  0.70518  0.06144  1.0000
  H   H5        1.0  0.19590  0.79482  0.56145  1.0000
  H   H6        1.0  0.30409  0.20517  0.06145  1.0000
  H   H7        1.0  0.69590  0.70518  0.43856  1.0000
  H   H8        1.0  0.80410  0.29482  0.93856  1.0000
  H   H9        1.0  0.60140  0.11844  0.73593  1.0000
  H   H10       1.0  0.89861  0.88156  0.23593  1.0000
  H   H11       1.0  0.10139  0.38159  0.26407  1.0000
  H   H12       1.0  0.39860  0.61842  0.76407  1.0000
  H   H13       1.0  0.39860  0.88156  0.26407  1.0000
  H   H14       1.0  0.10139  0.11844  0.76406  1.0000
  H   H15       1.0  0.89861  0.61842  0.73593  1.0000
  H   H16       1.0  0.60141  0.38158  0.23593  1.0000
  H   H17       1.0  0.37116  0.97749  0.89092  1.0000
  H   H18       1.0  0.12886  0.02252  0.39092  1.0000
  H   H19       1.0  0.87114  0.52253  0.10907  1.0000
  H   H20       1.0  0.62885  0.47748  0.60907  1.0000
  H   H21       1.0  0.62884  0.02251  0.10907  1.0000
  H   H22       1.0  0.87115  0.97748  0.60908  1.0000
  H   H23       1.0  0.12885  0.47748  0.89093  1.0000
  H   H24       1.0  0.37116  0.52252  0.39093  1.0000
  C   C1        1.0  0.73219  0.26163  0.50498  1.0000
  C   C2        1.0  0.76780  0.73837  0.00497  1.0000
  C   C3        1.0  0.23219  0.23837  0.49502  1.0000
  C   C4        1.0  0.26782  0.76163  0.99501  1.0000
  C   C5        1.0  0.26780  0.73837  0.49503  1.0000
  C   C6        1.0  0.23219  0.26163  0.99503  1.0000
  C   C7        1.0  0.76781  0.76163  0.50498  1.0000
  C   C8        1.0  0.73218  0.23837  0.00499  1.0000
  C   C9        1.0  0.49224  0.04533  0.75999  1.0000
  C   C10       1.0  0.00777  0.95467  0.25999  1.0000
  C   C11       1.0  0.99223  0.45471  0.24001  1.0000
  C   C12       1.0  0.50776  0.54532  0.74000  1.0000
  C   C13       1.0  0.50776  0.95466  0.24001  1.0000
  C   C14       1.0  0.99224  0.04532  0.74000  1.0000
  C   C15       1.0  0.00777  0.54530  0.75999  1.0000
  C   C16       1.0  0.49225  0.45468  0.26000  1.0000
  O   O1        1.0  0.60062  0.19817  0.54469  1.0000
  O   O2        1.0  0.89938  0.80182  0.04469  1.0000
  O   O3        1.0  0.10062  0.30182  0.45531  1.0000
  O   O4        1.0  0.39938  0.69818  0.95530  1.0000
  O   O5        1.0  0.39938  0.80183  0.45531  1.0000
  O   O6        1.0  0.10062  0.19818  0.95532  1.0000
  O   O7        1.0  0.89938  0.69818  0.54469  1.0000
  O   O8        1.0  0.60062  0.30182  0.04469  1.0000
  O   O9        1.0  0.78372  0.39271  0.54231  1.0000
  O   O10       1.0  0.71628  0.60729  0.04230  1.0000
  O   O11       1.0  0.28372  0.10729  0.45769  1.0000
  O   O12       1.0  0.21628  0.89271  0.95769  1.0000
  O   O13       1.0  0.21628  0.60729  0.45769  1.0000
  O   O14       1.0  0.28372  0.39271  0.95770  1.0000
  O   O15       1.0  0.71628  0.89271  0.54231  1.0000
  O   O16       1.0  0.78372  0.10729  0.04231  1.0000
  O   O17       1.0  0.40126  0.97655  0.69354  1.0000
  O   O18       1.0  0.09874  0.02346  0.19353  1.0000
  O   O19       1.0  0.90126  0.52351  0.30647  1.0000
  O   O20       1.0  0.59874  0.47652  0.80646  1.0000
  O   O21       1.0  0.59874  0.02345  0.30646  1.0000
  O   O22       1.0  0.90126  0.97654  0.80647  1.0000
  O   O23       1.0  0.09874  0.47650  0.69353  1.0000
  O   O24       1.0  0.40126  0.52347  0.19354  1.0000
  O   O25       1.0  0.47250  0.04357  0.86740  1.0000
  O   O26       1.0  0.02751  0.95644  0.36740  1.0000
  O   O27       1.0  0.97249  0.45645  0.13260  1.0000
  O   O28       1.0  0.52750  0.54356  0.63259  1.0000
  O   O29       1.0  0.52750  0.95644  0.13260  1.0000
  O   O30       1.0  0.97249  0.04356  0.63260  1.0000
  O   O31       1.0  0.02751  0.54356  0.86739  1.0000
  O   O32       1.0  0.47250  0.45644  0.36740  1.0000
