data_image0
_chemical_formula_structural       K2H42C42O28
_chemical_formula_sum              "K2 H42 C42 O28"
_cell_length_a       10.0058
_cell_length_b       10.0171
_cell_length_c       12.25
_cell_angle_alpha    86.8799
_cell_angle_beta     86.8764
_cell_angle_gamma    73.8707

_space_group_name_H-M_alt    "P 1"
_space_group_IT_number       1

loop_
  _space_group_symop_operation_xyz
  'x, y, z'

loop_
  _atom_site_type_symbol
  _atom_site_label
  _atom_site_symmetry_multiplicity
  _atom_site_fract_x
  _atom_site_fract_y
  _atom_site_fract_z
  _atom_site_occupancy
  K   K1        1.0  0.47229  0.51960  0.78496  1.0000
  K   K2        1.0  0.51971  0.47251  0.28471  1.0000
  H   H1        1.0  0.79332  0.72955  0.93873  1.0000
  H   H2        1.0  0.72964  0.79323  0.43876  1.0000
  H   H3        1.0  0.64438  0.69998  0.87935  1.0000
  H   H4        1.0  0.69987  0.64459  0.37927  1.0000
  H   H5        1.0  0.70737  0.84241  0.82857  1.0000
  H   H6        1.0  0.84268  0.70727  0.32866  1.0000
  H   H7        1.0  0.75425  0.03110  0.70241  1.0000
  H   H8        1.0  0.03074  0.75410  0.20255  1.0000
  H   H9        1.0  0.62400  0.18987  0.73454  1.0000
  H   H10       1.0  0.18974  0.62402  0.23459  1.0000
  H   H11       1.0  0.77342  0.13299  0.81562  1.0000
  H   H12       1.0  0.13284  0.77329  0.31566  1.0000
  H   H13       1.0  0.82294  0.98842  0.34182  1.0000
  H   H14       1.0  0.98813  0.82273  0.84174  1.0000
  H   H15       1.0  0.69879  0.14886  0.30245  1.0000
  H   H16       1.0  0.14881  0.69880  0.80239  1.0000
  H   H17       1.0  0.68219  0.06883  0.43532  1.0000
  H   H18       1.0  0.06871  0.68223  0.93528  1.0000
  H   H19       1.0  0.13286  0.47323  0.07626  1.0000
  H   H20       1.0  0.47330  0.13274  0.57629  1.0000
  H   H21       1.0  0.94507  0.51697  0.09442  1.0000
  H   H22       1.0  0.51701  0.94516  0.59446  1.0000
  H   H23       1.0  0.04476  0.33925  0.08064  1.0000
  H   H24       1.0  0.33912  0.04480  0.58070  1.0000
  H   H25       1.0  0.31817  0.99956  0.32849  1.0000
  H   H26       1.0  0.99911  0.31842  0.82842  1.0000
  H   H27       1.0  0.43596  0.07928  0.38764  1.0000
  H   H28       1.0  0.07918  0.43582  0.88763  1.0000
  H   H29       1.0  0.37883  0.13329  0.25308  1.0000
  H   H30       1.0  0.13318  0.37876  0.75305  1.0000
  H   H31       1.0  0.45247  0.72114  0.44902  1.0000
  H   H32       1.0  0.72117  0.45220  0.94905  1.0000
  H   H33       1.0  0.51244  0.56614  0.53472  1.0000
  H   H34       1.0  0.56594  0.51196  0.03470  1.0000
  H   H35       1.0  0.38819  0.71781  0.58849  1.0000
  H   H36       1.0  0.71791  0.38811  0.08855  1.0000
  H   H37       1.0  0.16713  0.95467  0.53871  1.0000
  H   H38       1.0  0.95510  0.16712  0.03871  1.0000
  H   H39       1.0  0.06983  0.95488  0.66609  1.0000
  H   H40       1.0  0.95537  0.06994  0.16610  1.0000
  H   H41       1.0  0.97990  0.00749  0.54126  1.0000
  H   H42       1.0  0.00803  0.98011  0.04127  1.0000
  C   C1        1.0  0.88780  0.54089  0.61418  1.0000
  C   C2        1.0  0.54091  0.88795  0.11421  1.0000
  C   C3        1.0  0.87399  0.40603  0.59395  1.0000
  C   C4        1.0  0.40589  0.87414  0.09398  1.0000
  C   C5        1.0  0.89343  0.35577  0.48442  1.0000
  C   C6        1.0  0.35564  0.89357  0.98443  1.0000
  C   C7        1.0  0.98475  0.38975  0.40751  1.0000
  C   C8        1.0  0.38963  0.98486  0.90755  1.0000
  C   C9        1.0  0.11402  0.41767  0.44251  1.0000
  C   C10       1.0  0.41755  0.11398  0.94259  1.0000
  C   C11       1.0  0.11306  0.52235  0.50851  1.0000
  C   C12       1.0  0.52234  0.11301  0.00862  1.0000
  C   C13       1.0  0.98352  0.60498  0.56341  1.0000
  C   C14       1.0  0.60505  0.98361  0.06349  1.0000
  C   C15       1.0  0.77944  0.62506  0.69447  1.0000
  C   C16       1.0  0.62523  0.77962  0.19441  1.0000
  C   C17       1.0  0.73805  0.73543  0.86327  1.0000
  C   C18       1.0  0.73554  0.73807  0.36328  1.0000
  C   C19       1.0  0.80748  0.33733  0.67901  1.0000
  C   C20       1.0  0.33719  0.80753  0.17901  1.0000
  C   C21       1.0  0.73558  0.13554  0.73289  1.0000
  C   C22       1.0  0.13533  0.73548  0.23294  1.0000
  C   C23       1.0  0.78899  0.28502  0.44908  1.0000
  C   C24       1.0  0.28497  0.78914  0.94902  1.0000
  C   C25       1.0  0.75586  0.08706  0.37050  1.0000
  C   C26       1.0  0.08690  0.75581  0.87043  1.0000
  C   C27       1.0  0.96137  0.38917  0.29080  1.0000
  C   C28       1.0  0.38912  0.96148  0.79083  1.0000
  C   C29       1.0  0.04418  0.43987  0.11219  1.0000
  C   C30       1.0  0.43986  0.04418  0.61223  1.0000
  C   C31       1.0  0.24692  0.31628  0.40792  1.0000
  C   C32       1.0  0.31614  0.24675  0.90797  1.0000
  C   C33       1.0  0.34846  0.09559  0.33381  1.0000
  C   C34       1.0  0.09536  0.34846  0.83377  1.0000
  C   C35       1.0  0.24635  0.54385  0.54737  1.0000
  C   C36       1.0  0.54390  0.24615  0.04748  1.0000
  C   C37       1.0  0.42413  0.65615  0.51587  1.0000
  C   C38       1.0  0.65617  0.42383  0.01592  1.0000
  C   C39       1.0  0.96302  0.75366  0.58127  1.0000
  C   C40       1.0  0.75392  0.96315  0.08130  1.0000
  C   C41       1.0  0.07205  0.93793  0.57816  1.0000
  C   C42       1.0  0.93837  0.07214  0.07817  1.0000
  O   O1        1.0  0.83488  0.64705  0.78752  1.0000
  O   O2        1.0  0.64724  0.83490  0.28751  1.0000
  O   O3        1.0  0.65551  0.66634  0.67540  1.0000
  O   O4        1.0  0.66659  0.65586  0.17522  1.0000
  O   O5        1.0  0.75371  0.38788  0.76673  1.0000
  O   O6        1.0  0.38785  0.75384  0.26671  1.0000
  O   O7        1.0  0.81156  0.20489  0.65584  1.0000
  O   O8        1.0  0.20465  0.81141  0.15583  1.0000
  O   O9        1.0  0.66271  0.33934  0.45432  1.0000
  O   O10       1.0  0.33946  0.66301  0.95428  1.0000
  O   O11       1.0  0.84899  0.15740  0.41296  1.0000
  O   O12       1.0  0.15721  0.84894  0.91286  1.0000
  O   O13       1.0  0.86097  0.36421  0.25028  1.0000
  O   O14       1.0  0.36419  0.86118  0.75030  1.0000
  O   O15       1.0  0.06359  0.42642  0.22836  1.0000
  O   O16       1.0  0.42642  0.06360  0.72840  1.0000
  O   O17       1.0  0.22627  0.19596  0.37771  1.0000
  O   O18       1.0  0.19568  0.22627  0.87765  1.0000
  O   O19       1.0  0.36312  0.33572  0.40676  1.0000
  O   O20       1.0  0.33569  0.36280  0.90686  1.0000
  O   O21       1.0  0.31094  0.61107  0.47463  1.0000
  O   O22       1.0  0.61125  0.31062  0.97475  1.0000
  O   O23       1.0  0.28446  0.50774  0.64085  1.0000
  O   O24       1.0  0.50770  0.28426  0.14094  1.0000
  O   O25       1.0  0.08077  0.79408  0.56088  1.0000
  O   O26       1.0  0.79437  0.08079  0.06094  1.0000
  O   O27       1.0  0.85124  0.83550  0.60998  1.0000
  O   O28       1.0  0.83587  0.85149  0.10995  1.0000
