data_image0
_chemical_formula_structural       Cd4H60C52N20Cl8
_chemical_formula_sum              "Cd4 H60 C52 N20 Cl8"
_cell_length_a       9.17164
_cell_length_b       9.35546
_cell_length_c       18.5736
_cell_angle_alpha    90
_cell_angle_beta     90
_cell_angle_gamma    107.819

_space_group_name_H-M_alt    "P 1"
_space_group_IT_number       1

loop_
  _space_group_symop_operation_xyz
  'x, y, z'

loop_
  _atom_site_type_symbol
  _atom_site_label
  _atom_site_symmetry_multiplicity
  _atom_site_fract_x
  _atom_site_fract_y
  _atom_site_fract_z
  _atom_site_occupancy
  Cd  Cd1       1.0  0.59811  0.76726  0.71292  1.0000
  Cd  Cd2       1.0  0.90189  0.23274  0.21292  1.0000
  Cd  Cd3       1.0  0.40189  0.23274  0.28708  1.0000
  Cd  Cd4       1.0  0.09811  0.76726  0.78708  1.0000
  H   H1        1.0  0.32831  0.76392  0.58906  1.0000
  H   H2        1.0  0.17169  0.23608  0.08906  1.0000
  H   H3        1.0  0.67169  0.23608  0.41094  1.0000
  H   H4        1.0  0.82831  0.76392  0.91094  1.0000
  H   H5        1.0  0.14936  0.69463  0.48411  1.0000
  H   H6        1.0  0.35064  0.30537  0.98411  1.0000
  H   H7        1.0  0.85064  0.30537  0.51589  1.0000
  H   H8        1.0  0.64936  0.69463  0.01589  1.0000
  H   H9        1.0  0.10486  0.45209  0.42151  1.0000
  H   H10       1.0  0.39515  0.54791  0.92151  1.0000
  H   H11       1.0  0.89515  0.54791  0.57849  1.0000
  H   H12       1.0  0.60485  0.45209  0.07849  1.0000
  H   H13       1.0  0.22989  0.26430  0.46237  1.0000
  H   H14       1.0  0.27011  0.73570  0.96237  1.0000
  H   H15       1.0  0.77011  0.73570  0.53763  1.0000
  H   H16       1.0  0.72989  0.26430  0.03763  1.0000
  H   H17       1.0  0.44578  0.16409  0.51959  1.0000
  H   H18       1.0  0.05422  0.83591  0.01959  1.0000
  H   H19       1.0  0.55422  0.83590  0.48042  1.0000
  H   H20       1.0  0.94578  0.16409  0.98042  1.0000
  H   H21       1.0  0.55342  0.18609  0.60155  1.0000
  H   H22       1.0  0.94658  0.81391  0.10155  1.0000
  H   H23       1.0  0.44658  0.81391  0.39846  1.0000
  H   H24       1.0  0.05342  0.18609  0.89845  1.0000
  H   H25       1.0  0.17641  0.00854  0.51622  1.0000
  H   H26       1.0  0.32359  0.99146  0.01622  1.0000
  H   H27       1.0  0.82359  0.99146  0.48378  1.0000
  H   H28       1.0  0.67641  0.00854  0.98378  1.0000
  H   H29       1.0  0.98700  0.81711  0.61776  1.0000
  H   H30       1.0  0.51300  0.18289  0.11776  1.0000
  H   H31       1.0  0.01300  0.18289  0.38224  1.0000
  H   H32       1.0  0.48700  0.81711  0.88224  1.0000
  H   H33       1.0  0.53242  0.13971  0.71541  1.0000
  H   H34       1.0  0.96758  0.86029  0.21541  1.0000
  H   H35       1.0  0.46758  0.86029  0.28459  1.0000
  H   H36       1.0  0.03242  0.13971  0.78459  1.0000
  H   H37       1.0  0.41671  0.01139  0.77713  1.0000
  H   H38       1.0  0.08328  0.98861  0.27713  1.0000
  H   H39       1.0  0.58328  0.98862  0.22287  1.0000
  H   H40       1.0  0.91671  0.01139  0.72287  1.0000
  H   H41       1.0  0.36768  0.31463  0.74249  1.0000
  H   H42       1.0  0.13232  0.68536  0.24249  1.0000
  H   H43       1.0  0.63232  0.68537  0.25751  1.0000
  H   H44       1.0  0.86768  0.31464  0.75751  1.0000
  H   H45       1.0  0.27838  0.18585  0.81080  1.0000
  H   H46       1.0  0.22162  0.81415  0.31080  1.0000
  H   H47       1.0  0.72162  0.81415  0.18920  1.0000
  H   H48       1.0  0.77838  0.18585  0.68920  1.0000
  H   H49       1.0  0.49487  0.39972  0.86007  1.0000
  H   H50       1.0  0.00513  0.60028  0.36007  1.0000
  H   H51       1.0  0.50513  0.60028  0.13993  1.0000
  H   H52       1.0  0.99487  0.39972  0.63993  1.0000
  H   H53       1.0  0.62426  0.35271  0.80120  1.0000
  H   H54       1.0  0.87574  0.64729  0.30120  1.0000
  H   H55       1.0  0.37575  0.64729  0.19880  1.0000
  H   H56       1.0  0.12426  0.35271  0.69880  1.0000
  H   H57       1.0  0.53333  0.22598  0.87113  1.0000
  H   H58       1.0  0.96667  0.77401  0.37113  1.0000
  H   H59       1.0  0.46666  0.77401  0.12887  1.0000
  H   H60       1.0  0.03333  0.22598  0.62887  1.0000
  C   C1        1.0  0.37693  0.55077  0.58448  1.0000
  C   C2        1.0  0.12307  0.44923  0.08448  1.0000
  C   C3        1.0  0.62307  0.44923  0.41552  1.0000
  C   C4        1.0  0.87693  0.55077  0.91552  1.0000
  C   C5        1.0  0.30480  0.65575  0.56238  1.0000
  C   C6        1.0  0.19520  0.34425  0.06238  1.0000
  C   C7        1.0  0.69520  0.34425  0.43762  1.0000
  C   C8        1.0  0.80480  0.65575  0.93762  1.0000
  C   C9        1.0  0.20594  0.61573  0.50414  1.0000
  C   C10       1.0  0.29407  0.38427  0.00414  1.0000
  C   C11       1.0  0.79407  0.38427  0.49586  1.0000
  C   C12       1.0  0.70594  0.61573  0.99586  1.0000
  C   C13       1.0  0.17874  0.47595  0.46876  1.0000
  C   C14       1.0  0.32127  0.52405  0.96876  1.0000
  C   C15       1.0  0.82127  0.52405  0.53124  1.0000
  C   C16       1.0  0.67873  0.47595  0.03124  1.0000
  C   C17       1.0  0.24663  0.36975  0.49103  1.0000
  C   C18       1.0  0.25337  0.63025  0.99103  1.0000
  C   C19       1.0  0.75337  0.63025  0.50897  1.0000
  C   C20       1.0  0.74663  0.36975  0.00897  1.0000
  C   C21       1.0  0.34589  0.41021  0.55000  1.0000
  C   C22       1.0  0.15411  0.58979  0.05000  1.0000
  C   C23       1.0  0.65412  0.58979  0.45000  1.0000
  C   C24       1.0  0.84588  0.41021  0.95000  1.0000
  C   C25       1.0  0.44606  0.19026  0.57726  1.0000
  C   C26       1.0  0.05394  0.80973  0.07726  1.0000
  C   C27       1.0  0.55394  0.80973  0.42274  1.0000
  C   C28       1.0  0.94606  0.19027  0.92274  1.0000
  C   C29       1.0  0.18734  0.99552  0.57380  1.0000
  C   C30       1.0  0.31266  0.00448  0.07380  1.0000
  C   C31       1.0  0.81266  0.00448  0.42620  1.0000
  C   C32       1.0  0.68734  0.99552  0.92620  1.0000
  C   C33       1.0  0.09782  0.90092  0.62364  1.0000
  C   C34       1.0  0.40218  0.09908  0.12364  1.0000
  C   C35       1.0  0.90218  0.09908  0.37636  1.0000
  C   C36       1.0  0.59782  0.90092  0.87636  1.0000
  C   C37       1.0  0.30408  0.03434  0.68133  1.0000
  C   C38       1.0  0.19592  0.96566  0.18133  1.0000
  C   C39       1.0  0.69592  0.96566  0.31867  1.0000
  C   C40       1.0  0.80408  0.03434  0.81867  1.0000
  C   C41       1.0  0.41689  0.10102  0.73886  1.0000
  C   C42       1.0  0.08311  0.89898  0.23886  1.0000
  C   C43       1.0  0.58311  0.89898  0.26114  1.0000
  C   C44       1.0  0.91689  0.10102  0.76114  1.0000
  C   C45       1.0  0.38513  0.23116  0.78023  1.0000
  C   C46       1.0  0.11487  0.76884  0.28023  1.0000
  C   C47       1.0  0.61487  0.76884  0.21977  1.0000
  C   C48       1.0  0.88513  0.23117  0.71977  1.0000
  C   C49       1.0  0.51670  0.30615  0.83109  1.0000
  C   C50       1.0  0.98330  0.69385  0.33109  1.0000
  C   C51       1.0  0.48330  0.69385  0.16891  1.0000
  C   C52       1.0  0.01670  0.30615  0.66891  1.0000
  N   N1        1.0  0.48524  0.55695  0.63699  1.0000
  N   N2        1.0  0.01476  0.44305  0.13699  1.0000
  N   N3        1.0  0.51476  0.44305  0.36301  1.0000
  N   N4        1.0  0.98523  0.55695  0.86301  1.0000
  N   N5        1.0  0.52007  0.43203  0.63765  1.0000
  N   N6        1.0  0.97993  0.56797  0.13765  1.0000
  N   N7        1.0  0.47993  0.56797  0.36235  1.0000
  N   N8        1.0  0.02007  0.43203  0.86235  1.0000
  N   N9        1.0  0.43725  0.34143  0.58565  1.0000
  N   N10       1.0  0.06275  0.65857  0.08564  1.0000
  N   N11       1.0  0.56275  0.65856  0.41436  1.0000
  N   N12       1.0  0.93725  0.34143  0.91436  1.0000
  N   N13       1.0  0.31739  0.07888  0.61057  1.0000
  N   N14       1.0  0.18261  0.92112  0.11057  1.0000
  N   N15       1.0  0.68261  0.92112  0.38943  1.0000
  N   N16       1.0  0.81738  0.07888  0.88943  1.0000
  N   N17       1.0  0.17124  0.92538  0.68967  1.0000
  N   N18       1.0  0.32876  0.07462  0.18967  1.0000
  N   N19       1.0  0.82877  0.07462  0.31033  1.0000
  N   N20       1.0  0.67124  0.92538  0.81033  1.0000
  Cl  Cl1       1.0  0.65442  0.94070  0.60592  1.0000
  Cl  Cl2       1.0  0.84558  0.05930  0.10592  1.0000
  Cl  Cl3       1.0  0.34558  0.05930  0.39408  1.0000
  Cl  Cl4       1.0  0.15442  0.94070  0.89408  1.0000
  Cl  Cl5       1.0  0.82545  0.65857  0.72788  1.0000
  Cl  Cl6       1.0  0.67455  0.34143  0.22788  1.0000
  Cl  Cl7       1.0  0.17455  0.34143  0.27212  1.0000
  Cl  Cl8       1.0  0.32545  0.65857  0.77212  1.0000
