data_image0
_chemical_formula_structural       Cd2H30C26N22
_chemical_formula_sum              "Cd2 H30 C26 N22"
_cell_length_a       9.53699
_cell_length_b       9.85363
_cell_length_c       9.83831
_cell_angle_alpha    73.0354
_cell_angle_beta     68.916
_cell_angle_gamma    86.6253

_space_group_name_H-M_alt    "P 1"
_space_group_IT_number       1

loop_
  _space_group_symop_operation_xyz
  'x, y, z'

loop_
  _atom_site_type_symbol
  _atom_site_label
  _atom_site_symmetry_multiplicity
  _atom_site_fract_x
  _atom_site_fract_y
  _atom_site_fract_z
  _atom_site_occupancy
  Cd  Cd1       1.0  0.17913  0.11499  0.68455  1.0000
  Cd  Cd2       1.0  0.82087  0.88501  0.31545  1.0000
  H   H1        1.0  0.15494  0.07764  0.09912  1.0000
  H   H2        1.0  0.84506  0.92236  0.90088  1.0000
  H   H3        1.0  0.24942  0.09198  0.30031  1.0000
  H   H4        1.0  0.75058  0.90802  0.69969  1.0000
  H   H5        1.0  0.50688  0.17588  0.23967  1.0000
  H   H6        1.0  0.49312  0.82411  0.76033  1.0000
  H   H7        1.0  0.69188  0.24368  0.97214  1.0000
  H   H8        1.0  0.30811  0.75632  0.02786  1.0000
  H   H9        1.0  0.82044  0.21236  0.69025  1.0000
  H   H10       1.0  0.17956  0.78765  0.30975  1.0000
  H   H11       1.0  0.76418  0.23642  0.53072  1.0000
  H   H12       1.0  0.23583  0.76358  0.46928  1.0000
  H   H13       1.0  0.86020  0.42030  0.77024  1.0000
  H   H14       1.0  0.13980  0.57971  0.22976  1.0000
  H   H15       1.0  0.87724  0.71277  0.63156  1.0000
  H   H16       1.0  0.12276  0.28724  0.36844  1.0000
  H   H17       1.0  0.61869  0.40132  0.41953  1.0000
  H   H18       1.0  0.38131  0.59868  0.58047  1.0000
  H   H19       1.0  0.63600  0.58483  0.32699  1.0000
  H   H20       1.0  0.36400  0.41517  0.67300  1.0000
  H   H21       1.0  0.88255  0.37339  0.25871  1.0000
  H   H22       1.0  0.11745  0.62660  0.74130  1.0000
  H   H23       1.0  0.91058  0.55998  0.17809  1.0000
  H   H24       1.0  0.08943  0.44002  0.82191  1.0000
  H   H25       1.0  0.85395  0.43603  0.00865  1.0000
  H   H26       1.0  0.14605  0.56396  0.99136  1.0000
  H   H27       1.0  0.71931  0.56217  0.05820  1.0000
  H   H28       1.0  0.28069  0.43782  0.94180  1.0000
  H   H29       1.0  0.67457  0.37814  0.15166  1.0000
  H   H30       1.0  0.32543  0.62185  0.84834  1.0000
  C   C1        1.0  0.37390  0.15344  0.91984  1.0000
  C   C2        1.0  0.62610  0.84655  0.08016  1.0000
  C   C3        1.0  0.27048  0.11429  0.07014  1.0000
  C   C4        1.0  0.72952  0.88571  0.92985  1.0000
  C   C5        1.0  0.32328  0.12372  0.18147  1.0000
  C   C6        1.0  0.67672  0.87628  0.81853  1.0000
  C   C7        1.0  0.47274  0.17122  0.14675  1.0000
  C   C8        1.0  0.52726  0.82877  0.85325  1.0000
  C   C9        1.0  0.57630  0.20953  0.99907  1.0000
  C   C10       1.0  0.42370  0.79047  0.00093  1.0000
  C   C11       1.0  0.52361  0.19884  0.88683  1.0000
  C   C12       1.0  0.47639  0.80115  0.11317  1.0000
  C   C13       1.0  0.74494  0.26850  0.63322  1.0000
  C   C14       1.0  0.25506  0.73150  0.36678  1.0000
  C   C15       1.0  0.82977  0.48356  0.67561  1.0000
  C   C16       1.0  0.17023  0.51645  0.32439  1.0000
  C   C17       1.0  0.83881  0.62615  0.60478  1.0000
  C   C18       1.0  0.16119  0.37386  0.39522  1.0000
  C   C19       1.0  0.75223  0.52416  0.47844  1.0000
  C   C20       1.0  0.24777  0.47585  0.52156  1.0000
  C   C21       1.0  0.69881  0.49429  0.36483  1.0000
  C   C22       1.0  0.30119  0.50571  0.63517  1.0000
  C   C23       1.0  0.82591  0.47119  0.22461  1.0000
  C   C24       1.0  0.17410  0.52880  0.77539  1.0000
  C   C25       1.0  0.76496  0.46143  0.10407  1.0000
  C   C26       1.0  0.23504  0.53857  0.89594  1.0000
  N   N1        1.0  0.79105  0.65067  0.48261  1.0000
  N   N2        1.0  0.20895  0.34934  0.51738  1.0000
  N   N3        1.0  0.77505  0.41998  0.59508  1.0000
  N   N4        1.0  0.22494  0.58003  0.40493  1.0000
  N   N5        1.0  0.59023  0.22390  0.73233  1.0000
  N   N6        1.0  0.40977  0.77611  0.26767  1.0000
  N   N7        1.0  0.49114  0.19796  0.67275  1.0000
  N   N8        1.0  0.50887  0.80204  0.32725  1.0000
  N   N9        1.0  0.36177  0.15577  0.78351  1.0000
  N   N10       1.0  0.63824  0.84423  0.21648  1.0000
  N   N11       1.0  0.96937  0.19475  0.86588  1.0000
  N   N12       1.0  0.03063  0.80524  0.13413  1.0000
  N   N13       1.0  0.93167  0.15253  0.00085  1.0000
  N   N14       1.0  0.06833  0.84747  0.99916  1.0000
  N   N15       1.0  0.89162  0.11710  0.13516  1.0000
  N   N16       1.0  0.10838  0.88290  0.86484  1.0000
  N   N17       1.0  0.37055  0.01315  0.51989  1.0000
  N   N18       1.0  0.62945  0.98685  0.48011  1.0000
  N   N19       1.0  0.49999  1.00000  0.50000  1.0000
  N   N20       1.0  0.01049  0.06925  0.57620  1.0000
  N   N21       1.0  0.98951  0.93075  0.42380  1.0000
  N   N22       1.0  1.00000  1.00000  0.49999  1.0000
