data_image0
_chemical_formula_structural       Cd2H30C30S4N14
_chemical_formula_sum              "Cd2 H30 C30 S4 N14"
_cell_length_a       9.34382
_cell_length_b       10.2075
_cell_length_c       10.4732
_cell_angle_alpha    95.8353
_cell_angle_beta     98.4398
_cell_angle_gamma    109.815

_space_group_name_H-M_alt    "P 1"
_space_group_IT_number       1

loop_
  _space_group_symop_operation_xyz
  'x, y, z'

loop_
  _atom_site_type_symbol
  _atom_site_label
  _atom_site_symmetry_multiplicity
  _atom_site_fract_x
  _atom_site_fract_y
  _atom_site_fract_z
  _atom_site_occupancy
  Cd  Cd1       1.0  0.63369  0.30794  0.11820  1.0000
  Cd  Cd2       1.0  0.36631  0.69206  0.88180  1.0000
  H   H1        1.0  0.65446  0.62678  0.25584  1.0000
  H   H2        1.0  0.34555  0.37322  0.74416  1.0000
  H   H3        1.0  0.69802  0.72910  0.52035  1.0000
  H   H4        1.0  0.30199  0.27091  0.47965  1.0000
  H   H5        1.0  0.63781  0.56004  0.71623  1.0000
  H   H6        1.0  0.36219  0.43996  0.28377  1.0000
  H   H7        1.0  0.72587  0.43010  0.70574  1.0000
  H   H8        1.0  0.27413  0.56990  0.29426  1.0000
  H   H9        1.0  0.69986  0.82732  0.74481  1.0000
  H   H10       1.0  0.30013  0.17268  0.25519  1.0000
  H   H11       1.0  0.84667  0.08392  0.82089  1.0000
  H   H12       1.0  0.15332  0.91607  0.17911  1.0000
  H   H13       1.0  0.12794  0.17662  0.89832  1.0000
  H   H14       1.0  0.87205  0.82338  0.10169  1.0000
  H   H15       1.0  0.28049  0.01801  0.91043  1.0000
  H   H16       1.0  0.71951  0.98199  0.08957  1.0000
  H   H17       1.0  0.64868  0.19506  0.38758  1.0000
  H   H18       1.0  0.35132  0.80494  0.61242  1.0000
  H   H19       1.0  0.62694  0.23242  0.55041  1.0000
  H   H20       1.0  0.37306  0.76758  0.44959  1.0000
  H   H21       1.0  0.90816  0.32970  0.63037  1.0000
  H   H22       1.0  0.09183  0.67030  0.36963  1.0000
  H   H23       1.0  0.94462  0.33598  0.47077  1.0000
  H   H24       1.0  0.05538  0.66402  0.52923  1.0000
  H   H25       1.0  0.83935  0.07282  0.41681  1.0000
  H   H26       1.0  0.16065  0.92718  0.58319  1.0000
  H   H27       1.0  0.78356  0.05976  0.57139  1.0000
  H   H28       1.0  0.21644  0.94024  0.42861  1.0000
  H   H29       1.0  0.98261  0.12563  0.56293  1.0000
  H   H30       1.0  0.01739  0.87436  0.43707  1.0000
  C   C1        1.0  0.66948  0.57612  0.34035  1.0000
  C   C2        1.0  0.33053  0.42389  0.65965  1.0000
  C   C3        1.0  0.69025  0.62806  0.47009  1.0000
  C   C4        1.0  0.30976  0.37194  0.52991  1.0000
  C   C5        1.0  0.72889  0.53174  0.67888  1.0000
  C   C6        1.0  0.27111  0.46826  0.32112  1.0000
  C   C7        1.0  0.91300  0.78030  0.77830  1.0000
  C   C8        1.0  0.08699  0.21970  0.22170  1.0000
  C   C9        1.0  0.82550  0.86773  0.77542  1.0000
  C   C10       1.0  0.17450  0.13227  0.22458  1.0000
  C   C11       1.0  0.90822  0.01034  0.81947  1.0000
  C   C12       1.0  0.09178  0.98966  0.18053  1.0000
  C   C13       1.0  0.07049  0.06371  0.86512  1.0000
  C   C14       1.0  0.92951  0.93629  0.13488  1.0000
  C   C15       1.0  0.15643  0.97672  0.87172  1.0000
  C   C16       1.0  0.84357  0.02328  0.12829  1.0000
  C   C17       1.0  0.07471  0.83223  0.82665  1.0000
  C   C18       1.0  0.92529  0.16777  0.17336  1.0000
  C   C19       1.0  0.69141  0.40798  0.44778  1.0000
  C   C20       1.0  0.30859  0.59202  0.55222  1.0000
  C   C21       1.0  0.70025  0.27134  0.47874  1.0000
  C   C22       1.0  0.29975  0.72866  0.52126  1.0000
  C   C23       1.0  0.86535  0.27425  0.52882  1.0000
  C   C24       1.0  0.13465  0.72575  0.47118  1.0000
  C   C25       1.0  0.86809  0.12488  0.51927  1.0000
  C   C26       1.0  0.13191  0.87512  0.48073  1.0000
  C   C27       1.0  0.68295  0.60168  0.98237  1.0000
  C   C28       1.0  0.31704  0.39832  0.01763  1.0000
  C   C29       1.0  0.54371  0.03744  0.84466  1.0000
  C   C30       1.0  0.45628  0.96256  0.15534  1.0000
  S   S1        1.0  0.82060  0.54909  0.04399  1.0000
  S   S2        1.0  0.17940  0.45091  0.95602  1.0000
  S   S3        1.0  0.61633  0.20836  0.85421  1.0000
  S   S4        1.0  0.38366  0.79165  0.14579  1.0000
  N   N1        1.0  0.66933  0.43987  0.32766  1.0000
  N   N2        1.0  0.33068  0.56014  0.67234  1.0000
  N   N3        1.0  0.70455  0.52141  0.53743  1.0000
  N   N4        1.0  0.29546  0.47859  0.46257  1.0000
  N   N5        1.0  0.87693  0.63806  0.74172  1.0000
  N   N6        1.0  0.12307  0.36194  0.25828  1.0000
  N   N7        1.0  0.00455  0.60339  0.76494  1.0000
  N   N8        1.0  0.99546  0.39661  0.23506  1.0000
  N   N9        1.0  0.12264  0.71835  0.81626  1.0000
  N   N10       1.0  0.87736  0.28165  0.18374  1.0000
  N   N11       1.0  0.58750  0.64419  0.93561  1.0000
  N   N12       1.0  0.41250  0.35580  0.06440  1.0000
  N   N13       1.0  0.49257  0.91314  0.83749  1.0000
  N   N14       1.0  0.50743  0.08687  0.16250  1.0000
