data_image0
_chemical_formula_structural       Cu2H32C40S4N8O12
_chemical_formula_sum              "Cu2 H32 C40 S4 N8 O12"
_cell_length_a       10.6962
_cell_length_b       10.839
_cell_length_c       11.129
_cell_angle_alpha    89.9998
_cell_angle_beta     90
_cell_angle_gamma    102.68

_space_group_name_H-M_alt    "P 1"
_space_group_IT_number       1

loop_
  _space_group_symop_operation_xyz
  'x, y, z'

loop_
  _atom_site_type_symbol
  _atom_site_label
  _atom_site_symmetry_multiplicity
  _atom_site_fract_x
  _atom_site_fract_y
  _atom_site_fract_z
  _atom_site_occupancy
  Cu  Cu1       1.0  0.75000  0.75000  0.65195  1.0000
  Cu  Cu2       1.0  0.25000  0.25000  0.34805  1.0000
  H   H1        1.0  0.88105  0.32839  0.69901  1.0000
  H   H2        1.0  0.61895  0.17161  0.69901  1.0000
  H   H3        1.0  0.11895  0.67161  0.30098  1.0000
  H   H4        1.0  0.38105  0.82839  0.30098  1.0000
  H   H5        1.0  0.11488  0.41656  0.66569  1.0000
  H   H6        1.0  0.38512  0.08344  0.66570  1.0000
  H   H7        1.0  0.88512  0.58344  0.33430  1.0000
  H   H8        1.0  0.61488  0.91656  0.33430  1.0000
  H   H9        1.0  0.18941  0.64644  0.61293  1.0000
  H   H10       1.0  0.31059  0.85356  0.61294  1.0000
  H   H11       1.0  0.81059  0.35356  0.38707  1.0000
  H   H12       1.0  0.68941  0.14644  0.38707  1.0000
  H   H13       1.0  0.02770  0.78297  0.61060  1.0000
  H   H14       1.0  0.47231  0.71703  0.61061  1.0000
  H   H15       1.0  0.97231  0.21703  0.38940  1.0000
  H   H16       1.0  0.52769  0.28297  0.38940  1.0000
  H   H17       1.0  0.89266  0.91429  0.46211  1.0000
  H   H18       1.0  0.60733  0.58571  0.46210  1.0000
  H   H19       1.0  0.10733  0.08571  0.53789  1.0000
  H   H20       1.0  0.39267  0.41429  0.53789  1.0000
  H   H21       1.0  0.89870  0.92184  0.23947  1.0000
  H   H22       1.0  0.60129  0.57817  0.23947  1.0000
  H   H23       1.0  0.10130  0.07816  0.76052  1.0000
  H   H24       1.0  0.39871  0.42183  0.76053  1.0000
  H   H25       1.0  0.95531  0.82587  0.06836  1.0000
  H   H26       1.0  0.54469  0.67414  0.06836  1.0000
  H   H27       1.0  0.04469  0.17413  0.93164  1.0000
  H   H28       1.0  0.45530  0.32586  0.93163  1.0000
  H   H29       1.0  0.94470  0.82719  0.84353  1.0000
  H   H30       1.0  0.55531  0.67281  0.84353  1.0000
  H   H31       1.0  0.05530  0.17281  0.15647  1.0000
  H   H32       1.0  0.44470  0.32719  0.15646  1.0000
  C   C1        1.0  0.83341  0.51006  0.67150  1.0000
  C   C2        1.0  0.66659  0.98994  0.67150  1.0000
  C   C3        1.0  0.16659  0.48995  0.32850  1.0000
  C   C4        1.0  0.33341  0.01006  0.32850  1.0000
  C   C5        1.0  0.91727  0.42851  0.68046  1.0000
  C   C6        1.0  0.58273  0.07149  0.68047  1.0000
  C   C7        1.0  0.08273  0.57149  0.31953  1.0000
  C   C8        1.0  0.41727  0.92851  0.31953  1.0000
  C   C9        1.0  0.04722  0.47823  0.66159  1.0000
  C   C10       1.0  0.45278  0.02177  0.66160  1.0000
  C   C11       1.0  0.95279  0.52178  0.33840  1.0000
  C   C12       1.0  0.54722  0.97823  0.33840  1.0000
  C   C13       1.0  0.08946  0.60638  0.63453  1.0000
  C   C14       1.0  0.41054  0.89362  0.63454  1.0000
  C   C15       1.0  0.91055  0.39362  0.36547  1.0000
  C   C16       1.0  0.58946  0.10638  0.36547  1.0000
  C   C17       1.0  0.00040  0.68244  0.63155  1.0000
  C   C18       1.0  0.49960  0.81756  0.63155  1.0000
  C   C19       1.0  0.99960  0.31756  0.36845  1.0000
  C   C20       1.0  0.50040  0.18244  0.36845  1.0000
  C   C21       1.0  0.83002  0.84208  0.40881  1.0000
  C   C22       1.0  0.66997  0.65793  0.40881  1.0000
  C   C23       1.0  0.16998  0.15793  0.59118  1.0000
  C   C24       1.0  0.33003  0.34207  0.59118  1.0000
  C   C25       1.0  0.83238  0.84510  0.28412  1.0000
  C   C26       1.0  0.66761  0.65491  0.28412  1.0000
  C   C27       1.0  0.16761  0.15490  0.71588  1.0000
  C   C28       1.0  0.33239  0.34509  0.71588  1.0000
  C   C29       1.0  0.75000  0.75000  0.21908  1.0000
  C   C30       1.0  0.25000  0.25000  0.78092  1.0000
  C   C31       1.0  0.75000  0.75000  0.08679  1.0000
  C   C32       1.0  0.25000  0.24999  0.91321  1.0000
  C   C33       1.0  0.86387  0.79344  0.02221  1.0000
  C   C34       1.0  0.63613  0.70656  0.02221  1.0000
  C   C35       1.0  0.13613  0.20655  0.97779  1.0000
  C   C36       1.0  0.36387  0.29343  0.97779  1.0000
  C   C37       1.0  0.85943  0.79233  0.89755  1.0000
  C   C38       1.0  0.64057  0.70767  0.89754  1.0000
  C   C39       1.0  0.14057  0.20767  0.10245  1.0000
  C   C40       1.0  0.35943  0.29233  0.10245  1.0000
  S   S1        1.0  0.66256  0.44420  0.67509  1.0000
  S   S2        1.0  0.83744  0.05580  0.67509  1.0000
  S   S3        1.0  0.33744  0.55580  0.32492  1.0000
  S   S4        1.0  0.16256  0.94420  0.32492  1.0000
  N   N1        1.0  0.87453  0.63430  0.65060  1.0000
  N   N2        1.0  0.62548  0.86570  0.65060  1.0000
  N   N3        1.0  0.12548  0.36570  0.34939  1.0000
  N   N4        1.0  0.37452  0.13430  0.34940  1.0000
  N   N5        1.0  0.74999  0.75000  0.46982  1.0000
  N   N6        1.0  0.25000  0.25000  0.53017  1.0000
  N   N7        1.0  0.75000  0.75000  0.83624  1.0000
  N   N8        1.0  0.25000  0.25000  0.16376  1.0000
  O   O1        1.0  0.60104  0.55365  0.66673  1.0000
  O   O2        1.0  0.89896  0.94635  0.66673  1.0000
  O   O3        1.0  0.39897  0.44635  0.33326  1.0000
  O   O4        1.0  0.10104  0.05365  0.33326  1.0000
  O   O5        1.0  0.63729  0.37544  0.78846  1.0000
  O   O6        1.0  0.86272  0.12456  0.78845  1.0000
  O   O7        1.0  0.36272  0.62458  0.21157  1.0000
  O   O8        1.0  0.13728  0.87541  0.21157  1.0000
  O   O9        1.0  0.64229  0.36483  0.56730  1.0000
  O   O10       1.0  0.85771  0.13516  0.56729  1.0000
  O   O11       1.0  0.35771  0.63515  0.43273  1.0000
  O   O12       1.0  0.14230  0.86486  0.43273  1.0000
