data_image0
_chemical_formula_structural       Cd2H16C16N24
_chemical_formula_sum              "Cd2 H16 C16 N24"
_cell_length_a       6.97098
_cell_length_b       8.90189
_cell_length_c       10.225
_cell_angle_alpha    82.369
_cell_angle_beta     70.0156
_cell_angle_gamma    67.0584

_space_group_name_H-M_alt    "P 1"
_space_group_IT_number       1

loop_
  _space_group_symop_operation_xyz
  'x, y, z'

loop_
  _atom_site_type_symbol
  _atom_site_label
  _atom_site_symmetry_multiplicity
  _atom_site_fract_x
  _atom_site_fract_y
  _atom_site_fract_z
  _atom_site_occupancy
  Cd  Cd1       1.0  0.92766  0.99995  0.99993  1.0000
  Cd  Cd2       1.0  0.67734  0.49973  0.49992  1.0000
  H   H1        1.0  0.57542  0.15742  0.55843  1.0000
  H   H2        1.0  0.29295  0.84279  0.44357  1.0000
  H   H3        1.0  0.48628  0.34315  0.05654  1.0000
  H   H4        1.0  0.88496  0.65685  0.94179  1.0000
  H   H5        1.0  0.54863  0.82940  0.95159  1.0000
  H   H6        1.0  0.32885  0.17043  0.04954  1.0000
  H   H7        1.0  0.12805  0.67087  0.45050  1.0000
  H   H8        1.0  0.25019  0.32936  0.54819  1.0000
  H   H9        1.0  0.75259  0.86428  0.50927  1.0000
  H   H10       1.0  0.12626  0.13482  0.49195  1.0000
  H   H11       1.0  0.36843  0.63481  0.00814  1.0000
  H   H12       1.0  0.01213  0.36480  0.99072  1.0000
  H   H13       1.0  0.64395  0.37770  0.84487  1.0000
  H   H14       1.0  0.86782  0.62381  0.15631  1.0000
  H   H15       1.0  0.77396  0.12413  0.34345  1.0000
  H   H16       1.0  0.23830  0.87829  0.65523  1.0000
  C   C1        1.0  0.65020  0.05478  0.73881  1.0000
  C   C2        1.0  0.44352  0.94506  0.26216  1.0000
  C   C3        1.0  0.45579  0.44539  0.23784  1.0000
  C   C4        1.0  0.13980  0.55482  0.76103  1.0000
  C   C5        1.0  0.64417  0.28033  0.79073  1.0000
  C   C6        1.0  0.71660  0.72078  0.21077  1.0000
  C   C7        1.0  0.67716  0.22105  0.28910  1.0000
  C   C8        1.0  0.18457  0.78080  0.70931  1.0000
  C   C9        1.0  0.60081  0.79732  0.84281  1.0000
  C   C10       1.0  0.23905  0.20151  0.15841  1.0000
  C   C11       1.0  0.14726  0.70197  0.34166  1.0000
  C   C12       1.0  0.19373  0.29745  0.65700  1.0000
  C   C13       1.0  0.70553  0.81763  0.61399  1.0000
  C   C14       1.0  0.13610  0.18116  0.38733  1.0000
  C   C15       1.0  0.27397  0.68146  0.11278  1.0000
  C   C16       1.0  0.06983  0.31805  0.88604  1.0000
  N   N1        1.0  0.63903  0.13482  0.84723  1.0000
  N   N2        1.0  0.62153  0.86571  0.15400  1.0000
  N   N3        1.0  0.52566  0.36618  0.34586  1.0000
  N   N4        1.0  0.23625  0.63535  0.65256  1.0000
  N   N5        1.0  0.65742  0.29761  0.65682  1.0000
  N   N6        1.0  0.61333  0.70336  0.34473  1.0000
  N   N7        1.0  0.70760  0.20340  0.15527  1.0000
  N   N8        1.0  0.06461  0.79763  0.84344  1.0000
  N   N9        1.0  0.67541  0.14648  0.61701  1.0000
  N   N10       1.0  0.44004  0.85415  0.38450  1.0000
  N   N11       1.0  0.57438  0.35428  0.11555  1.0000
  N   N12       1.0  0.04342  0.64626  0.88310  1.0000
  N   N13       1.0  0.65289  0.90190  0.73438  1.0000
  N   N14       1.0  0.28847  0.09721  0.26668  1.0000
  N   N15       1.0  0.30531  0.59761  0.23339  1.0000
  N   N16       1.0  0.13768  0.40224  0.76539  1.0000
  N   N17       1.0  0.62465  0.65908  0.79176  1.0000
  N   N18       1.0  0.07310  0.33906  0.20957  1.0000
  N   N19       1.0  0.03252  0.83945  0.29052  1.0000
  N   N20       1.0  0.16645  0.15929  0.70831  1.0000
  N   N21       1.0  0.69069  0.67118  0.65027  1.0000
  N   N22       1.0  0.00994  0.32690  0.35120  1.0000
  N   N23       1.0  0.11129  0.82713  0.14892  1.0000
  N   N24       1.0  0.09126  0.17154  0.84983  1.0000
