data_image0
_chemical_formula_structural       Cu2H26C38N6O10
_chemical_formula_sum              "Cu2 H26 C38 N6 O10"
_cell_length_a       8.3807
_cell_length_b       10.1922
_cell_length_c       11.5682
_cell_angle_alpha    114.248
_cell_angle_beta     102.879
_cell_angle_gamma    98.3925

_space_group_name_H-M_alt    "P 1"
_space_group_IT_number       1

loop_
  _space_group_symop_operation_xyz
  'x, y, z'

loop_
  _atom_site_type_symbol
  _atom_site_label
  _atom_site_symmetry_multiplicity
  _atom_site_fract_x
  _atom_site_fract_y
  _atom_site_fract_z
  _atom_site_occupancy
  Cu  Cu1       1.0  0.13942  0.84985  0.43423  1.0000
  Cu  Cu2       1.0  0.86058  0.15017  0.56577  1.0000
  H   H1        1.0  0.59959  0.32547  0.81577  1.0000
  H   H2        1.0  0.40042  0.67454  0.18423  1.0000
  H   H3        1.0  0.13063  0.89408  0.19183  1.0000
  H   H4        1.0  0.86936  0.10592  0.80817  1.0000
  H   H5        1.0  0.96194  0.75773  0.94608  1.0000
  H   H6        1.0  0.03807  0.24227  0.05391  1.0000
  H   H7        1.0  0.74522  0.51791  0.86082  1.0000
  H   H8        1.0  0.25479  0.48210  0.13917  1.0000
  H   H9        1.0  0.87745  0.56912  0.26275  1.0000
  H   H10       1.0  0.12255  0.43088  0.73724  1.0000
  H   H11       1.0  0.41679  0.12969  0.63193  1.0000
  H   H12       1.0  0.58325  0.87029  0.36807  1.0000
  H   H13       1.0  0.44053  0.15731  0.01825  1.0000
  H   H14       1.0  0.55947  0.84269  0.98175  1.0000
  H   H15       1.0  0.21845  0.91214  0.89928  1.0000
  H   H16       1.0  0.78157  0.08785  0.10071  1.0000
  H   H17       1.0  0.10392  0.78775  0.64922  1.0000
  H   H18       1.0  0.89612  0.21225  0.35077  1.0000
  H   H19       1.0  0.42625  0.10098  0.32685  1.0000
  H   H20       1.0  0.57374  0.89904  0.67314  1.0000
  H   H21       1.0  0.58021  0.26095  0.24794  1.0000
  H   H22       1.0  0.41977  0.73908  0.75208  1.0000
  H   H23       1.0  0.51468  0.49884  0.27789  1.0000
  H   H24       1.0  0.48528  0.50118  0.72213  1.0000
  H   H25       1.0  0.14680  0.42333  0.46655  1.0000
  H   H26       1.0  0.85317  0.57665  0.53345  1.0000
  C   C1        1.0  0.03376  0.78862  0.14835  1.0000
  C   C2        1.0  0.96624  0.21138  0.85164  1.0000
  C   C3        1.0  0.93992  0.71273  0.01357  1.0000
  C   C4        1.0  0.06010  0.28728  0.98642  1.0000
  C   C5        1.0  0.81856  0.57841  0.96612  1.0000
  C   C6        1.0  0.18145  0.42160  0.03387  1.0000
  C   C7        1.0  0.79561  0.52246  0.05483  1.0000
  C   C8        1.0  0.20440  0.47755  0.94518  1.0000
  C   C9        1.0  0.89298  0.60692  0.18960  1.0000
  C   C10       1.0  0.10703  0.39309  0.81040  1.0000
  C   C11       1.0  0.37398  0.08588  0.69441  1.0000
  C   C12       1.0  0.62604  0.91410  0.30558  1.0000
  C   C13       1.0  0.44774  0.16237  0.83415  1.0000
  C   C14       1.0  0.55229  0.83761  0.16584  1.0000
  C   C15       1.0  0.38828  0.10078  0.91024  1.0000
  C   C16       1.0  0.61175  0.89922  0.08976  1.0000
  C   C17       1.0  0.26322  0.96553  0.84364  1.0000
  C   C18       1.0  0.73680  0.03445  0.15636  1.0000
  C   C19       1.0  0.19819  0.89530  0.70530  1.0000
  C   C20       1.0  0.80184  0.10469  0.29470  1.0000
  C   C21       1.0  0.67575  0.37672  0.01750  1.0000
  C   C22       1.0  0.32425  0.62328  0.98251  1.0000
  C   C23       1.0  0.27706  0.25155  0.40052  1.0000
  C   C24       1.0  0.72292  0.74847  0.59949  1.0000
  C   C25       1.0  0.39712  0.20484  0.33668  1.0000
  C   C26       1.0  0.60286  0.79516  0.66332  1.0000
  C   C27       1.0  0.48213  0.29331  0.29257  1.0000
  C   C28       1.0  0.51786  0.70670  0.70744  1.0000
  C   C29       1.0  0.44507  0.42745  0.30907  1.0000
  C   C30       1.0  0.55491  0.57255  0.69094  1.0000
  C   C31       1.0  0.32101  0.47324  0.36825  1.0000
  C   C32       1.0  0.67896  0.52675  0.63174  1.0000
  C   C33       1.0  0.23865  0.38564  0.41572  1.0000
  C   C34       1.0  0.76133  0.61437  0.58428  1.0000
  C   C35       1.0  0.19540  0.15849  0.45508  1.0000
  C   C36       1.0  0.80459  0.84151  0.54493  1.0000
  C   C37       1.0  0.28223  0.61662  0.38085  1.0000
  C   C38       1.0  0.71772  0.38337  0.61914  1.0000
  N   N1        1.0  0.25198  0.95695  0.63287  1.0000
  N   N2        1.0  0.74806  0.04303  0.36712  1.0000
  N   N3        1.0  0.57340  0.29674  0.88707  1.0000
  N   N4        1.0  0.42661  0.70326  0.11293  1.0000
  N   N5        1.0  0.00854  0.73693  0.23485  1.0000
  N   N6        1.0  0.99147  0.26308  0.76516  1.0000
  O   O1        1.0  0.67248  0.33433  0.10350  1.0000
  O   O2        1.0  0.32753  0.66568  0.89651  1.0000
  O   O3        1.0  0.21153  0.02398  0.40759  1.0000
  O   O4        1.0  0.78845  0.97602  0.59242  1.0000
  O   O5        1.0  0.12205  0.21418  0.53968  1.0000
  O   O6        1.0  0.87797  0.78582  0.46034  1.0000
  O   O7        1.0  0.35923  0.69103  0.33527  1.0000
  O   O8        1.0  0.64073  0.30897  0.66474  1.0000
  O   O9        1.0  0.16827  0.65623  0.43591  1.0000
  O   O10       1.0  0.83167  0.34373  0.56407  1.0000
