data_image0
_chemical_formula_structural       Zn4H32C56S16N24
_chemical_formula_sum              "Zn4 H32 C56 S16 N24"
_cell_length_a       10.8992
_cell_length_b       12.5568
_cell_length_c       13.7764
_cell_angle_alpha    103.788
_cell_angle_beta     90
_cell_angle_gamma    90

_space_group_name_H-M_alt    "P 1"
_space_group_IT_number       1

loop_
  _space_group_symop_operation_xyz
  'x, y, z'

loop_
  _atom_site_type_symbol
  _atom_site_label
  _atom_site_symmetry_multiplicity
  _atom_site_fract_x
  _atom_site_fract_y
  _atom_site_fract_z
  _atom_site_occupancy
  Zn  Zn1       1.0  0.99041  0.45558  0.17991  1.0000
  Zn  Zn2       1.0  0.49041  0.04442  0.32010  1.0000
  Zn  Zn3       1.0  0.00959  0.54441  0.82009  1.0000
  Zn  Zn4       1.0  0.50959  0.95558  0.67990  1.0000
  H   H1        1.0  0.67083  0.25789  0.96192  1.0000
  H   H2        1.0  0.17083  0.24212  0.53807  1.0000
  H   H3        1.0  0.32916  0.74211  0.03807  1.0000
  H   H4        1.0  0.82917  0.75787  0.46194  1.0000
  H   H5        1.0  0.53178  0.17095  0.82439  1.0000
  H   H6        1.0  0.03179  0.32906  0.67561  1.0000
  H   H7        1.0  0.46821  0.82905  0.17560  1.0000
  H   H8        1.0  0.96821  0.67094  0.32441  1.0000
  H   H9        1.0  0.80447  0.93415  0.96497  1.0000
  H   H10       1.0  0.30447  0.56586  0.53503  1.0000
  H   H11       1.0  0.19553  0.06586  0.03503  1.0000
  H   H12       1.0  0.69553  0.43413  0.46497  1.0000
  H   H13       1.0  0.65991  0.85882  0.82594  1.0000
  H   H14       1.0  0.15991  0.64120  0.67406  1.0000
  H   H15       1.0  0.34010  0.14118  0.17406  1.0000
  H   H16       1.0  0.84009  0.35880  0.32594  1.0000
  H   H17       1.0  0.36860  0.69493  0.24213  1.0000
  H   H18       1.0  0.86860  0.80508  0.25788  1.0000
  H   H19       1.0  0.63140  0.30508  0.75787  1.0000
  H   H20       1.0  0.13140  0.19492  0.74212  1.0000
  H   H21       1.0  0.15130  0.64532  0.25221  1.0000
  H   H22       1.0  0.65131  0.85469  0.24780  1.0000
  H   H23       1.0  0.84870  0.35469  0.74778  1.0000
  H   H24       1.0  0.34869  0.14532  0.75220  1.0000
  H   H25       1.0  0.21591  0.32164  0.10212  1.0000
  H   H26       1.0  0.71591  0.17836  0.39789  1.0000
  H   H27       1.0  0.78409  0.67836  0.89788  1.0000
  H   H28       1.0  0.28408  0.82164  0.60212  1.0000
  H   H29       1.0  0.43680  0.35958  0.07967  1.0000
  H   H30       1.0  0.93680  0.14042  0.42033  1.0000
  H   H31       1.0  0.56320  0.64042  0.92033  1.0000
  H   H32       1.0  0.06319  0.85958  0.57967  1.0000
  C   C1        1.0  0.99177  0.21952  0.18277  1.0000
  C   C2        1.0  0.49178  0.28048  0.31723  1.0000
  C   C3        1.0  0.00823  0.78047  0.81723  1.0000
  C   C4        1.0  0.50823  0.71952  0.68278  1.0000
  C   C5        1.0  0.84003  0.15631  0.04915  1.0000
  C   C6        1.0  0.34003  0.34370  0.45085  1.0000
  C   C7        1.0  0.15997  0.84370  0.95085  1.0000
  C   C8        1.0  0.65997  0.65629  0.54915  1.0000
  C   C9        1.0  0.75199  0.10357  0.97366  1.0000
  C   C10       1.0  0.25199  0.39644  0.52633  1.0000
  C   C11       1.0  0.24801  0.89643  0.02633  1.0000
  C   C12       1.0  0.74800  0.60355  0.47367  1.0000
  C   C13       1.0  0.67103  0.16925  0.93368  1.0000
  C   C14       1.0  0.17102  0.33076  0.56632  1.0000
  C   C15       1.0  0.32898  0.83075  0.06632  1.0000
  C   C16       1.0  0.82897  0.66924  0.43369  1.0000
  C   C17       1.0  0.59345  0.12034  0.85670  1.0000
  C   C18       1.0  0.09346  0.37967  0.64329  1.0000
  C   C19       1.0  0.40655  0.87965  0.14329  1.0000
  C   C20       1.0  0.90655  0.62033  0.35672  1.0000
  C   C21       1.0  0.74510  0.98948  0.93634  1.0000
  C   C22       1.0  0.24510  0.51053  0.56366  1.0000
  C   C23       1.0  0.25490  0.01052  0.06366  1.0000
  C   C24       1.0  0.75490  0.48947  0.43634  1.0000
  C   C25       1.0  0.66461  0.94671  0.85858  1.0000
  C   C26       1.0  0.16461  0.55330  0.64142  1.0000
  C   C27       1.0  0.33539  0.05329  0.14142  1.0000
  C   C28       1.0  0.83538  0.44669  0.35858  1.0000
  C   C29       1.0  0.76417  0.58822  0.11755  1.0000
  C   C30       1.0  0.26418  0.91178  0.38245  1.0000
  C   C31       1.0  0.23583  0.41179  0.88245  1.0000
  C   C32       1.0  0.73582  0.08821  0.61755  1.0000
  C   C33       1.0  0.54800  0.56307  0.14327  1.0000
  C   C34       1.0  0.04801  0.93693  0.35674  1.0000
  C   C35       1.0  0.45200  0.43693  0.85673  1.0000
  C   C36       1.0  0.95199  0.06307  0.64326  1.0000
  C   C37       1.0  0.42158  0.53204  0.15678  1.0000
  C   C38       1.0  0.92158  0.96796  0.34323  1.0000
  C   C39       1.0  0.57842  0.46796  0.84322  1.0000
  C   C40       1.0  0.07842  0.03204  0.65677  1.0000
  C   C41       1.0  0.33868  0.61192  0.20744  1.0000
  C   C42       1.0  0.83868  0.88808  0.29257  1.0000
  C   C43       1.0  0.66132  0.38808  0.79255  1.0000
  C   C44       1.0  0.16132  0.11192  0.70743  1.0000
  C   C45       1.0  0.21691  0.58377  0.21482  1.0000
  C   C46       1.0  0.71691  0.91624  0.28519  1.0000
  C   C47       1.0  0.78310  0.41624  0.78518  1.0000
  C   C48       1.0  0.28309  0.08377  0.71481  1.0000
  C   C49       1.0  0.25376  0.40334  0.13097  1.0000
  C   C50       1.0  0.75376  0.09666  0.36904  1.0000
  C   C51       1.0  0.74624  0.59666  0.86903  1.0000
  C   C52       1.0  0.24624  0.90334  0.63096  1.0000
  C   C53       1.0  0.37691  0.42513  0.11908  1.0000
  C   C54       1.0  0.87691  0.07487  0.38092  1.0000
  C   C55       1.0  0.62309  0.57487  0.88091  1.0000
  C   C56       1.0  0.12308  0.92513  0.61908  1.0000
  S   S1        1.0  0.92482  0.09203  0.12611  1.0000
  S   S2        1.0  0.42483  0.40797  0.37388  1.0000
  S   S3        1.0  0.07517  0.90797  0.87388  1.0000
  S   S4        1.0  0.57516  0.59203  0.62612  1.0000
  S   S5        1.0  0.09243  0.24334  0.27648  1.0000
  S   S6        1.0  0.59243  0.25666  0.22352  1.0000
  S   S7        1.0  0.90757  0.75666  0.72351  1.0000
  S   S8        1.0  0.40757  0.74334  0.77649  1.0000
  S   S9        1.0  0.67252  0.47466  0.12054  1.0000
  S   S10       1.0  0.17252  0.02534  0.37947  1.0000
  S   S11       1.0  0.32748  0.52535  0.87946  1.0000
  S   S12       1.0  0.82748  0.97466  0.62054  1.0000
  S   S13       1.0  0.91914  0.58266  0.09499  1.0000
  S   S14       1.0  0.41914  0.91733  0.40501  1.0000
  S   S15       1.0  0.08086  0.41734  0.90501  1.0000
  S   S16       1.0  0.58086  0.08266  0.59499  1.0000
  N   N1        1.0  0.94585  0.29683  0.13765  1.0000
  N   N2        1.0  0.44585  0.20317  0.36235  1.0000
  N   N3        1.0  0.05415  0.70316  0.86235  1.0000
  N   N4        1.0  0.55415  0.79683  0.63765  1.0000
  N   N5        1.0  0.86255  0.26198  0.06535  1.0000
  N   N6        1.0  0.36255  0.23803  0.43465  1.0000
  N   N7        1.0  0.13745  0.73802  0.93465  1.0000
  N   N8        1.0  0.63745  0.76197  0.56535  1.0000
  N   N9        1.0  0.59116  0.01073  0.81778  1.0000
  N   N10       1.0  0.09116  0.48928  0.68222  1.0000
  N   N11       1.0  0.40884  0.98927  0.18222  1.0000
  N   N12       1.0  0.90884  0.51072  0.31779  1.0000
  N   N13       1.0  0.69899  0.68082  0.13215  1.0000
  N   N14       1.0  0.19899  0.81918  0.36785  1.0000
  N   N15       1.0  0.30101  0.31918  0.86785  1.0000
  N   N16       1.0  0.80100  0.18082  0.63215  1.0000
  N   N17       1.0  0.57864  0.66600  0.14662  1.0000
  N   N18       1.0  0.07864  0.83400  0.35339  1.0000
  N   N19       1.0  0.42136  0.33400  0.85338  1.0000
  N   N20       1.0  0.92135  0.16600  0.64661  1.0000
  N   N21       1.0  0.17409  0.48135  0.17699  1.0000
  N   N22       1.0  0.67409  0.01865  0.32302  1.0000
  N   N23       1.0  0.82591  0.51865  0.82301  1.0000
  N   N24       1.0  0.32590  0.98135  0.67698  1.0000
