data_image0
_chemical_formula_structural       Cd2H52C64N12O10
_chemical_formula_sum              "Cd2 H52 C64 N12 O10"
_cell_length_a       9.47453
_cell_length_b       12.209
_cell_length_c       13.08
_cell_angle_alpha    79.6346
_cell_angle_beta     88.3649
_cell_angle_gamma    83.2279

_space_group_name_H-M_alt    "P 1"
_space_group_IT_number       1

loop_
  _space_group_symop_operation_xyz
  'x, y, z'

loop_
  _atom_site_type_symbol
  _atom_site_label
  _atom_site_symmetry_multiplicity
  _atom_site_fract_x
  _atom_site_fract_y
  _atom_site_fract_z
  _atom_site_occupancy
  Cd  Cd1       1.0  0.25349  0.08970  0.10733  1.0000
  Cd  Cd2       1.0  0.74652  0.91030  0.89267  1.0000
  H   H1        1.0  0.00074  0.10922  0.92385  1.0000
  H   H2        1.0  0.99927  0.89078  0.07615  1.0000
  H   H3        1.0  0.26754  0.35503  0.95223  1.0000
  H   H4        1.0  0.73245  0.64497  0.04778  1.0000
  H   H5        1.0  0.06634  0.44382  0.79851  1.0000
  H   H6        1.0  0.93366  0.55619  0.20149  1.0000
  H   H7        1.0  0.80015  0.35489  0.79039  1.0000
  H   H8        1.0  0.19985  0.64511  0.20961  1.0000
  H   H9        1.0  0.82724  0.20836  0.80054  1.0000
  H   H10       1.0  0.17276  0.79164  0.19947  1.0000
  H   H11       1.0  0.11550  0.19220  0.68892  1.0000
  H   H12       1.0  0.88451  0.80779  0.31109  1.0000
  H   H13       1.0  0.18144  0.20765  0.50230  1.0000
  H   H14       1.0  0.81857  0.79235  0.49771  1.0000
  H   H15       1.0  0.01550  0.31859  0.36711  1.0000
  H   H16       1.0  0.98452  0.68141  0.63289  1.0000
  H   H17       1.0  0.79243  0.42210  0.42178  1.0000
  H   H18       1.0  0.20758  0.57788  0.57822  1.0000
  H   H19       1.0  0.80154  0.55412  0.66624  1.0000
  H   H20       1.0  0.19848  0.44587  0.33377  1.0000
  H   H21       1.0  0.58387  0.65484  0.73289  1.0000
  H   H22       1.0  0.41614  0.34516  0.26710  1.0000
  H   H23       1.0  0.34935  0.58636  0.71809  1.0000
  H   H24       1.0  0.65066  0.41364  0.28191  1.0000
  H   H25       1.0  0.33416  0.41905  0.63643  1.0000
  H   H26       1.0  0.66584  0.58095  0.36358  1.0000
  H   H27       1.0  0.44891  0.29169  0.52176  1.0000
  H   H28       1.0  0.55109  0.70830  0.47825  1.0000
  H   H29       1.0  0.63588  0.25985  0.52008  1.0000
  H   H30       1.0  0.36412  0.74016  0.47992  1.0000
  H   H31       1.0  0.32948  0.23626  0.71760  1.0000
  H   H32       1.0  0.67051  0.76373  0.28238  1.0000
  H   H33       1.0  0.41213  0.05324  0.87104  1.0000
  H   H34       1.0  0.58784  0.94674  0.12895  1.0000
  H   H35       1.0  0.74487  0.09494  0.65174  1.0000
  H   H36       1.0  0.25513  0.90506  0.34826  1.0000
  H   H37       1.0  0.52891  0.40668  0.94637  1.0000
  H   H38       1.0  0.47109  0.59332  0.05362  1.0000
  H   H39       1.0  0.74690  0.50639  0.92488  1.0000
  H   H40       1.0  0.25310  0.49361  0.07511  1.0000
  H   H41       1.0  0.94920  0.43422  0.04944  1.0000
  H   H42       1.0  0.05079  0.56579  0.95056  1.0000
  H   H43       1.0  0.49680  0.09336  0.42933  1.0000
  H   H44       1.0  0.50320  0.90664  0.57067  1.0000
  H   H45       1.0  0.71723  0.97966  0.51153  1.0000
  H   H46       1.0  0.28276  0.02033  0.48847  1.0000
  H   H47       1.0  0.94483  0.98271  0.40772  1.0000
  H   H48       1.0  0.05516  0.01729  0.59228  1.0000
  H   H49       1.0  0.17901  0.93840  0.96118  1.0000
  H   H50       1.0  0.82099  0.06161  0.03882  1.0000
  H   H51       1.0  0.34154  0.90527  0.99505  1.0000
  H   H52       1.0  0.65845  0.09473  0.00495  1.0000
  C   C1        1.0  0.04833  0.18694  0.91266  1.0000
  C   C2        1.0  0.95167  0.81306  0.08735  1.0000
  C   C3        1.0  0.18378  0.31670  0.92250  1.0000
  C   C4        1.0  0.81622  0.68331  0.07750  1.0000
  C   C5        1.0  0.08485  0.36173  0.84705  1.0000
  C   C6        1.0  0.91514  0.63827  0.15295  1.0000
  C   C7        1.0  0.87782  0.28554  0.77532  1.0000
  C   C8        1.0  0.12218  0.71446  0.22469  1.0000
  C   C9        1.0  0.91837  0.29998  0.66131  1.0000
  C   C10       1.0  0.08163  0.70001  0.33869  1.0000
  C   C11       1.0  0.04549  0.24409  0.62997  1.0000
  C   C12       1.0  0.95452  0.75591  0.37004  1.0000
  C   C13       1.0  0.08226  0.25213  0.52512  1.0000
  C   C14       1.0  0.91775  0.74787  0.47488  1.0000
  C   C15       1.0  0.99025  0.31524  0.44946  1.0000
  C   C16       1.0  0.00975  0.68476  0.55054  1.0000
  C   C17       1.0  0.86424  0.37199  0.48008  1.0000
  C   C18       1.0  0.13576  0.62800  0.51993  1.0000
  C   C19       1.0  0.82673  0.36595  0.58541  1.0000
  C   C20       1.0  0.17327  0.63405  0.41460  1.0000
  C   C21       1.0  0.69201  0.42782  0.61701  1.0000
  C   C22       1.0  0.30800  0.57218  0.38299  1.0000
  C   C23       1.0  0.69838  0.52432  0.66059  1.0000
  C   C24       1.0  0.30163  0.47567  0.33941  1.0000
  C   C25       1.0  0.57677  0.58130  0.69750  1.0000
  C   C26       1.0  0.42324  0.41869  0.30250  1.0000
  C   C27       1.0  0.44521  0.54245  0.68947  1.0000
  C   C28       1.0  0.55480  0.45755  0.31053  1.0000
  C   C29       1.0  0.43710  0.44839  0.64436  1.0000
  C   C30       1.0  0.56290  0.55161  0.35564  1.0000
  C   C31       1.0  0.55908  0.38965  0.60862  1.0000
  C   C32       1.0  0.44092  0.61035  0.39139  1.0000
  C   C33       1.0  0.54518  0.28256  0.56884  1.0000
  C   C34       1.0  0.45481  0.71744  0.43116  1.0000
  C   C35       1.0  0.42578  0.17836  0.72630  1.0000
  C   C36       1.0  0.57421  0.82163  0.27369  1.0000
  C   C37       1.0  0.46861  0.08842  0.80217  1.0000
  C   C38       1.0  0.53137  0.91157  0.19782  1.0000
  C   C39       1.0  0.64323  0.10657  0.69094  1.0000
  C   C40       1.0  0.35678  0.89343  0.30906  1.0000
  C   C41       1.0  0.48079  0.22651  0.08924  1.0000
  C   C42       1.0  0.51921  0.77349  0.91076  1.0000
  C   C43       1.0  0.60792  0.29068  0.08274  1.0000
  C   C44       1.0  0.39208  0.70932  0.91726  1.0000
  C   C45       1.0  0.61696  0.38052  0.00057  1.0000
  C   C46       1.0  0.38304  0.61948  0.99942  1.0000
  C   C47       1.0  0.73908  0.43495  0.98750  1.0000
  C   C48       1.0  0.26092  0.56505  0.01250  1.0000
  C   C49       1.0  0.85008  0.39597  0.05756  1.0000
  C   C50       1.0  0.14991  0.60404  0.94244  1.0000
  C   C51       1.0  0.72450  0.25933  0.15065  1.0000
  C   C52       1.0  0.27550  0.74067  0.84935  1.0000
  C   C53       1.0  0.72413  0.16982  0.24434  1.0000
  C   C54       1.0  0.27587  0.83019  0.75566  1.0000
  C   C55       1.0  0.59982  0.09571  0.38966  1.0000
  C   C56       1.0  0.40018  0.90429  0.61033  1.0000
  C   C57       1.0  0.72128  0.03116  0.43441  1.0000
  C   C58       1.0  0.27871  0.96884  0.56558  1.0000
  C   C59       1.0  0.84781  0.03372  0.37739  1.0000
  C   C60       1.0  0.15219  0.96629  0.62261  1.0000
  C   C61       1.0  0.84983  0.10007  0.27868  1.0000
  C   C62       1.0  0.15016  0.89993  0.72132  1.0000
  C   C63       1.0  0.97948  0.08868  0.21082  1.0000
  C   C64       1.0  0.02052  0.91134  0.78918  1.0000
  N   N1        1.0  0.15958  0.20794  0.96270  1.0000
  N   N2        1.0  0.84042  0.79206  0.03731  1.0000
  N   N3        1.0  0.99956  0.27815  0.84239  1.0000
  N   N4        1.0  0.00044  0.72185  0.15761  1.0000
  N   N5        1.0  0.53708  0.18888  0.65581  1.0000
  N   N6        1.0  0.46292  0.81111  0.34418  1.0000
  N   N7        1.0  0.60417  0.04425  0.77910  1.0000
  N   N8        1.0  0.39582  0.95574  0.22090  1.0000
  N   N9        1.0  0.84304  0.31154  0.13754  1.0000
  N   N10       1.0  0.15696  0.68846  0.86246  1.0000
  N   N11       1.0  0.60162  0.16538  0.29826  1.0000
  N   N12       1.0  0.39837  0.83463  0.70173  1.0000
  O   O1        1.0  0.49873  0.13604  0.05134  1.0000
  O   O2        1.0  0.50126  0.86396  0.94867  1.0000
  O   O3        1.0  0.36429  0.26487  0.12539  1.0000
  O   O4        1.0  0.63571  0.73513  0.87462  1.0000
  O   O5        1.0  0.96349  0.06360  0.12212  1.0000
  O   O6        1.0  0.03649  0.93643  0.87787  1.0000
  O   O7        1.0  0.09940  0.09778  0.24838  1.0000
  O   O8        1.0  0.90061  0.90223  0.75162  1.0000
  O   O9        1.0  0.24574  0.93547  0.01920  1.0000
  O   O10       1.0  0.75425  0.06453  0.98080  1.0000
