data_image0
_chemical_formula_structural       Hg4H36C46S6N18O4
_chemical_formula_sum              "Hg4 H36 C46 S6 N18 O4"
_cell_length_a       9.03013
_cell_length_b       11.9371
_cell_length_c       14.4833
_cell_angle_alpha    85.5725
_cell_angle_beta     74.7379
_cell_angle_gamma    87.545

_space_group_name_H-M_alt    "P 1"
_space_group_IT_number       1

loop_
  _space_group_symop_operation_xyz
  'x, y, z'

loop_
  _atom_site_type_symbol
  _atom_site_label
  _atom_site_symmetry_multiplicity
  _atom_site_fract_x
  _atom_site_fract_y
  _atom_site_fract_z
  _atom_site_occupancy
  Hg  Hg1       1.0  0.65187  0.47910  0.85670  1.0000
  Hg  Hg2       1.0  0.34813  0.52091  0.14330  1.0000
  Hg  Hg3       1.0  0.88128  0.14526  0.96019  1.0000
  Hg  Hg4       1.0  0.11871  0.85475  0.03981  1.0000
  H   H1        1.0  0.98597  0.59361  0.82694  1.0000
  H   H2        1.0  0.01403  0.40639  0.17306  1.0000
  H   H3        1.0  0.22286  0.64303  0.69604  1.0000
  H   H4        1.0  0.77714  0.35697  0.30396  1.0000
  H   H5        1.0  0.09016  0.40192  0.52678  1.0000
  H   H6        1.0  0.90984  0.59808  0.47323  1.0000
  H   H7        1.0  0.85623  0.36514  0.66250  1.0000
  H   H8        1.0  0.14378  0.63486  0.33749  1.0000
  H   H9        1.0  0.31814  0.50713  0.45442  1.0000
  H   H10       1.0  0.68186  0.49287  0.54558  1.0000
  H   H11       1.0  0.58561  0.78040  0.48922  1.0000
  H   H12       1.0  0.41439  0.21960  0.51078  1.0000
  H   H13       1.0  0.03231  0.91715  0.25010  1.0000
  H   H14       1.0  0.96768  0.08285  0.74990  1.0000
  H   H15       1.0  0.82538  0.87792  0.40219  1.0000
  H   H16       1.0  0.17462  0.12208  0.59781  1.0000
  H   H17       1.0  0.63762  0.64377  0.25220  1.0000
  H   H18       1.0  0.36238  0.35623  0.74780  1.0000
  H   H19       1.0  0.85222  0.69222  0.10587  1.0000
  H   H20       1.0  0.14778  0.30778  0.89413  1.0000
  H   H21       1.0  0.88236  0.20172  0.16224  1.0000
  H   H22       1.0  0.11764  0.79828  0.83776  1.0000
  H   H23       1.0  0.74066  0.14638  0.33414  1.0000
  H   H24       1.0  0.25935  0.85362  0.66586  1.0000
  H   H25       1.0  0.40673  0.99070  0.22138  1.0000
  H   H26       1.0  0.59327  0.00930  0.77862  1.0000
  H   H27       1.0  0.56256  0.04851  0.05737  1.0000
  H   H28       1.0  0.43744  0.95149  0.94263  1.0000
  H   H29       1.0  0.37365  0.97579  0.39630  1.0000
  H   H30       1.0  0.62635  0.02421  0.60370  1.0000
  H   H31       1.0  0.15449  0.25871  0.08754  1.0000
  H   H32       1.0  0.84551  0.74130  0.91246  1.0000
  H   H33       1.0  0.34764  0.21286  0.08294  1.0000
  H   H34       1.0  0.65236  0.78714  0.91706  1.0000
  H   H35       1.0  0.20448  0.19491  0.19199  1.0000
  H   H36       1.0  0.79552  0.80509  0.80801  1.0000
  C   C1        1.0  0.65780  0.22754  0.78304  1.0000
  C   C2        1.0  0.34220  0.77246  0.21696  1.0000
  C   C3        1.0  0.83553  0.42513  0.01943  1.0000
  C   C4        1.0  0.16448  0.57487  0.98057  1.0000
  C   C5        1.0  0.65738  0.66367  0.67865  1.0000
  C   C6        1.0  0.34262  0.33632  0.32134  1.0000
  C   C7        1.0  0.01200  0.55514  0.75832  1.0000
  C   C8        1.0  0.98800  0.44486  0.24168  1.0000
  C   C9        1.0  0.14273  0.58243  0.68599  1.0000
  C   C10       1.0  0.85727  0.41756  0.31401  1.0000
  C   C11       1.0  0.17120  0.52986  0.59924  1.0000
  C   C12       1.0  0.82881  0.47014  0.40076  1.0000
  C   C13       1.0  0.06875  0.44809  0.59139  1.0000
  C   C14       1.0  0.93125  0.55190  0.40861  1.0000
  C   C15       1.0  0.93935  0.42685  0.66680  1.0000
  C   C16       1.0  0.06065  0.57314  0.33320  1.0000
  C   C17       1.0  0.30012  0.55739  0.51707  1.0000
  C   C18       1.0  0.69988  0.44261  0.48293  1.0000
  C   C19       1.0  0.59367  0.73199  0.42672  1.0000
  C   C20       1.0  0.40633  0.26801  0.57328  1.0000
  C   C21       1.0  0.94156  0.85830  0.25423  1.0000
  C   C22       1.0  0.05844  0.14170  0.74578  1.0000
  C   C23       1.0  0.82693  0.83546  0.33797  1.0000
  C   C24       1.0  0.17306  0.16454  0.66203  1.0000
  C   C25       1.0  0.71453  0.75720  0.33912  1.0000
  C   C26       1.0  0.28546  0.24280  0.66088  1.0000
  C   C27       1.0  0.72289  0.70469  0.25413  1.0000
  C   C28       1.0  0.27710  0.29531  0.74588  1.0000
  C   C29       1.0  0.84019  0.73127  0.17316  1.0000
  C   C30       1.0  0.15980  0.26873  0.82685  1.0000
  C   C31       1.0  0.77755  0.15393  0.18057  1.0000
  C   C32       1.0  0.22245  0.84607  0.81943  1.0000
  C   C33       1.0  0.69936  0.12325  0.27417  1.0000
  C   C34       1.0  0.30064  0.87675  0.72583  1.0000
  C   C35       1.0  0.56517  0.06062  0.29101  1.0000
  C   C36       1.0  0.43483  0.93939  0.70899  1.0000
  C   C37       1.0  0.51172  0.03641  0.21261  1.0000
  C   C38       1.0  0.48828  0.96359  0.78739  1.0000
  C   C39       1.0  0.59717  0.06891  0.12056  1.0000
  C   C40       1.0  0.40283  0.93110  0.87944  1.0000
  C   C41       1.0  0.48349  0.01736  0.38669  1.0000
  C   C42       1.0  0.51650  0.98265  0.61331  1.0000
  C   C43       1.0  0.19326  0.07846  0.08841  1.0000
  C   C44       1.0  0.80674  0.92154  0.91159  1.0000
  C   C45       1.0  0.22599  0.19402  0.11367  1.0000
  C   C46       1.0  0.77401  0.80599  0.88633  1.0000
  S   S1        1.0  0.59780  0.26922  0.89383  1.0000
  S   S2        1.0  0.40220  0.73078  0.10617  1.0000
  S   S3        1.0  0.71702  0.53250  0.01348  1.0000
  S   S4        1.0  0.28299  0.46749  0.98652  1.0000
  S   S5        1.0  0.51366  0.62020  0.77032  1.0000
  S   S6        1.0  0.48634  0.37979  0.22968  1.0000
  N   N1        1.0  0.70040  0.19499  0.70536  1.0000
  N   N2        1.0  0.29959  0.80502  0.29464  1.0000
  N   N3        1.0  0.92171  0.34904  0.02502  1.0000
  N   N4        1.0  0.07831  0.65095  0.97498  1.0000
  N   N5        1.0  0.75649  0.69614  0.61233  1.0000
  N   N6        1.0  0.24351  0.30387  0.38767  1.0000
  N   N7        1.0  0.91043  0.48027  0.74845  1.0000
  N   N8        1.0  0.08957  0.51973  0.25155  1.0000
  N   N9        1.0  0.38897  0.64013  0.51615  1.0000
  N   N10       1.0  0.61103  0.35987  0.48385  1.0000
  N   N11       1.0  0.49918  0.65262  0.42926  1.0000
  N   N12       1.0  0.50082  0.34738  0.57074  1.0000
  N   N13       1.0  0.94733  0.80686  0.17362  1.0000
  N   N14       1.0  0.05267  0.19314  0.82638  1.0000
  N   N15       1.0  0.72816  0.12497  0.10561  1.0000
  N   N16       1.0  0.27184  0.87504  0.89439  1.0000
  N   N17       1.0  0.54507  0.02379  0.45734  1.0000
  N   N18       1.0  0.45493  0.97621  0.54266  1.0000
  O   O1        1.0  0.28002  0.99599  0.10259  1.0000
  O   O2        1.0  0.71999  0.00401  0.89741  1.0000
  O   O3        1.0  0.07733  0.06665  0.05511  1.0000
  O   O4        1.0  0.92267  0.93335  0.94490  1.0000
