data_image0
_chemical_formula_structural       Ni2H48C60N6O16
_chemical_formula_sum              "Ni2 H48 C60 N6 O16"
_cell_length_a       9.41286
_cell_length_b       9.88882
_cell_length_c       16.3942
_cell_angle_alpha    72.8432
_cell_angle_beta     87.4003
_cell_angle_gamma    71.3161

_space_group_name_H-M_alt    "P 1"
_space_group_IT_number       1

loop_
  _space_group_symop_operation_xyz
  'x, y, z'

loop_
  _atom_site_type_symbol
  _atom_site_label
  _atom_site_symmetry_multiplicity
  _atom_site_fract_x
  _atom_site_fract_y
  _atom_site_fract_z
  _atom_site_occupancy
  Ni  Ni1       1.0  0.36520  0.31865  0.32098  1.0000
  Ni  Ni2       1.0  0.63481  0.68135  0.67902  1.0000
  H   H1        1.0  0.35415  0.83694  0.89011  1.0000
  H   H2        1.0  0.64584  0.16306  0.10989  1.0000
  H   H3        1.0  0.90837  0.63453  0.45180  1.0000
  H   H4        1.0  0.09162  0.36547  0.54820  1.0000
  H   H5        1.0  0.67712  0.85427  0.40640  1.0000
  H   H6        1.0  0.32287  0.14573  0.59360  1.0000
  H   H7        1.0  0.90461  0.05813  0.19594  1.0000
  H   H8        1.0  0.09539  0.94186  0.80406  1.0000
  H   H9        1.0  0.32656  0.80533  0.32577  1.0000
  H   H10       1.0  0.67344  0.19468  0.67423  1.0000
  H   H11       1.0  0.54332  0.79871  0.23286  1.0000
  H   H12       1.0  0.45667  0.20130  0.76714  1.0000
  H   H13       1.0  0.51213  0.81924  0.07911  1.0000
  H   H14       1.0  0.48787  0.18076  0.92089  1.0000
  H   H15       1.0  0.04320  0.87277  0.10828  1.0000
  H   H16       1.0  0.95680  0.12723  0.89172  1.0000
  H   H17       1.0  0.18424  0.63963  0.90404  1.0000
  H   H18       1.0  0.81577  0.36037  0.09596  1.0000
  H   H19       1.0  0.15197  0.68067  0.75023  1.0000
  H   H20       1.0  0.84803  0.31933  0.24977  1.0000
  H   H21       1.0  0.16984  0.24329  0.78540  1.0000
  H   H22       1.0  0.83016  0.75671  0.21460  1.0000
  H   H23       1.0  0.19085  0.18431  0.94308  1.0000
  H   H24       1.0  0.80915  0.81569  0.05692  1.0000
  H   H25       1.0  0.12889  0.61350  0.02694  1.0000
  H   H26       1.0  0.87111  0.38650  0.97306  1.0000
  H   H27       1.0  0.19035  0.56354  0.18026  1.0000
  H   H28       1.0  0.80966  0.43646  0.81974  1.0000
  H   H29       1.0  0.34677  0.10650  0.22028  1.0000
  H   H30       1.0  0.65323  0.89349  0.77973  1.0000
  H   H31       1.0  0.29882  0.13433  0.06849  1.0000
  H   H32       1.0  0.70118  0.86567  0.93152  1.0000
  H   H33       1.0  0.04334  0.37988  0.34128  1.0000
  H   H34       1.0  0.95665  0.62012  0.65872  1.0000
  H   H35       1.0  0.87214  0.25208  0.41848  1.0000
  H   H36       1.0  0.12785  0.74793  0.58152  1.0000
  H   H37       1.0  0.26182  0.86108  0.51876  1.0000
  H   H38       1.0  0.73816  0.13892  0.48124  1.0000
  H   H39       1.0  0.41740  0.00786  0.43862  1.0000
  H   H40       1.0  0.58259  0.99214  0.56138  1.0000
  H   H41       1.0  0.54280  0.35585  0.43198  1.0000
  H   H42       1.0  0.45720  0.64415  0.56801  1.0000
  H   H43       1.0  0.37109  0.40088  0.45323  1.0000
  H   H44       1.0  0.62891  0.59912  0.54677  1.0000
  H   H45       1.0  0.55507  0.36662  0.21595  1.0000
  H   H46       1.0  0.44493  0.63338  0.78405  1.0000
  H   H47       1.0  0.55336  0.49135  0.26082  1.0000
  H   H48       1.0  0.44665  0.50865  0.73917  1.0000
  C   C1        1.0  0.03871  0.72452  0.35140  1.0000
  C   C2        1.0  0.96129  0.27548  0.64860  1.0000
  C   C3        1.0  0.90841  0.72922  0.39696  1.0000
  C   C4        1.0  0.09159  0.27078  0.60304  1.0000
  C   C5        1.0  0.77829  0.85120  0.37101  1.0000
  C   C6        1.0  0.22171  0.14879  0.62899  1.0000
  C   C7        1.0  0.77734  0.97129  0.29911  1.0000
  C   C8        1.0  0.22266  0.02871  0.70089  1.0000
  C   C9        1.0  0.90665  0.96570  0.25267  1.0000
  C   C10       1.0  0.09335  0.03430  0.74733  1.0000
  C   C11       1.0  0.03782  0.84290  0.27753  1.0000
  C   C12       1.0  0.96218  0.15710  0.72247  1.0000
  C   C13       1.0  0.16945  0.83895  0.22379  1.0000
  C   C14       1.0  0.83055  0.16105  0.77621  1.0000
  C   C15       1.0  0.31192  0.81755  0.25795  1.0000
  C   C16       1.0  0.68807  0.18245  0.74205  1.0000
  C   C17       1.0  0.43368  0.81346  0.20572  1.0000
  C   C18       1.0  0.56632  0.18654  0.79428  1.0000
  C   C19       1.0  0.41642  0.82649  0.11930  1.0000
  C   C20       1.0  0.58358  0.17351  0.88070  1.0000
  C   C21       1.0  0.27510  0.84651  0.08448  1.0000
  C   C22       1.0  0.72490  0.15348  0.91552  1.0000
  C   C23       1.0  0.15236  0.85553  0.13664  1.0000
  C   C24       1.0  0.84764  0.14446  0.86336  1.0000
  C   C25       1.0  0.17130  0.58367  0.37734  1.0000
  C   C26       1.0  0.82870  0.41632  0.62266  1.0000
  C   C27       1.0  0.64305  0.10869  0.27351  1.0000
  C   C28       1.0  0.35695  0.89131  0.72648  1.0000
  C   C29       1.0  0.25141  0.84978  0.99435  1.0000
  C   C30       1.0  0.74857  0.15022  0.00564  1.0000
  C   C31       1.0  0.17982  0.54735  0.88195  1.0000
  C   C32       1.0  0.82019  0.45265  0.11805  1.0000
  C   C33       1.0  0.16351  0.57023  0.79458  1.0000
  C   C34       1.0  0.83649  0.42977  0.20542  1.0000
  C   C35       1.0  0.17272  0.32878  0.81427  1.0000
  C   C36       1.0  0.82728  0.67122  0.18573  1.0000
  C   C37       1.0  0.18642  0.29538  0.90292  1.0000
  C   C38       1.0  0.81358  0.70462  0.09709  1.0000
  C   C39       1.0  0.19208  0.40613  0.93894  1.0000
  C   C40       1.0  0.80792  0.59386  0.06106  1.0000
  C   C41       1.0  0.21237  0.37826  0.03196  1.0000
  C   C42       1.0  0.78763  0.62174  0.96804  1.0000
  C   C43       1.0  0.17886  0.49846  0.06631  1.0000
  C   C44       1.0  0.82114  0.50154  0.93369  1.0000
  C   C45       1.0  0.21131  0.47255  0.15222  1.0000
  C   C46       1.0  0.78870  0.52745  0.84778  1.0000
  C   C47       1.0  0.29833  0.21710  0.17499  1.0000
  C   C48       1.0  0.70168  0.78290  0.82501  1.0000
  C   C49       1.0  0.26999  0.23412  0.08941  1.0000
  C   C50       1.0  0.73002  0.76588  0.91059  1.0000
  C   C51       1.0  0.08754  0.26450  0.38157  1.0000
  C   C52       1.0  0.91245  0.73550  0.61843  1.0000
  C   C53       1.0  0.99159  0.18996  0.42471  1.0000
  C   C54       1.0  0.00840  0.81004  0.57529  1.0000
  C   C55       1.0  0.04927  0.04105  0.47602  1.0000
  C   C56       1.0  0.95072  0.95896  0.52398  1.0000
  C   C57       1.0  0.20597  0.97519  0.48013  1.0000
  C   C58       1.0  0.79402  0.02482  0.51987  1.0000
  C   C59       1.0  0.29565  0.05670  0.43581  1.0000
  C   C60       1.0  0.70434  0.94330  0.56419  1.0000
  N   N1        1.0  0.27335  0.33416  0.20584  1.0000
  N   N2        1.0  0.72666  0.66585  0.79416  1.0000
  N   N3        1.0  0.16200  0.46367  0.75965  1.0000
  N   N4        1.0  0.83800  0.53633  0.24035  1.0000
  N   N5        1.0  0.23784  0.19980  0.38720  1.0000
  N   N6        1.0  0.76215  0.80020  0.61280  1.0000
  O   O1        1.0  0.23094  0.53797  0.45252  1.0000
  O   O2        1.0  0.76906  0.46203  0.54748  1.0000
  O   O3        1.0  0.20880  0.51905  0.31909  1.0000
  O   O4        1.0  0.79120  0.48095  0.68091  1.0000
  O   O5        1.0  0.54370  0.12601  0.32830  1.0000
  O   O6        1.0  0.45630  0.87399  0.67169  1.0000
  O   O7        1.0  0.63779  0.20434  0.20005  1.0000
  O   O8        1.0  0.36221  0.79565  0.79995  1.0000
  O   O9        1.0  0.37191  0.85023  0.94766  1.0000
  O   O10       1.0  0.62809  0.14977  0.05234  1.0000
  O   O11       1.0  0.13236  0.84878  0.96618  1.0000
  O   O12       1.0  0.86767  0.15120  0.03383  1.0000
  O   O13       1.0  0.45933  0.31601  0.44147  1.0000
  O   O14       1.0  0.54067  0.68399  0.55852  1.0000
  O   O15       1.0  0.48952  0.44596  0.24088  1.0000
  O   O16       1.0  0.51049  0.55405  0.75912  1.0000
