data_image0
_chemical_formula_structural       Cu2H28C32N20O10
_chemical_formula_sum              "Cu2 H28 C32 N20 O10"
_cell_length_a       7.67962
_cell_length_b       9.12555
_cell_length_c       14.6053
_cell_angle_alpha    89.9997
_cell_angle_beta     90.0003
_cell_angle_gamma    107.487

_space_group_name_H-M_alt    "P 1"
_space_group_IT_number       1

loop_
  _space_group_symop_operation_xyz
  'x, y, z'

loop_
  _atom_site_type_symbol
  _atom_site_label
  _atom_site_symmetry_multiplicity
  _atom_site_fract_x
  _atom_site_fract_y
  _atom_site_fract_z
  _atom_site_occupancy
  Cu  Cu1       1.0  0.81714  0.53064  0.66658  1.0000
  Cu  Cu2       1.0  0.18285  0.46936  0.16658  1.0000
  H   H1        1.0  0.04398  0.34195  0.34295  1.0000
  H   H2        1.0  0.95602  0.65805  0.84294  1.0000
  H   H3        1.0  0.11434  0.40830  0.50934  1.0000
  H   H4        1.0  0.88565  0.59170  0.00934  1.0000
  H   H5        1.0  0.36445  0.64558  0.54768  1.0000
  H   H6        1.0  0.63555  0.35442  0.04768  1.0000
  H   H7        1.0  0.44005  0.73620  0.25706  1.0000
  H   H8        1.0  0.55995  0.26379  0.75706  1.0000
  H   H9        1.0  0.24586  0.64785  0.69046  1.0000
  H   H10       1.0  0.75414  0.35215  0.19047  1.0000
  H   H11       1.0  0.97154  0.20940  0.06087  1.0000
  H   H12       1.0  0.02845  0.79060  0.56087  1.0000
  H   H13       1.0  0.11979  0.30636  0.77709  1.0000
  H   H14       1.0  0.88022  0.69364  0.27709  1.0000
  H   H15       1.0  0.35445  0.54533  0.82927  1.0000
  H   H16       1.0  0.64556  0.45467  0.32927  1.0000
  H   H17       1.0  0.38182  0.60955  0.99741  1.0000
  H   H18       1.0  0.61818  0.39045  0.49741  1.0000
  H   H19       1.0  0.55250  0.94450  0.69642  1.0000
  H   H20       1.0  0.44750  0.05551  0.19643  1.0000
  H   H21       1.0  0.42129  0.82332  0.78354  1.0000
  H   H22       1.0  0.57871  0.17669  0.28354  1.0000
  H   H23       1.0  0.01173  0.15680  0.54660  1.0000
  H   H24       1.0  0.98827  0.84320  0.04661  1.0000
  H   H25       1.0  0.87824  0.02656  0.62880  1.0000
  H   H26       1.0  0.12176  0.97343  0.12880  1.0000
  H   H27       1.0  0.16280  0.78245  0.71400  1.0000
  H   H28       1.0  0.83720  0.21755  0.21400  1.0000
  C   C1        1.0  0.15002  0.44536  0.36364  1.0000
  C   C2        1.0  0.84998  0.55464  0.86364  1.0000
  C   C3        1.0  0.19084  0.48175  0.45508  1.0000
  C   C4        1.0  0.80916  0.51824  0.95508  1.0000
  C   C5        1.0  0.32757  0.61593  0.47666  1.0000
  C   C6        1.0  0.67242  0.38407  0.97666  1.0000
  C   C7        1.0  0.37275  0.66751  0.31536  1.0000
  C   C8        1.0  0.62724  0.33248  0.81535  1.0000
  C   C9        1.0  0.42106  0.71117  0.40600  1.0000
  C   C10       1.0  0.57893  0.28882  0.90600  1.0000
  C   C11       1.0  0.56808  0.85067  0.42739  1.0000
  C   C12       1.0  0.43192  0.14932  0.92739  1.0000
  C   C13       1.0  0.05507  0.28004  0.00761  1.0000
  C   C14       1.0  0.94492  0.71996  0.50762  1.0000
  C   C15       1.0  0.02992  0.23697  0.91547  1.0000
  C   C16       1.0  0.97008  0.76304  0.41547  1.0000
  C   C17       1.0  0.13791  0.33475  0.84966  1.0000
  C   C18       1.0  0.86209  0.66526  0.34966  1.0000
  C   C19       1.0  0.26678  0.46909  0.87886  1.0000
  C   C20       1.0  0.73323  0.53091  0.37886  1.0000
  C   C21       1.0  0.28364  0.50479  0.97174  1.0000
  C   C22       1.0  0.71636  0.49521  0.47174  1.0000
  C   C23       1.0  0.88699  0.09700  0.89093  1.0000
  C   C24       1.0  0.11301  0.90301  0.39093  1.0000
  C   C25       1.0  0.55472  0.86014  0.74989  1.0000
  C   C26       1.0  0.44528  0.13987  0.24990  1.0000
  C   C27       1.0  0.59500  0.72027  0.70714  1.0000
  C   C28       1.0  0.40501  0.27974  0.20715  1.0000
  C   C29       1.0  0.87343  0.10595  0.57307  1.0000
  C   C30       1.0  0.12657  0.89406  0.07307  1.0000
  C   C31       1.0  0.78804  0.22732  0.61030  1.0000
  C   C32       1.0  0.21195  0.77268  0.11030  1.0000
  N   N1        1.0  0.23982  0.53748  0.29557  1.0000
  N   N2        1.0  0.76017  0.46252  0.79557  1.0000
  N   N3        1.0  0.17764  0.41118  0.03465  1.0000
  N   N4        1.0  0.82235  0.58882  0.53465  1.0000
  N   N5        1.0  0.66460  0.95520  0.36514  1.0000
  N   N6        1.0  0.33540  0.04480  0.86514  1.0000
  N   N7        1.0  0.78774  0.06071  0.41181  1.0000
  N   N8        1.0  0.21225  0.93929  0.91181  1.0000
  N   N9        1.0  0.76418  0.01700  0.49971  1.0000
  N   N10       1.0  0.23582  0.98300  0.99971  1.0000
  N   N11       1.0  0.62912  0.88874  0.51300  1.0000
  N   N12       1.0  0.37088  0.11126  0.01300  1.0000
  N   N13       1.0  0.81617  0.06727  0.80650  1.0000
  N   N14       1.0  0.18383  0.93274  0.30650  1.0000
  N   N15       1.0  0.79974  0.98589  0.95191  1.0000
  N   N16       1.0  0.20026  0.01411  0.45192  1.0000
  N   N17       1.0  0.67128  0.88476  0.90580  1.0000
  N   N18       1.0  0.32872  0.11525  0.40581  1.0000
  N   N19       1.0  0.68403  0.93670  0.81950  1.0000
  N   N20       1.0  0.31597  0.06330  0.31951  1.0000
  O   O1        1.0  0.45976  0.61189  0.68146  1.0000
  O   O2        1.0  0.54024  0.38812  0.18146  1.0000
  O   O3        1.0  0.76308  0.72629  0.70205  1.0000
  O   O4        1.0  0.23693  0.27371  0.20205  1.0000
  O   O5        1.0  0.61929  0.19593  0.61509  1.0000
  O   O6        1.0  0.38071  0.80407  0.11510  1.0000
  O   O7        1.0  0.90871  0.35413  0.63342  1.0000
  O   O8        1.0  0.09130  0.64587  0.13341  1.0000
  O   O9        1.0  0.12969  0.67495  0.69626  1.0000
  O   O10       1.0  0.87031  0.32505  0.19626  1.0000
