data_image0
_chemical_formula_structural       Tb2H32C32N20Cl2O12
_chemical_formula_sum              "Tb2 H32 C32 N20 Cl2 O12"
_cell_length_a       8.86027
_cell_length_b       10.9548
_cell_length_c       12.901
_cell_angle_alpha    115.141
_cell_angle_beta     106.189
_cell_angle_gamma    89.9693

_space_group_name_H-M_alt    "P 1"
_space_group_IT_number       1

loop_
  _space_group_symop_operation_xyz
  'x, y, z'

loop_
  _atom_site_type_symbol
  _atom_site_label
  _atom_site_symmetry_multiplicity
  _atom_site_fract_x
  _atom_site_fract_y
  _atom_site_fract_z
  _atom_site_occupancy
  Tb  Tb1       1.0  0.74982  0.43907  0.00017  1.0000
  Tb  Tb2       1.0  0.25018  0.56093  0.99984  1.0000
  H   H1        1.0  0.48274  0.27980  0.99521  1.0000
  H   H2        1.0  0.01717  0.28487  0.00494  1.0000
  H   H3        1.0  0.51726  0.72020  0.00479  1.0000
  H   H4        1.0  0.98282  0.71512  0.99506  1.0000
  H   H5        1.0  0.64176  0.23505  0.06423  1.0000
  H   H6        1.0  0.85838  0.17101  0.93598  1.0000
  H   H7        1.0  0.35824  0.76495  0.93577  1.0000
  H   H8        1.0  0.14162  0.82898  0.06402  1.0000
  H   H9        1.0  0.52587  0.71312  0.35324  1.0000
  H   H10       1.0  0.97352  0.35973  0.64658  1.0000
  H   H11       1.0  0.47413  0.28688  0.64676  1.0000
  H   H12       1.0  0.02647  0.64028  0.35342  1.0000
  H   H13       1.0  0.46721  0.53957  0.31149  1.0000
  H   H14       1.0  0.03256  0.22805  0.68843  1.0000
  H   H15       1.0  0.53279  0.46043  0.68850  1.0000
  H   H16       1.0  0.96744  0.77195  0.31157  1.0000
  H   H17       1.0  0.00246  0.94039  0.61842  1.0000
  H   H18       1.0  0.49789  0.32144  0.38124  1.0000
  H   H19       1.0  0.99754  0.05961  0.38158  1.0000
  H   H20       1.0  0.50211  0.67856  0.61876  1.0000
  H   H21       1.0  0.24231  0.09228  0.78774  1.0000
  H   H22       1.0  0.25802  0.30436  0.21202  1.0000
  H   H23       1.0  0.75769  0.90772  0.21225  1.0000
  H   H24       1.0  0.74198  0.69564  0.78797  1.0000
  H   H25       1.0  0.40399  0.00328  0.92488  1.0000
  H   H26       1.0  0.09599  0.07841  0.07496  1.0000
  H   H27       1.0  0.59601  0.99672  0.07512  1.0000
  H   H28       1.0  0.90401  0.92159  0.92503  1.0000
  H   H29       1.0  0.12144  0.62854  0.73705  1.0000
  H   H30       1.0  0.37806  0.89113  0.26277  1.0000
  H   H31       1.0  0.87855  0.37146  0.26295  1.0000
  H   H32       1.0  0.62194  0.10887  0.73723  1.0000
  C   C1        1.0  0.60789  0.57106  0.21098  1.0000
  C   C2        1.0  0.89218  0.36025  0.78919  1.0000
  C   C3        1.0  0.39211  0.42894  0.78902  1.0000
  C   C4        1.0  0.10783  0.63975  0.21082  1.0000
  C   C5        1.0  0.56539  0.61255  0.32718  1.0000
  C   C6        1.0  0.93424  0.28532  0.67280  1.0000
  C   C7        1.0  0.43461  0.38745  0.67282  1.0000
  C   C8        1.0  0.06576  0.71468  0.32720  1.0000
  C   C9        1.0  0.90434  0.68386  0.56914  1.0000
  C   C10       1.0  0.59555  0.11428  0.43072  1.0000
  C   C11       1.0  0.09565  0.31614  0.43086  1.0000
  C   C12       1.0  0.40445  0.88572  0.56928  1.0000
  C   C13       1.0  0.04449  0.77229  0.66413  1.0000
  C   C14       1.0  0.45548  0.10773  0.33563  1.0000
  C   C15       1.0  0.95551  0.22771  0.33587  1.0000
  C   C16       1.0  0.54452  0.89227  0.66437  1.0000
  C   C17       1.0  0.07958  0.90476  0.67895  1.0000
  C   C18       1.0  0.42063  0.22539  0.32071  1.0000
  C   C19       1.0  0.92041  0.09524  0.32105  1.0000
  C   C20       1.0  0.57937  0.77461  0.67929  1.0000
  C   C21       1.0  0.21096  0.98869  0.77235  1.0000
  C   C22       1.0  0.28923  0.21610  0.22740  1.0000
  C   C23       1.0  0.78903  0.01131  0.22765  1.0000
  C   C24       1.0  0.71077  0.78390  0.77260  1.0000
  C   C25       1.0  0.30175  0.93917  0.84936  1.0000
  C   C26       1.0  0.19821  0.08966  0.15045  1.0000
  C   C27       1.0  0.69825  0.06083  0.15064  1.0000
  C   C28       1.0  0.80179  0.91034  0.84954  1.0000
  C   C29       1.0  0.14356  0.73039  0.74477  1.0000
  C   C30       1.0  0.35624  0.98529  0.25504  1.0000
  C   C31       1.0  0.85644  0.26961  0.25523  1.0000
  C   C32       1.0  0.64376  0.01471  0.74496  1.0000
  N   N1        1.0  0.81203  0.72120  0.48861  1.0000
  N   N2        1.0  0.68757  0.23224  0.51130  1.0000
  N   N3        1.0  0.18797  0.27880  0.51139  1.0000
  N   N4        1.0  0.31243  0.76776  0.48870  1.0000
  N   N5        1.0  0.69616  0.61758  0.42624  1.0000
  N   N6        1.0  0.80348  0.19116  0.57385  1.0000
  N   N7        1.0  0.30384  0.38242  0.57376  1.0000
  N   N8        1.0  0.19652  0.80884  0.42615  1.0000
  N   N9        1.0  0.71272  0.51909  0.46263  1.0000
  N   N10       1.0  0.78723  0.05627  0.53749  1.0000
  N   N11       1.0  0.28728  0.48091  0.53737  1.0000
  N   N12       1.0  0.21278  0.94373  0.46251  1.0000
  N   N13       1.0  0.84488  0.56013  0.55367  1.0000
  N   N14       1.0  0.65520  0.00609  0.44631  1.0000
  N   N15       1.0  0.15512  0.43987  0.44633  1.0000
  N   N16       1.0  0.34480  0.99391  0.55369  1.0000
  N   N17       1.0  0.26887  0.81267  0.83575  1.0000
  N   N18       1.0  0.23095  0.97676  0.16410  1.0000
  N   N19       1.0  0.73113  0.18733  0.16425  1.0000
  N   N20       1.0  0.76905  0.02324  0.83590  1.0000
  Cl  Cl1       1.0  0.75003  0.68708  0.00010  1.0000
  Cl  Cl2       1.0  0.24997  0.31291  0.99990  1.0000
  O   O1        1.0  0.50467  0.57733  0.12354  1.0000
  O   O2        1.0  0.99566  0.45392  0.87637  1.0000
  O   O3        1.0  0.49533  0.42266  0.87645  1.0000
  O   O4        1.0  0.00434  0.54608  0.12363  1.0000
  O   O5        1.0  0.74087  0.53165  0.20526  1.0000
  O   O6        1.0  0.75939  0.32677  0.79524  1.0000
  O   O7        1.0  0.25914  0.46836  0.79475  1.0000
  O   O8        1.0  0.24061  0.67322  0.20476  1.0000
  O   O9        1.0  0.59427  0.26710  0.99830  1.0000
  O   O10       1.0  0.90572  0.26900  0.00192  1.0000
  O   O11       1.0  0.40573  0.73291  0.00170  1.0000
  O   O12       1.0  0.09428  0.73100  0.99808  1.0000
