data_image0
_chemical_formula_structural       Cu4H32C40S8Br4N8
_chemical_formula_sum              "Cu4 H32 C40 S8 Br4 N8"
_cell_length_a       7.94013
_cell_length_b       10.2232
_cell_length_c       14.872
_cell_angle_alpha    89.9998
_cell_angle_beta     90
_cell_angle_gamma    111.059

_space_group_name_H-M_alt    "P 1"
_space_group_IT_number       1

loop_
  _space_group_symop_operation_xyz
  'x, y, z'

loop_
  _atom_site_type_symbol
  _atom_site_label
  _atom_site_symmetry_multiplicity
  _atom_site_fract_x
  _atom_site_fract_y
  _atom_site_fract_z
  _atom_site_occupancy
  Cu  Cu1       1.0  0.02678  0.65096  0.95957  1.0000
  Cu  Cu2       1.0  0.47320  0.84903  0.45957  1.0000
  Cu  Cu3       1.0  0.97321  0.34903  0.04043  1.0000
  Cu  Cu4       1.0  0.52681  0.15098  0.54044  1.0000
  H   H1        1.0  0.94527  0.81458  0.64462  1.0000
  H   H2        1.0  0.55473  0.68544  0.14462  1.0000
  H   H3        1.0  0.05472  0.18541  0.35538  1.0000
  H   H4        1.0  0.44528  0.31458  0.85538  1.0000
  H   H5        1.0  0.60839  0.73285  0.65075  1.0000
  H   H6        1.0  0.89162  0.76718  0.15075  1.0000
  H   H7        1.0  0.39161  0.26715  0.34925  1.0000
  H   H8        1.0  0.10839  0.23283  0.84926  1.0000
  H   H9        1.0  0.44843  0.59326  0.78752  1.0000
  H   H10       1.0  0.05157  0.90678  0.28753  1.0000
  H   H11       1.0  0.55157  0.40676  0.21247  1.0000
  H   H12       1.0  0.94843  0.09324  0.71247  1.0000
  H   H13       1.0  0.63644  0.56459  0.91492  1.0000
  H   H14       1.0  0.86354  0.93542  0.41492  1.0000
  H   H15       1.0  0.36354  0.43541  0.08508  1.0000
  H   H16       1.0  0.13646  0.06459  0.58508  1.0000
  H   H17       1.0  0.40471  0.55537  0.41509  1.0000
  H   H18       1.0  0.09530  0.94461  0.91510  1.0000
  H   H19       1.0  0.59532  0.44464  0.58491  1.0000
  H   H20       1.0  0.90471  0.05537  0.08490  1.0000
  H   H21       1.0  0.20989  0.31883  0.47125  1.0000
  H   H22       1.0  0.29015  0.18115  0.97125  1.0000
  H   H23       1.0  0.79014  0.68118  0.52874  1.0000
  H   H24       1.0  0.70985  0.81884  0.02875  1.0000
  H   H25       1.0  0.01387  0.30423  0.60589  1.0000
  H   H26       1.0  0.48616  0.19573  0.10589  1.0000
  H   H27       1.0  0.98612  0.69576  0.39410  1.0000
  H   H28       1.0  0.51383  0.80426  0.89412  1.0000
  H   H29       1.0  0.04746  0.52432  0.68988  1.0000
  H   H30       1.0  0.45256  0.97564  0.18987  1.0000
  H   H31       1.0  0.95252  0.47567  0.31011  1.0000
  H   H32       1.0  0.54743  0.02435  0.81013  1.0000
  C   C1        1.0  0.96358  0.72779  0.77476  1.0000
  C   C2        1.0  0.53642  0.77221  0.27476  1.0000
  C   C3        1.0  0.03642  0.27220  0.22524  1.0000
  C   C4        1.0  0.46359  0.22780  0.72524  1.0000
  C   C5        1.0  0.87070  0.75652  0.70230  1.0000
  C   C6        1.0  0.62930  0.74350  0.20231  1.0000
  C   C7        1.0  0.12929  0.24348  0.29769  1.0000
  C   C8        1.0  0.37071  0.25651  0.79769  1.0000
  C   C9        1.0  0.68319  0.70910  0.70595  1.0000
  C   C10       1.0  0.81681  0.79092  0.20595  1.0000
  C   C11       1.0  0.31681  0.29090  0.29405  1.0000
  C   C12       1.0  0.18320  0.20909  0.79405  1.0000
  C   C13       1.0  0.59506  0.63461  0.78152  1.0000
  C   C14       1.0  0.90494  0.86542  0.28152  1.0000
  C   C15       1.0  0.40493  0.36540  0.21848  1.0000
  C   C16       1.0  0.09507  0.13459  0.71848  1.0000
  C   C17       1.0  0.69810  0.61699  0.85275  1.0000
  C   C18       1.0  0.80190  0.88302  0.35276  1.0000
  C   C19       1.0  0.30189  0.38301  0.14724  1.0000
  C   C20       1.0  0.19810  0.11698  0.64724  1.0000
  C   C21       1.0  0.32421  0.54379  0.47596  1.0000
  C   C22       1.0  0.17579  0.95617  0.97596  1.0000
  C   C23       1.0  0.67581  0.45620  0.52404  1.0000
  C   C24       1.0  0.82421  0.04381  0.02403  1.0000
  C   C25       1.0  0.21392  0.41292  0.50662  1.0000
  C   C26       1.0  0.28611  0.08707  0.00662  1.0000
  C   C27       1.0  0.78609  0.58708  0.49337  1.0000
  C   C28       1.0  0.71389  0.91292  0.99338  1.0000
  C   C29       1.0  0.10866  0.40498  0.58307  1.0000
  C   C30       1.0  0.39135  0.09499  0.08307  1.0000
  C   C31       1.0  0.89133  0.59502  0.41692  1.0000
  C   C32       1.0  0.60864  0.90501  0.91693  1.0000
  C   C33       1.0  0.12522  0.52729  0.62912  1.0000
  C   C34       1.0  0.37481  0.97269  0.12912  1.0000
  C   C35       1.0  0.87477  0.47270  0.37087  1.0000
  C   C36       1.0  0.62519  0.02731  0.87088  1.0000
  C   C37       1.0  0.24425  0.65489  0.59571  1.0000
  C   C38       1.0  0.25574  0.84508  0.09571  1.0000
  C   C39       1.0  0.75575  0.34511  0.40429  1.0000
  C   C40       1.0  0.74426  0.15491  0.90429  1.0000
  S   S1        1.0  0.20032  0.76776  0.77780  1.0000
  S   S2        1.0  0.29967  0.73223  0.27781  1.0000
  S   S3        1.0  0.79967  0.23222  0.22220  1.0000
  S   S4        1.0  0.70033  0.26778  0.72220  1.0000
  S   S5        1.0  0.28437  0.82037  0.64669  1.0000
  S   S6        1.0  0.21561  0.67959  0.14670  1.0000
  S   S7        1.0  0.71562  0.17962  0.35331  1.0000
  S   S8        1.0  0.78439  0.32040  0.85331  1.0000
  Br  Br1       1.0  0.22500  0.51161  0.94128  1.0000
  Br  Br2       1.0  0.27501  0.98840  0.44128  1.0000
  Br  Br3       1.0  0.77500  0.48839  0.05873  1.0000
  Br  Br4       1.0  0.72501  0.01162  0.55872  1.0000
  N   N1        1.0  0.88048  0.66315  0.85058  1.0000
  N   N2        1.0  0.61950  0.83685  0.35058  1.0000
  N   N3        1.0  0.11950  0.33685  0.14942  1.0000
  N   N4        1.0  0.38050  0.16315  0.64943  1.0000
  N   N5        1.0  0.33889  0.66438  0.51861  1.0000
  N   N6        1.0  0.16111  0.83560  0.01861  1.0000
  N   N7        1.0  0.66112  0.33562  0.48139  1.0000
  N   N8        1.0  0.83890  0.16439  0.98139  1.0000
