data_image0
_chemical_formula_structural       Ag4H20C8N20Cl4O16
_chemical_formula_sum              "Ag4 H20 C8 N20 Cl4 O16"
_cell_length_a       6.49415
_cell_length_b       7.19496
_cell_length_c       18.1608
_cell_angle_alpha    89.9999
_cell_angle_beta     97.5821
_cell_angle_gamma    89.9999

_space_group_name_H-M_alt    "P 1"
_space_group_IT_number       1

loop_
  _space_group_symop_operation_xyz
  'x, y, z'

loop_
  _atom_site_type_symbol
  _atom_site_label
  _atom_site_symmetry_multiplicity
  _atom_site_fract_x
  _atom_site_fract_y
  _atom_site_fract_z
  _atom_site_occupancy
  Ag  Ag1       1.0  0.95934  0.21510  0.83785  1.0000
  Ag  Ag2       1.0  0.04067  0.71510  0.66215  1.0000
  Ag  Ag3       1.0  0.04066  0.78490  0.16215  1.0000
  Ag  Ag4       1.0  0.95933  0.28490  0.33785  1.0000
  H   H1        1.0  0.55094  0.15893  0.71339  1.0000
  H   H2        1.0  0.44906  0.65893  0.78661  1.0000
  H   H3        1.0  0.44906  0.84107  0.28661  1.0000
  H   H4        1.0  0.55094  0.34107  0.21339  1.0000
  H   H5        1.0  0.28541  0.13749  0.71345  1.0000
  H   H6        1.0  0.71460  0.63749  0.78655  1.0000
  H   H7        1.0  0.71459  0.86251  0.28655  1.0000
  H   H8        1.0  0.28541  0.36251  0.21345  1.0000
  H   H9        1.0  0.42229  0.30148  0.03713  1.0000
  H   H10       1.0  0.57771  0.80148  0.46287  1.0000
  H   H11       1.0  0.57771  0.69852  0.96286  1.0000
  H   H12       1.0  0.42229  0.19852  0.53714  1.0000
  H   H13       1.0  0.20042  0.16668  0.99846  1.0000
  H   H14       1.0  0.79959  0.66668  0.50154  1.0000
  H   H15       1.0  0.79959  0.83332  0.00154  1.0000
  H   H16       1.0  0.20041  0.33332  0.49846  1.0000
  H   H17       1.0  0.20603  0.41264  0.98221  1.0000
  H   H18       1.0  0.79397  0.91264  0.51779  1.0000
  H   H19       1.0  0.79397  0.58736  0.01779  1.0000
  H   H20       1.0  0.20603  0.08736  0.48221  1.0000
  C   C1        1.0  0.29972  0.28583  0.99013  1.0000
  C   C2        1.0  0.70028  0.78583  0.50987  1.0000
  C   C3        1.0  0.70028  0.71417  0.00987  1.0000
  C   C4        1.0  0.29972  0.21417  0.49013  1.0000
  C   C5        1.0  0.45280  0.19176  0.81496  1.0000
  C   C6        1.0  0.54720  0.69175  0.68505  1.0000
  C   C7        1.0  0.54720  0.80824  0.18504  1.0000
  C   C8        1.0  0.45280  0.30825  0.31495  1.0000
  N   N1        1.0  0.29857  0.21575  0.85724  1.0000
  N   N2        1.0  0.70143  0.71575  0.64276  1.0000
  N   N3        1.0  0.70143  0.78425  0.14276  1.0000
  N   N4        1.0  0.29857  0.28425  0.35724  1.0000
  N   N5        1.0  0.64054  0.21737  0.85795  1.0000
  N   N6        1.0  0.35946  0.71737  0.64205  1.0000
  N   N7        1.0  0.35946  0.78263  0.14205  1.0000
  N   N8        1.0  0.64054  0.28263  0.35795  1.0000
  N   N9        1.0  0.60336  0.25619  0.92672  1.0000
  N   N10       1.0  0.39664  0.75619  0.57328  1.0000
  N   N11       1.0  0.39664  0.74381  0.07328  1.0000
  N   N12       1.0  0.60336  0.24381  0.42672  1.0000
  N   N13       1.0  0.42951  0.14371  0.74330  1.0000
  N   N14       1.0  0.57049  0.64371  0.75670  1.0000
  N   N15       1.0  0.57049  0.85629  0.25670  1.0000
  N   N16       1.0  0.42951  0.35629  0.24330  1.0000
  N   N17       1.0  0.40212  0.25330  0.92498  1.0000
  N   N18       1.0  0.59788  0.75330  0.57502  1.0000
  N   N19       1.0  0.59788  0.74670  0.07502  1.0000
  N   N20       1.0  0.40212  0.24670  0.42498  1.0000
  Cl  Cl1       1.0  0.91135  0.24965  0.63202  1.0000
  Cl  Cl2       1.0  0.08865  0.74965  0.86798  1.0000
  Cl  Cl3       1.0  0.08865  0.75035  0.36798  1.0000
  Cl  Cl4       1.0  0.91135  0.25036  0.13202  1.0000
  O   O1        1.0  0.91982  0.37843  0.57119  1.0000
  O   O2        1.0  0.08018  0.87843  0.92881  1.0000
  O   O3        1.0  0.08018  0.62157  0.42881  1.0000
  O   O4        1.0  0.91982  0.12157  0.07119  1.0000
  O   O5        1.0  0.70202  0.17156  0.62898  1.0000
  O   O6        1.0  0.29798  0.67156  0.87102  1.0000
  O   O7        1.0  0.29798  0.82844  0.37102  1.0000
  O   O8        1.0  0.70202  0.32844  0.12898  1.0000
  O   O9        1.0  0.96512  0.34693  0.70353  1.0000
  O   O10       1.0  0.03488  0.84693  0.79647  1.0000
  O   O11       1.0  0.03488  0.65307  0.29647  1.0000
  O   O12       1.0  0.96512  0.15307  0.20353  1.0000
  O   O13       1.0  0.06113  0.09836  0.62758  1.0000
  O   O14       1.0  0.93887  0.59836  0.87242  1.0000
  O   O15       1.0  0.93887  0.90164  0.37242  1.0000
  O   O16       1.0  0.06113  0.40164  0.12758  1.0000
