data_image0
_chemical_formula_structural       Zn2Si2H64C40O4
_chemical_formula_sum              "Zn2 Si2 H64 C40 O4"
_cell_length_a       8.3685
_cell_length_b       11.0151
_cell_length_c       12.651
_cell_angle_alpha    83.9876
_cell_angle_beta     76.3524
_cell_angle_gamma    89.8085

_space_group_name_H-M_alt    "P 1"
_space_group_IT_number       1

loop_
  _space_group_symop_operation_xyz
  'x, y, z'

loop_
  _atom_site_type_symbol
  _atom_site_label
  _atom_site_symmetry_multiplicity
  _atom_site_fract_x
  _atom_site_fract_y
  _atom_site_fract_z
  _atom_site_occupancy
  Zn  Zn1       1.0  0.58920  0.10906  0.02468  1.0000
  Zn  Zn2       1.0  0.41080  0.89094  0.97532  1.0000
  Si  Si1       1.0  0.61031  0.29676  0.37944  1.0000
  Si  Si2       1.0  0.38969  0.70324  0.62056  1.0000
  H   H1        1.0  0.66907  0.91719  0.25025  1.0000
  H   H2        1.0  0.33093  0.08281  0.74975  1.0000
  H   H3        1.0  0.50105  0.92855  0.36527  1.0000
  H   H4        1.0  0.49895  0.07145  0.63473  1.0000
  H   H5        1.0  0.55901  0.05577  0.26342  1.0000
  H   H6        1.0  0.44100  0.94423  0.73658  1.0000
  H   H7        1.0  0.64333  0.70023  0.24342  1.0000
  H   H8        1.0  0.35667  0.29977  0.75659  1.0000
  H   H9        1.0  0.61010  0.71468  0.11010  1.0000
  H   H10       1.0  0.38991  0.28531  0.88990  1.0000
  H   H11       1.0  0.51218  0.59388  0.20648  1.0000
  H   H12       1.0  0.48782  0.40612  0.79352  1.0000
  H   H13       1.0  0.25992  0.54612  0.30219  1.0000
  H   H14       1.0  0.74008  0.45388  0.69782  1.0000
  H   H15       1.0  0.07217  0.60353  0.27697  1.0000
  H   H16       1.0  0.92783  0.39647  0.72304  1.0000
  H   H17       1.0  0.11215  0.60819  0.40706  1.0000
  H   H18       1.0  0.88786  0.39182  0.59295  1.0000
  H   H19       1.0  0.92651  0.94521  0.36352  1.0000
  H   H20       1.0  0.07349  0.05480  0.63648  1.0000
  H   H21       1.0  0.96444  0.81603  0.44898  1.0000
  H   H22       1.0  0.03556  0.18397  0.55102  1.0000
  H   H23       1.0  0.90205  0.79485  0.32888  1.0000
  H   H24       1.0  0.09795  0.20515  0.67113  1.0000
  H   H25       1.0  0.08612  0.10252  0.28073  1.0000
  H   H26       1.0  0.91387  0.89747  0.71927  1.0000
  H   H27       1.0  0.27743  0.14049  0.18535  1.0000
  H   H28       1.0  0.72257  0.85951  0.81464  1.0000
  H   H29       1.0  0.26732  0.12590  0.32576  1.0000
  H   H30       1.0  0.73268  0.87410  0.67424  1.0000
  H   H31       1.0  0.82659  0.22729  0.14717  1.0000
  H   H32       1.0  0.17341  0.77271  0.85283  1.0000
  H   H33       1.0  0.71899  0.31193  0.96646  1.0000
  H   H34       1.0  0.28101  0.68807  0.03354  1.0000
  H   H35       1.0  0.40258  0.37408  0.03033  1.0000
  H   H36       1.0  0.59743  0.62593  0.96967  1.0000
  H   H37       1.0  0.34095  0.38067  0.24532  1.0000
  H   H38       1.0  0.65906  0.61934  0.75468  1.0000
  H   H39       1.0  0.72029  0.08588  0.39826  1.0000
  H   H40       1.0  0.27970  0.91411  0.60174  1.0000
  H   H41       1.0  0.76477  0.17451  0.49764  1.0000
  H   H42       1.0  0.23522  0.82548  0.50236  1.0000
  H   H43       1.0  0.88253  0.19756  0.36040  1.0000
  H   H44       1.0  0.11747  0.80243  0.63960  1.0000
  H   H45       1.0  0.30878  0.32465  0.45468  1.0000
  H   H46       1.0  0.69122  0.67536  0.54531  1.0000
  H   H47       1.0  0.40688  0.27103  0.55974  1.0000
  H   H48       1.0  0.59312  0.72897  0.44025  1.0000
  H   H49       1.0  0.36050  0.16836  0.47145  1.0000
  H   H50       1.0  0.63950  0.83164  0.52854  1.0000
  H   H51       1.0  0.81339  0.46861  0.35146  1.0000
  H   H52       1.0  0.18661  0.53138  0.64854  1.0000
  H   H53       1.0  0.69263  0.45234  0.48866  1.0000
  H   H54       1.0  0.30737  0.54765  0.51135  1.0000
  H   H55       1.0  0.60970  0.52326  0.38148  1.0000
  H   H56       1.0  0.39030  0.47674  0.61852  1.0000
  H   H57       1.0  0.92453  0.88366  0.91371  1.0000
  H   H58       1.0  0.07547  0.11633  0.08629  1.0000
  H   H59       1.0  0.76356  0.86459  0.03703  1.0000
  H   H60       1.0  0.23643  0.13540  0.96298  1.0000
  H   H61       1.0  0.95552  0.20818  0.93503  1.0000
  H   H62       1.0  0.04448  0.79181  0.06498  1.0000
  H   H63       1.0  0.03756  0.08910  0.85308  1.0000
  H   H64       1.0  0.96244  0.91091  0.14692  1.0000
  C   C1        1.0  0.42836  0.91077  0.21326  1.0000
  C   C2        1.0  0.57164  0.08923  0.78674  1.0000
  C   C3        1.0  0.40765  0.77164  0.23144  1.0000
  C   C4        1.0  0.59236  0.22836  0.76855  1.0000
  C   C5        1.0  0.24926  0.74249  0.28305  1.0000
  C   C6        1.0  0.75073  0.25751  0.71695  1.0000
  C   C7        1.0  0.15493  0.85609  0.30196  1.0000
  C   C8        1.0  0.84508  0.14391  0.69804  1.0000
  C   C9        1.0  0.25500  0.95452  0.26024  1.0000
  C   C10       1.0  0.74500  0.04548  0.73976  1.0000
  C   C11       1.0  0.54662  0.95565  0.27723  1.0000
  C   C12       1.0  0.45338  0.04435  0.72277  1.0000
  C   C13       1.0  0.54873  0.69071  0.19683  1.0000
  C   C14       1.0  0.45127  0.30929  0.80318  1.0000
  C   C15       1.0  0.17069  0.61879  0.31891  1.0000
  C   C16       1.0  0.82931  0.38121  0.68109  1.0000
  C   C17       1.0  0.97880  0.85378  0.36302  1.0000
  C   C18       1.0  0.02120  0.14622  0.63698  1.0000
  C   C19       1.0  0.21878  0.08628  0.26290  1.0000
  C   C20       1.0  0.78122  0.91372  0.73710  1.0000
  C   C21       1.0  0.59216  0.30126  0.23498  1.0000
  C   C22       1.0  0.40784  0.69875  0.76502  1.0000
  C   C23       1.0  0.70701  0.26565  0.14537  1.0000
  C   C24       1.0  0.29299  0.73435  0.85463  1.0000
  C   C25       1.0  0.64054  0.28375  0.04787  1.0000
  C   C26       1.0  0.35946  0.71625  0.95213  1.0000
  C   C27       1.0  0.48162  0.34095  0.08357  1.0000
  C   C28       1.0  0.51838  0.65905  0.91642  1.0000
  C   C29       1.0  0.45348  0.34832  0.19455  1.0000
  C   C30       1.0  0.54651  0.65169  0.80545  1.0000
  C   C31       1.0  0.75805  0.17730  0.41164  1.0000
  C   C32       1.0  0.24194  0.82270  0.58835  1.0000
  C   C33       1.0  0.40235  0.26204  0.47484  1.0000
  C   C34       1.0  0.59764  0.73796  0.52515  1.0000
  C   C35       1.0  0.68856  0.44944  0.40280  1.0000
  C   C36       1.0  0.31144  0.55056  0.59721  1.0000
  C   C37       1.0  0.88059  0.91174  0.99655  1.0000
  C   C38       1.0  0.11941  0.08826  0.00345  1.0000
  C   C39       1.0  0.99151  0.11227  0.93739  1.0000
  C   C40       1.0  0.00848  0.88773  0.06261  1.0000
  O   O1        1.0  0.48969  0.95118  0.09888  1.0000
  O   O2        1.0  0.51031  0.04883  0.90112  1.0000
  O   O3        1.0  0.84477  0.04002  0.98777  1.0000
  O   O4        1.0  0.15523  0.95997  0.01223  1.0000
