data_image0
_chemical_formula_structural       Zn4H32C24Br8N8
_chemical_formula_sum              "Zn4 H32 C24 Br8 N8"
_cell_length_a       6.1402
_cell_length_b       10.3534
_cell_length_c       14.2404
_cell_angle_alpha    89.9997
_cell_angle_beta     90.0001
_cell_angle_gamma    90.0004

_space_group_name_H-M_alt    "P 1"
_space_group_IT_number       1

loop_
  _space_group_symop_operation_xyz
  'x, y, z'

loop_
  _atom_site_type_symbol
  _atom_site_label
  _atom_site_symmetry_multiplicity
  _atom_site_fract_x
  _atom_site_fract_y
  _atom_site_fract_z
  _atom_site_occupancy
  Zn  Zn1       1.0  0.38188  0.25001  0.49663  1.0000
  Zn  Zn2       1.0  0.11812  0.75000  0.99663  1.0000
  Zn  Zn3       1.0  0.61810  0.75000  0.50337  1.0000
  Zn  Zn4       1.0  0.88190  0.25000  0.00337  1.0000
  H   H1        1.0  0.09520  0.37326  0.36306  1.0000
  H   H2        1.0  0.40480  0.62673  0.86306  1.0000
  H   H3        1.0  0.90482  0.87326  0.63693  1.0000
  H   H4        1.0  0.59519  0.12674  0.13693  1.0000
  H   H5        1.0  0.90479  0.62675  0.63694  1.0000
  H   H6        1.0  0.59521  0.37326  0.13694  1.0000
  H   H7        1.0  0.09521  0.12674  0.36306  1.0000
  H   H8        1.0  0.40480  0.87326  0.86306  1.0000
  H   H9        1.0  0.18146  0.52220  0.72422  1.0000
  H   H10       1.0  0.31852  0.47779  0.22422  1.0000
  H   H11       1.0  0.81852  0.02220  0.27578  1.0000
  H   H12       1.0  0.68148  0.97781  0.77579  1.0000
  H   H13       1.0  0.81851  0.47780  0.27578  1.0000
  H   H14       1.0  0.68147  0.52220  0.77579  1.0000
  H   H15       1.0  0.18148  0.97780  0.72422  1.0000
  H   H16       1.0  0.31853  0.02220  0.22423  1.0000
  H   H17       1.0  0.39208  0.43541  0.66470  1.0000
  H   H18       1.0  0.10790  0.56458  0.16470  1.0000
  H   H19       1.0  0.60790  0.93541  0.33531  1.0000
  H   H20       1.0  0.89208  0.06458  0.83530  1.0000
  H   H21       1.0  0.60790  0.56459  0.33530  1.0000
  H   H22       1.0  0.89210  0.43541  0.83530  1.0000
  H   H23       1.0  0.39210  0.06458  0.66470  1.0000
  H   H24       1.0  0.10790  0.93541  0.16471  1.0000
  H   H25       1.0  0.15417  0.35389  0.70237  1.0000
  H   H26       1.0  0.34581  0.64610  0.20238  1.0000
  H   H27       1.0  0.84582  0.85388  0.29762  1.0000
  H   H28       1.0  0.65419  0.14611  0.79763  1.0000
  H   H29       1.0  0.84581  0.64611  0.29762  1.0000
  H   H30       1.0  0.65419  0.35389  0.79762  1.0000
  H   H31       1.0  0.15419  0.14610  0.70237  1.0000
  H   H32       1.0  0.34584  0.85388  0.20238  1.0000
  C   C1        1.0  0.05098  0.42997  0.42477  1.0000
  C   C2        1.0  0.44900  0.57002  0.92477  1.0000
  C   C3        1.0  0.94902  0.92997  0.57523  1.0000
  C   C4        1.0  0.55096  0.07003  0.07524  1.0000
  C   C5        1.0  0.94899  0.57003  0.57522  1.0000
  C   C6        1.0  0.55100  0.42997  0.07523  1.0000
  C   C7        1.0  0.05100  0.07003  0.42477  1.0000
  C   C8        1.0  0.44901  0.92998  0.92478  1.0000
  C   C9        1.0  0.10816  0.47385  0.58220  1.0000
  C   C10       1.0  0.39184  0.52615  0.08220  1.0000
  C   C11       1.0  0.89184  0.97385  0.41781  1.0000
  C   C12       1.0  0.60816  0.02617  0.91780  1.0000
  C   C13       1.0  0.89185  0.52615  0.41781  1.0000
  C   C14       1.0  0.60817  0.47384  0.91780  1.0000
  C   C15       1.0  0.10818  0.02616  0.58219  1.0000
  C   C16       1.0  0.39188  0.97387  0.08219  1.0000
  C   C17       1.0  0.21548  0.44544  0.67335  1.0000
  C   C18       1.0  0.28451  0.55455  0.17335  1.0000
  C   C19       1.0  0.78452  0.94545  0.32666  1.0000
  C   C20       1.0  0.71551  0.05457  0.82664  1.0000
  C   C21       1.0  0.78451  0.55455  0.32665  1.0000
  C   C22       1.0  0.71549  0.44544  0.82666  1.0000
  C   C23       1.0  0.21551  0.05456  0.67335  1.0000
  C   C24       1.0  0.28454  0.94545  0.17333  1.0000
  Br  Br1       1.0  0.68009  0.25002  0.60141  1.0000
  Br  Br2       1.0  0.81991  0.75000  0.10141  1.0000
  Br  Br3       1.0  0.31991  0.75000  0.39858  1.0000
  Br  Br4       1.0  0.18008  0.25000  0.89858  1.0000
  Br  Br5       1.0  0.50013  0.25001  0.33704  1.0000
  Br  Br6       1.0  0.99986  0.75000  0.83704  1.0000
  Br  Br7       1.0  0.49986  0.75001  0.66296  1.0000
  Br  Br8       1.0  0.00014  0.25000  0.16296  1.0000
  N   N1        1.0  0.15785  0.40427  0.50471  1.0000
  N   N2        1.0  0.34214  0.59572  0.00471  1.0000
  N   N3        1.0  0.84214  0.90427  0.49529  1.0000
  N   N4        1.0  0.65785  0.09573  0.99530  1.0000
  N   N5        1.0  0.84213  0.59573  0.49528  1.0000
  N   N6        1.0  0.65786  0.40426  0.99529  1.0000
  N   N7        1.0  0.15786  0.09573  0.50471  1.0000
  N   N8        1.0  0.34212  0.90427  0.00472  1.0000
