data_image0
_chemical_formula_structural       Zn2H16C12Br4N4
_chemical_formula_sum              "Zn2 H16 C12 Br4 N4"
_cell_length_a       6.41845
_cell_length_b       8.61553
_cell_length_c       9.89136
_cell_angle_alpha    113.225
_cell_angle_beta     89.9706
_cell_angle_gamma    111.899

_space_group_name_H-M_alt    "P 1"
_space_group_IT_number       1

loop_
  _space_group_symop_operation_xyz
  'x, y, z'

loop_
  _atom_site_type_symbol
  _atom_site_label
  _atom_site_symmetry_multiplicity
  _atom_site_fract_x
  _atom_site_fract_y
  _atom_site_fract_z
  _atom_site_occupancy
  Zn  Zn1       1.0  0.11617  0.99973  0.75001  1.0000
  Zn  Zn2       1.0  0.88384  0.00026  0.24999  1.0000
  H   H1        1.0  0.15951  0.73350  0.47108  1.0000
  H   H2        1.0  0.42641  0.26639  0.02848  1.0000
  H   H3        1.0  0.84047  0.26653  0.52892  1.0000
  H   H4        1.0  0.57359  0.73358  0.97151  1.0000
  H   H5        1.0  0.41920  0.35491  0.77689  1.0000
  H   H6        1.0  0.06442  0.64483  0.72319  1.0000
  H   H7        1.0  0.58081  0.64512  0.22312  1.0000
  H   H8        1.0  0.93560  0.35514  0.27681  1.0000
  H   H9        1.0  0.67033  0.46000  0.71244  1.0000
  H   H10       1.0  0.21030  0.53979  0.78755  1.0000
  H   H11       1.0  0.32967  0.54002  0.28758  1.0000
  H   H12       1.0  0.78974  0.46019  0.21241  1.0000
  H   H13       1.0  0.68662  0.36693  0.84101  1.0000
  H   H14       1.0  0.31990  0.63299  0.65903  1.0000
  H   H15       1.0  0.31337  0.63307  0.15898  1.0000
  H   H16       1.0  0.68008  0.36702  0.34095  1.0000
  C   C1        1.0  0.53504  0.16542  0.61784  1.0000
  C   C2        1.0  0.36964  0.83448  0.88222  1.0000
  C   C3        1.0  0.46496  0.83462  0.38218  1.0000
  C   C4        1.0  0.63034  0.16549  0.11774  1.0000
  C   C5        1.0  0.31376  0.85246  0.48343  1.0000
  C   C6        1.0  0.46147  0.14745  0.01636  1.0000
  C   C7        1.0  0.68620  0.14754  0.51656  1.0000
  C   C8        1.0  0.53852  0.85252  0.98364  1.0000
  C   C9        1.0  0.57906  0.34667  0.74374  1.0000
  C   C10       1.0  0.23252  0.65317  0.75632  1.0000
  C   C11       1.0  0.42094  0.65338  0.25629  1.0000
  C   C12       1.0  0.76749  0.34679  0.24365  1.0000
  Br  Br1       1.0  0.77825  0.73737  0.60736  1.0000
  Br  Br2       1.0  0.03979  0.26150  0.89298  1.0000
  Br  Br3       1.0  0.22174  0.26261  0.39270  1.0000
  Br  Br4       1.0  0.96025  0.73852  0.10702  1.0000
  N   N1        1.0  0.34795  0.01317  0.59897  1.0000
  N   N2        1.0  0.33500  0.98667  0.90089  1.0000
  N   N3        1.0  0.65204  0.98684  0.40102  1.0000
  N   N4        1.0  0.66501  0.01333  0.09912  1.0000
