data_image0
_chemical_formula_structural       Zn4H32C24N8Cl8
_chemical_formula_sum              "Zn4 H32 C24 N8 Cl8"
_cell_length_a       5.93363
_cell_length_b       10.2713
_cell_length_c       13.7975
_cell_angle_alpha    89.9985
_cell_angle_beta     89.9999
_cell_angle_gamma    90.0003

_space_group_name_H-M_alt    "P 1"
_space_group_IT_number       1

loop_
  _space_group_symop_operation_xyz
  'x, y, z'

loop_
  _atom_site_type_symbol
  _atom_site_label
  _atom_site_symmetry_multiplicity
  _atom_site_fract_x
  _atom_site_fract_y
  _atom_site_fract_z
  _atom_site_occupancy
  Zn  Zn1       1.0  0.60311  0.25000  0.50788  1.0000
  Zn  Zn2       1.0  0.89690  0.75000  0.00788  1.0000
  Zn  Zn3       1.0  0.39691  0.75001  0.49212  1.0000
  Zn  Zn4       1.0  0.10309  0.24999  0.99212  1.0000
  H   H1        1.0  0.91254  0.37104  0.64217  1.0000
  H   H2        1.0  0.58743  0.62896  0.14216  1.0000
  H   H3        1.0  0.08746  0.87103  0.35782  1.0000
  H   H4        1.0  0.41255  0.12897  0.85783  1.0000
  H   H5        1.0  0.08747  0.62898  0.35783  1.0000
  H   H6        1.0  0.41253  0.37103  0.85783  1.0000
  H   H7        1.0  0.91256  0.12896  0.64216  1.0000
  H   H8        1.0  0.58747  0.87103  0.14216  1.0000
  H   H9        1.0  0.81501  0.35620  0.29320  1.0000
  H   H10       1.0  0.68501  0.64380  0.79320  1.0000
  H   H11       1.0  0.18501  0.85619  0.70680  1.0000
  H   H12       1.0  0.31499  0.14380  0.20679  1.0000
  H   H13       1.0  0.18502  0.64380  0.70681  1.0000
  H   H14       1.0  0.31498  0.35619  0.20681  1.0000
  H   H15       1.0  0.81500  0.14381  0.29320  1.0000
  H   H16       1.0  0.68499  0.85620  0.79320  1.0000
  H   H17       1.0  0.78965  0.52680  0.27299  1.0000
  H   H18       1.0  0.71038  0.47321  0.77300  1.0000
  H   H19       1.0  0.21038  0.02677  0.72700  1.0000
  H   H20       1.0  0.28964  0.97321  0.22700  1.0000
  H   H21       1.0  0.21037  0.47321  0.72701  1.0000
  H   H22       1.0  0.28963  0.52678  0.22701  1.0000
  H   H23       1.0  0.78962  0.97321  0.27299  1.0000
  H   H24       1.0  0.71036  0.02679  0.77299  1.0000
  H   H25       1.0  0.57647  0.44015  0.33816  1.0000
  H   H26       1.0  0.92353  0.55984  0.83816  1.0000
  H   H27       1.0  0.42355  0.94014  0.66184  1.0000
  H   H28       1.0  0.07646  0.05984  0.16184  1.0000
  H   H29       1.0  0.42353  0.55985  0.66184  1.0000
  H   H30       1.0  0.07645  0.44014  0.16185  1.0000
  H   H31       1.0  0.57647  0.05986  0.33816  1.0000
  H   H32       1.0  0.92352  0.94016  0.83815  1.0000
  C   C1        1.0  0.88016  0.47511  0.41702  1.0000
  C   C2        1.0  0.61985  0.52490  0.91703  1.0000
  C   C3        1.0  0.11985  0.97511  0.58298  1.0000
  C   C4        1.0  0.38017  0.02490  0.08297  1.0000
  C   C5        1.0  0.11985  0.52492  0.58298  1.0000
  C   C6        1.0  0.38014  0.47509  0.08298  1.0000
  C   C7        1.0  0.88014  0.02492  0.41704  1.0000
  C   C8        1.0  0.61985  0.97510  0.91702  1.0000
  C   C9        1.0  0.95295  0.42899  0.57822  1.0000
  C   C10       1.0  0.54703  0.57101  0.07821  1.0000
  C   C11       1.0  0.04705  0.92898  0.42178  1.0000
  C   C12       1.0  0.45295  0.07103  0.92178  1.0000
  C   C13       1.0  0.04704  0.57102  0.42180  1.0000
  C   C14       1.0  0.45295  0.42897  0.92179  1.0000
  C   C15       1.0  0.95298  0.07100  0.57821  1.0000
  C   C16       1.0  0.54705  0.92899  0.07821  1.0000
  C   C17       1.0  0.75803  0.44866  0.32518  1.0000
  C   C18       1.0  0.74198  0.55134  0.82518  1.0000
  C   C19       1.0  0.24200  0.94865  0.67483  1.0000
  C   C20       1.0  0.25802  0.05135  0.17482  1.0000
  C   C21       1.0  0.24198  0.55134  0.67483  1.0000
  C   C22       1.0  0.25801  0.44864  0.17483  1.0000
  C   C23       1.0  0.75802  0.05135  0.32518  1.0000
  C   C24       1.0  0.74198  0.94865  0.82517  1.0000
  N   N1        1.0  0.83483  0.40461  0.49741  1.0000
  N   N2        1.0  0.66518  0.59540  0.99741  1.0000
  N   N3        1.0  0.16517  0.90461  0.50260  1.0000
  N   N4        1.0  0.33483  0.09540  0.00258  1.0000
  N   N5        1.0  0.16517  0.59540  0.50259  1.0000
  N   N6        1.0  0.33483  0.40460  0.00259  1.0000
  N   N7        1.0  0.83483  0.09540  0.49742  1.0000
  N   N8        1.0  0.66517  0.90461  0.99741  1.0000
  Cl  Cl1       1.0  0.31385  0.25000  0.40592  1.0000
  Cl  Cl2       1.0  0.18614  0.75000  0.90592  1.0000
  Cl  Cl3       1.0  0.68616  0.74999  0.59408  1.0000
  Cl  Cl4       1.0  0.81385  0.25000  0.09409  1.0000
  Cl  Cl5       1.0  0.50805  0.25000  0.66505  1.0000
  Cl  Cl6       1.0  0.99194  0.75000  0.16505  1.0000
  Cl  Cl7       1.0  0.49195  0.75000  0.33495  1.0000
  Cl  Cl8       1.0  0.00805  0.25000  0.83495  1.0000
