data_image0
_chemical_formula_structural       Zn2H16C12I4N4
_chemical_formula_sum              "Zn2 H16 C12 I4 N4"
_cell_length_a       6.69089
_cell_length_b       8.94058
_cell_length_c       9.97796
_cell_angle_alpha    112.178
_cell_angle_beta     90.0293
_cell_angle_gamma    111.938

_space_group_name_H-M_alt    "P 1"
_space_group_IT_number       1

loop_
  _space_group_symop_operation_xyz
  'x, y, z'

loop_
  _atom_site_type_symbol
  _atom_site_label
  _atom_site_symmetry_multiplicity
  _atom_site_fract_x
  _atom_site_fract_y
  _atom_site_fract_z
  _atom_site_occupancy
  Zn  Zn1       1.0  0.13058  0.99964  0.74978  1.0000
  Zn  Zn2       1.0  0.86942  0.00036  0.25024  1.0000
  H   H1        1.0  0.16677  0.74792  0.46937  1.0000
  H   H2        1.0  0.41800  0.25172  0.03017  1.0000
  H   H3        1.0  0.83321  0.25208  0.53062  1.0000
  H   H4        1.0  0.58198  0.74829  0.96986  1.0000
  H   H5        1.0  0.44064  0.36376  0.73417  1.0000
  H   H6        1.0  0.07792  0.63557  0.76597  1.0000
  H   H7        1.0  0.55936  0.63623  0.26583  1.0000
  H   H8        1.0  0.92205  0.36442  0.23402  1.0000
  H   H9        1.0  0.72745  0.43227  0.73476  1.0000
  H   H10       1.0  0.29693  0.56772  0.76502  1.0000
  H   H11       1.0  0.27254  0.56772  0.26524  1.0000
  H   H12       1.0  0.70311  0.43227  0.23497  1.0000
  H   H13       1.0  0.60067  0.32368  0.84752  1.0000
  H   H14       1.0  0.27729  0.67618  0.65241  1.0000
  H   H15       1.0  0.39933  0.67633  0.15248  1.0000
  H   H16       1.0  0.72274  0.32383  0.34756  1.0000
  C   C1        1.0  0.53786  0.15577  0.61775  1.0000
  C   C2        1.0  0.38260  0.84417  0.88222  1.0000
  C   C3        1.0  0.46213  0.84423  0.38226  1.0000
  C   C4        1.0  0.61745  0.15588  0.11782  1.0000
  C   C5        1.0  0.31795  0.86061  0.48295  1.0000
  C   C6        1.0  0.45696  0.13921  0.01678  1.0000
  C   C7        1.0  0.68203  0.13938  0.51704  1.0000
  C   C8        1.0  0.54299  0.86076  0.98321  1.0000
  C   C9        1.0  0.57975  0.32827  0.74029  1.0000
  C   C10       1.0  0.25251  0.67157  0.75970  1.0000
  C   C11       1.0  0.42025  0.67175  0.25973  1.0000
  C   C12       1.0  0.74757  0.32848  0.24033  1.0000
  I   I1        1.0  0.78030  0.72572  0.60945  1.0000
  I   I2        1.0  0.05313  0.27310  0.89016  1.0000
  I   I3        1.0  0.21970  0.27427  0.39055  1.0000
  I   I4        1.0  0.94685  0.72689  0.10983  1.0000
  N   N1        1.0  0.35480  0.01190  0.59882  1.0000
  N   N2        1.0  0.34297  0.98784  0.90086  1.0000
  N   N3        1.0  0.64519  0.98809  0.40117  1.0000
  N   N4        1.0  0.65700  0.01211  0.09911  1.0000
