data_image0
_chemical_formula_structural       Cu2H12C18S4N12O2
_chemical_formula_sum              "Cu2 H12 C18 S4 N12 O2"
_cell_length_a       8.44106
_cell_length_b       8.75265
_cell_length_c       9.48477
_cell_angle_alpha    81.148
_cell_angle_beta     68.5405
_cell_angle_gamma    74.9277

_space_group_name_H-M_alt    "P 1"
_space_group_IT_number       1

loop_
  _space_group_symop_operation_xyz
  'x, y, z'

loop_
  _atom_site_type_symbol
  _atom_site_label
  _atom_site_symmetry_multiplicity
  _atom_site_fract_x
  _atom_site_fract_y
  _atom_site_fract_z
  _atom_site_occupancy
  Cu  Cu1       1.0  0.84919  0.15729  0.76345  1.0000
  Cu  Cu2       1.0  0.15081  0.84271  0.23654  1.0000
  H   H1        1.0  0.93211  0.67141  0.02377  1.0000
  H   H2        1.0  0.06789  0.32860  0.97622  1.0000
  H   H3        1.0  0.75851  0.81509  0.98122  1.0000
  H   H4        1.0  0.24148  0.18492  0.01878  1.0000
  H   H5        1.0  0.57993  0.09858  0.63245  1.0000
  H   H6        1.0  0.42007  0.90142  0.36754  1.0000
  H   H7        1.0  0.30859  0.26458  0.58359  1.0000
  H   H8        1.0  0.69141  0.73542  0.41642  1.0000
  H   H9        1.0  0.20859  0.54782  0.64840  1.0000
  H   H10       1.0  0.79141  0.45218  0.35161  1.0000
  H   H11       1.0  0.38039  0.65823  0.76317  1.0000
  H   H12       1.0  0.61961  0.34177  0.23684  1.0000
  C   C1        1.0  0.53044  0.22273  0.65817  1.0000
  C   C2        1.0  0.46956  0.77728  0.34183  1.0000
  C   C3        1.0  0.38092  0.31579  0.63152  1.0000
  C   C4        1.0  0.61908  0.68421  0.36848  1.0000
  C   C5        1.0  0.32475  0.47343  0.66902  1.0000
  C   C6        1.0  0.67526  0.52657  0.33098  1.0000
  C   C7        1.0  0.41884  0.53571  0.73154  1.0000
  C   C8        1.0  0.58116  0.46428  0.26846  1.0000
  C   C9        1.0  0.56605  0.43493  0.75516  1.0000
  C   C10       1.0  0.43395  0.56506  0.24485  1.0000
  C   C11       1.0  0.67850  0.47460  0.82006  1.0000
  C   C12       1.0  0.32151  0.52539  0.17993  1.0000
  C   C13       1.0  0.80515  0.58845  0.91995  1.0000
  C   C14       1.0  0.19484  0.41156  0.08004  1.0000
  C   C15       1.0  0.10235  0.14711  0.37866  1.0000
  C   C16       1.0  0.89767  0.85290  0.62134  1.0000
  C   C17       1.0  0.81804  0.99292  0.15355  1.0000
  C   C18       1.0  0.18195  0.00707  0.84647  1.0000
  S   S1        1.0  0.03650  0.30674  0.46870  1.0000
  S   S2        1.0  0.96352  0.69325  0.53131  1.0000
  S   S3        1.0  0.65335  0.07175  0.09661  1.0000
  S   S4        1.0  0.34663  0.92824  0.90341  1.0000
  N   N1        1.0  0.62063  0.28081  0.71902  1.0000
  N   N2        1.0  0.37938  0.71918  0.28097  1.0000
  N   N3        1.0  0.81158  0.36969  0.84004  1.0000
  N   N4        1.0  0.18843  0.63032  0.15996  1.0000
  N   N5        1.0  0.89536  0.43835  0.90338  1.0000
  N   N6        1.0  0.10464  0.56166  0.09662  1.0000
  N   N7        1.0  0.83383  0.70239  0.97663  1.0000
  N   N8        1.0  0.16616  0.29762  0.02337  1.0000
  N   N9        1.0  0.16020  0.03096  0.30990  1.0000
  N   N10       1.0  0.83982  0.96904  0.69007  1.0000
  N   N11       1.0  0.93411  0.92953  0.19861  1.0000
  N   N12       1.0  0.06587  0.07047  0.80140  1.0000
  O   O1        1.0  0.66411  0.61682  0.87078  1.0000
  O   O2        1.0  0.33588  0.38318  0.12922  1.0000
