data_image0
_chemical_formula_structural       CuH4C4N4O4
_chemical_formula_sum              "Cu1 H4 C4 N4 O4"
_cell_length_a       5.17733
_cell_length_b       6.64644
_cell_length_c       6.82348
_cell_angle_alpha    119.16
_cell_angle_beta     112.179
_cell_angle_gamma    89.9676

_space_group_name_H-M_alt    "P 1"
_space_group_IT_number       1

loop_
  _space_group_symop_operation_xyz
  'x, y, z'

loop_
  _atom_site_type_symbol
  _atom_site_label
  _atom_site_symmetry_multiplicity
  _atom_site_fract_x
  _atom_site_fract_y
  _atom_site_fract_z
  _atom_site_occupancy
  Cu  Cu1       1.0  1.00000  0.00000  1.00000  1.0000
  H   H1        1.0  0.80345  0.43064  0.24043  1.0000
  H   H2        1.0  0.19655  0.19034  0.75905  1.0000
  H   H3        1.0  0.19652  0.56933  0.75957  1.0000
  H   H4        1.0  0.80347  0.80963  0.24094  1.0000
  C   C1        1.0  0.88919  0.46116  0.13158  1.0000
  C   C2        1.0  0.11098  0.32952  0.86837  1.0000
  C   C3        1.0  0.11087  0.53886  0.86845  1.0000
  C   C4        1.0  0.88901  0.67045  0.13158  1.0000
  N   N1        1.0  0.99985  0.29210  0.99975  1.0000
  N   N2        1.0  0.00017  0.70797  0.00028  1.0000
  N   N3        1.0  0.51235  0.77465  0.54966  1.0000
  N   N4        1.0  0.48764  0.22537  0.45036  1.0000
  O   O1        1.0  0.77791  0.79948  0.59993  1.0000
  O   O2        1.0  0.22204  0.20050  0.40004  1.0000
  O   O3        1.0  0.45360  0.86641  0.73233  1.0000
  O   O4        1.0  0.54637  0.13359  0.26768  1.0000
