data_image0
_chemical_formula_structural       La4P4H28C12O40
_chemical_formula_sum              "La4 P4 H28 C12 O40"
_cell_length_a       6.94776
_cell_length_b       10.2057
_cell_length_c       13.6164
_cell_angle_alpha    90.0001
_cell_angle_beta     89.9997
_cell_angle_gamma    99.8986

_space_group_name_H-M_alt    "P 1"
_space_group_IT_number       1

loop_
  _space_group_symop_operation_xyz
  'x, y, z'

loop_
  _atom_site_type_symbol
  _atom_site_label
  _atom_site_symmetry_multiplicity
  _atom_site_fract_x
  _atom_site_fract_y
  _atom_site_fract_z
  _atom_site_occupancy
  La  La1       1.0  0.15940  0.27743  0.89627  1.0000
  La  La2       1.0  0.84059  0.22256  0.39627  1.0000
  La  La3       1.0  0.84060  0.72256  0.10373  1.0000
  La  La4       1.0  0.15940  0.77744  0.60373  1.0000
  P   P1        1.0  0.77965  0.07871  0.05397  1.0000
  P   P2        1.0  0.22035  0.42130  0.55396  1.0000
  P   P3        1.0  0.22036  0.92129  0.94604  1.0000
  P   P4        1.0  0.77965  0.57871  0.44604  1.0000
  H   H1        1.0  0.54430  0.20244  0.05636  1.0000
  H   H2        1.0  0.45571  0.29757  0.55637  1.0000
  H   H3        1.0  0.45572  0.79756  0.94363  1.0000
  H   H4        1.0  0.54429  0.70244  0.44363  1.0000
  H   H5        1.0  0.91078  0.99177  0.25334  1.0000
  H   H6        1.0  0.08922  0.50824  0.75334  1.0000
  H   H7        1.0  0.08921  0.00824  0.74666  1.0000
  H   H8        1.0  0.91080  0.49177  0.24666  1.0000
  H   H9        1.0  0.78232  0.33929  0.94033  1.0000
  H   H10       1.0  0.21769  0.16072  0.44034  1.0000
  H   H11       1.0  0.21769  0.66070  0.05966  1.0000
  H   H12       1.0  0.78232  0.83930  0.55966  1.0000
  H   H13       1.0  0.86469  0.48601  0.89816  1.0000
  H   H14       1.0  0.13531  0.01400  0.39816  1.0000
  H   H15       1.0  0.13532  0.51398  0.10184  1.0000
  H   H16       1.0  0.86468  0.98601  0.60184  1.0000
  H   H17       1.0  0.60530  0.33223  0.81291  1.0000
  H   H18       1.0  0.39469  0.16776  0.31291  1.0000
  H   H19       1.0  0.39470  0.66776  0.18708  1.0000
  H   H20       1.0  0.60530  0.83223  0.68708  1.0000
  H   H21       1.0  0.46069  0.34003  0.72298  1.0000
  H   H22       1.0  0.53931  0.15996  0.22298  1.0000
  H   H23       1.0  0.53931  0.65996  0.27702  1.0000
  H   H24       1.0  0.46069  0.84003  0.77702  1.0000
  H   H25       1.0  0.09442  0.09825  0.13337  1.0000
  H   H26       1.0  0.90558  0.40176  0.63337  1.0000
  H   H27       1.0  0.90558  0.90175  0.86664  1.0000
  H   H28       1.0  0.09442  0.59826  0.36665  1.0000
  C   C1        1.0  0.95950  0.13634  0.15207  1.0000
  C   C2        1.0  0.04049  0.36366  0.65207  1.0000
  C   C3        1.0  0.04050  0.86366  0.84794  1.0000
  C   C4        1.0  0.95951  0.63635  0.34793  1.0000
  C   C5        1.0  0.00584  0.28714  0.15786  1.0000
  C   C6        1.0  0.99414  0.21286  0.65786  1.0000
  C   C7        1.0  0.99416  0.71285  0.84213  1.0000
  C   C8        1.0  0.00584  0.78715  0.34215  1.0000
  C   C9        1.0  0.45267  0.55500  0.97479  1.0000
  C   C10       1.0  0.54732  0.94499  0.47480  1.0000
  C   C11       1.0  0.54736  0.44499  0.02520  1.0000
  C   C12       1.0  0.45264  0.05501  0.52521  1.0000
  O   O1        1.0  0.58569  0.12508  0.09343  1.0000
  O   O2        1.0  0.41432  0.37493  0.59343  1.0000
  O   O3        1.0  0.41432  0.87492  0.90657  1.0000
  O   O4        1.0  0.58569  0.62509  0.40657  1.0000
  O   O5        1.0  0.84558  0.14648  0.95769  1.0000
  O   O6        1.0  0.15440  0.35352  0.45769  1.0000
  O   O7        1.0  0.15443  0.85351  0.04231  1.0000
  O   O8        1.0  0.84557  0.64648  0.54231  1.0000
  O   O9        1.0  0.75183  0.92844  0.05695  1.0000
  O   O10       1.0  0.24816  0.57156  0.55695  1.0000
  O   O11       1.0  0.24819  0.07156  0.94305  1.0000
  O   O12       1.0  0.75182  0.42844  0.44305  1.0000
  O   O13       1.0  0.87601  0.08226  0.24180  1.0000
  O   O14       1.0  0.12398  0.41775  0.74179  1.0000
  O   O15       1.0  0.12398  0.91775  0.75822  1.0000
  O   O16       1.0  0.87602  0.58226  0.25821  1.0000
  O   O17       1.0  0.08215  0.35010  0.08315  1.0000
  O   O18       1.0  0.91785  0.14990  0.58315  1.0000
  O   O19       1.0  0.91787  0.64990  0.91685  1.0000
  O   O20       1.0  0.08213  0.85011  0.41686  1.0000
  O   O21       1.0  0.96196  0.34146  0.23746  1.0000
  O   O22       1.0  0.03802  0.15856  0.73746  1.0000
  O   O23       1.0  0.03804  0.65855  0.76254  1.0000
  O   O24       1.0  0.96194  0.84146  0.26254  1.0000
  O   O25       1.0  0.30369  0.52008  0.92257  1.0000
  O   O26       1.0  0.69631  0.97991  0.42257  1.0000
  O   O27       1.0  0.69633  0.47991  0.07743  1.0000
  O   O28       1.0  0.30367  0.02009  0.57744  1.0000
  O   O29       1.0  0.53234  0.67463  0.99336  1.0000
  O   O30       1.0  0.46767  0.82537  0.49337  1.0000
  O   O31       1.0  0.46769  0.32536  0.00663  1.0000
  O   O32       1.0  0.53233  0.17463  0.50664  1.0000
  O   O33       1.0  0.84007  0.38792  0.88259  1.0000
  O   O34       1.0  0.15994  0.11208  0.38259  1.0000
  O   O35       1.0  0.15995  0.61208  0.11741  1.0000
  O   O36       1.0  0.84005  0.88792  0.61741  1.0000
  O   O37       1.0  0.47095  0.30211  0.78904  1.0000
  O   O38       1.0  0.52904  0.19788  0.28904  1.0000
  O   O39       1.0  0.52905  0.69788  0.21096  1.0000
  O   O40       1.0  0.47095  0.80211  0.71096  1.0000
