data_image0
_chemical_formula_structural       Sm4P4H28C12O40
_chemical_formula_sum              "Sm4 P4 H28 C12 O40"
_cell_length_a       6.8527
_cell_length_b       10.1665
_cell_length_c       13.2922
_cell_angle_alpha    90.0002
_cell_angle_beta     89.9999
_cell_angle_gamma    100.903

_space_group_name_H-M_alt    "P 1"
_space_group_IT_number       1

loop_
  _space_group_symop_operation_xyz
  'x, y, z'

loop_
  _atom_site_type_symbol
  _atom_site_label
  _atom_site_symmetry_multiplicity
  _atom_site_fract_x
  _atom_site_fract_y
  _atom_site_fract_z
  _atom_site_occupancy
  Sm  Sm1       1.0  0.15773  0.27916  0.89808  1.0000
  Sm  Sm2       1.0  0.84229  0.22084  0.39808  1.0000
  Sm  Sm3       1.0  0.84229  0.72085  0.10192  1.0000
  Sm  Sm4       1.0  0.15771  0.77915  0.60192  1.0000
  P   P1        1.0  0.78059  0.07165  0.05390  1.0000
  P   P2        1.0  0.21941  0.42835  0.55391  1.0000
  P   P3        1.0  0.21941  0.92835  0.94610  1.0000
  P   P4        1.0  0.78058  0.57165  0.44609  1.0000
  H   H1        1.0  0.54204  0.19623  0.05477  1.0000
  H   H2        1.0  0.45796  0.30377  0.55477  1.0000
  H   H3        1.0  0.45797  0.80378  0.94523  1.0000
  H   H4        1.0  0.54203  0.69622  0.44523  1.0000
  H   H5        1.0  0.90290  0.98808  0.25750  1.0000
  H   H6        1.0  0.09712  0.51191  0.75750  1.0000
  H   H7        1.0  0.09710  0.01191  0.74249  1.0000
  H   H8        1.0  0.90288  0.48809  0.24250  1.0000
  H   H9        1.0  0.79672  0.35000  0.95630  1.0000
  H   H10       1.0  0.20327  0.14999  0.45631  1.0000
  H   H11       1.0  0.20327  0.65000  0.04370  1.0000
  H   H12       1.0  0.79674  0.85001  0.54369  1.0000
  H   H13       1.0  0.87950  0.48791  0.90141  1.0000
  H   H14       1.0  0.12050  0.01210  0.40141  1.0000
  H   H15       1.0  0.12049  0.51210  0.09859  1.0000
  H   H16       1.0  0.87951  0.98790  0.59859  1.0000
  H   H17       1.0  0.60206  0.32482  0.82007  1.0000
  H   H18       1.0  0.39794  0.17517  0.32007  1.0000
  H   H19       1.0  0.39794  0.67518  0.17993  1.0000
  H   H20       1.0  0.60206  0.82482  0.67992  1.0000
  H   H21       1.0  0.46258  0.34332  0.72685  1.0000
  H   H22       1.0  0.53742  0.15667  0.22686  1.0000
  H   H23       1.0  0.53742  0.65668  0.27314  1.0000
  H   H24       1.0  0.46258  0.84332  0.77314  1.0000
  H   H25       1.0  0.09838  0.09576  0.13820  1.0000
  H   H26       1.0  0.90163  0.40424  0.63822  1.0000
  H   H27       1.0  0.90162  0.90424  0.86179  1.0000
  H   H28       1.0  0.09838  0.59575  0.36179  1.0000
  C   C1        1.0  0.96063  0.13298  0.15517  1.0000
  C   C2        1.0  0.03936  0.36702  0.65518  1.0000
  C   C3        1.0  0.03935  0.86702  0.84482  1.0000
  C   C4        1.0  0.96064  0.63299  0.34483  1.0000
  C   C5        1.0  0.00593  0.28441  0.15988  1.0000
  C   C6        1.0  0.99406  0.21559  0.65988  1.0000
  C   C7        1.0  0.99403  0.71559  0.84012  1.0000
  C   C8        1.0  0.00595  0.78440  0.34012  1.0000
  C   C9        1.0  0.45427  0.55492  0.97370  1.0000
  C   C10       1.0  0.54577  0.94509  0.47370  1.0000
  C   C11       1.0  0.54578  0.44511  0.02631  1.0000
  C   C12       1.0  0.45424  0.05491  0.52631  1.0000
  O   O1        1.0  0.58409  0.11947  0.09245  1.0000
  O   O2        1.0  0.41590  0.38053  0.59246  1.0000
  O   O3        1.0  0.41590  0.88054  0.90754  1.0000
  O   O4        1.0  0.58409  0.61946  0.40754  1.0000
  O   O5        1.0  0.85293  0.13818  0.95535  1.0000
  O   O6        1.0  0.14707  0.36182  0.45536  1.0000
  O   O7        1.0  0.14707  0.86183  0.04464  1.0000
  O   O8        1.0  0.85292  0.63818  0.54464  1.0000
  O   O9        1.0  0.74706  0.92071  0.05986  1.0000
  O   O10       1.0  0.25295  0.57930  0.55986  1.0000
  O   O11       1.0  0.25294  0.07931  0.94013  1.0000
  O   O12       1.0  0.74704  0.42070  0.44014  1.0000
  O   O13       1.0  0.87332  0.08028  0.24718  1.0000
  O   O14       1.0  0.12668  0.41971  0.74718  1.0000
  O   O15       1.0  0.12666  0.91971  0.75282  1.0000
  O   O16       1.0  0.87331  0.58029  0.25281  1.0000
  O   O17       1.0  0.07881  0.34839  0.08223  1.0000
  O   O18       1.0  0.92120  0.15162  0.58222  1.0000
  O   O19       1.0  0.92120  0.65162  0.91778  1.0000
  O   O20       1.0  0.07882  0.84838  0.41777  1.0000
  O   O21       1.0  0.96293  0.33916  0.24136  1.0000
  O   O22       1.0  0.03709  0.16083  0.74135  1.0000
  O   O23       1.0  0.03706  0.66082  0.75864  1.0000
  O   O24       1.0  0.96292  0.83918  0.25865  1.0000
  O   O25       1.0  0.30054  0.51851  0.92138  1.0000
  O   O26       1.0  0.69947  0.98149  0.42140  1.0000
  O   O27       1.0  0.69945  0.48149  0.07861  1.0000
  O   O28       1.0  0.30053  0.01851  0.57861  1.0000
  O   O29       1.0  0.53950  0.67537  0.99081  1.0000
  O   O30       1.0  0.46053  0.82462  0.49082  1.0000
  O   O31       1.0  0.46051  0.32463  0.00919  1.0000
  O   O32       1.0  0.53949  0.17537  0.50919  1.0000
  O   O33       1.0  0.85320  0.38734  0.89271  1.0000
  O   O34       1.0  0.14680  0.11266  0.39272  1.0000
  O   O35       1.0  0.14680  0.61266  0.10728  1.0000
  O   O36       1.0  0.85320  0.88734  0.60728  1.0000
  O   O37       1.0  0.46572  0.30159  0.79366  1.0000
  O   O38       1.0  0.53427  0.19841  0.29366  1.0000
  O   O39       1.0  0.53427  0.69841  0.20634  1.0000
  O   O40       1.0  0.46573  0.80158  0.70634  1.0000
