data_image0
_chemical_formula_structural       Pr4P4H28C12O40
_chemical_formula_sum              "Pr4 P4 H28 C12 O40"
_cell_length_a       6.91357
_cell_length_b       10.2024
_cell_length_c       13.4733
_cell_angle_alpha    89.9999
_cell_angle_beta     90.0001
_cell_angle_gamma    100.362

_space_group_name_H-M_alt    "P 1"
_space_group_IT_number       1

loop_
  _space_group_symop_operation_xyz
  'x, y, z'

loop_
  _atom_site_type_symbol
  _atom_site_label
  _atom_site_symmetry_multiplicity
  _atom_site_fract_x
  _atom_site_fract_y
  _atom_site_fract_z
  _atom_site_occupancy
  Pr  Pr1       1.0  0.15859  0.27900  0.89674  1.0000
  Pr  Pr2       1.0  0.84140  0.22100  0.39674  1.0000
  Pr  Pr3       1.0  0.84141  0.72100  0.10326  1.0000
  Pr  Pr4       1.0  0.15859  0.77900  0.60326  1.0000
  P   P1        1.0  0.77946  0.07554  0.05332  1.0000
  P   P2        1.0  0.22053  0.42446  0.55332  1.0000
  P   P3        1.0  0.22053  0.92445  0.94668  1.0000
  P   P4        1.0  0.77947  0.57555  0.44668  1.0000
  H   H1        1.0  0.54313  0.19908  0.05522  1.0000
  H   H2        1.0  0.45686  0.30092  0.55522  1.0000
  H   H3        1.0  0.45686  0.80092  0.94478  1.0000
  H   H4        1.0  0.54314  0.69908  0.44478  1.0000
  H   H5        1.0  0.90717  0.99023  0.25433  1.0000
  H   H6        1.0  0.09283  0.50977  0.75433  1.0000
  H   H7        1.0  0.09283  0.00977  0.74567  1.0000
  H   H8        1.0  0.90718  0.49023  0.24567  1.0000
  H   H9        1.0  0.78525  0.34173  0.94486  1.0000
  H   H10       1.0  0.21475  0.15827  0.44486  1.0000
  H   H11       1.0  0.21474  0.65827  0.05514  1.0000
  H   H12       1.0  0.78525  0.84172  0.55514  1.0000
  H   H13       1.0  0.87073  0.48617  0.89962  1.0000
  H   H14       1.0  0.12927  0.01383  0.39962  1.0000
  H   H15       1.0  0.12926  0.51383  0.10038  1.0000
  H   H16       1.0  0.87073  0.98617  0.60037  1.0000
  H   H17       1.0  0.60352  0.32892  0.81421  1.0000
  H   H18       1.0  0.39648  0.17108  0.31422  1.0000
  H   H19       1.0  0.39647  0.67106  0.18578  1.0000
  H   H20       1.0  0.60353  0.82893  0.68578  1.0000
  H   H21       1.0  0.46008  0.34076  0.72335  1.0000
  H   H22       1.0  0.53991  0.15925  0.22336  1.0000
  H   H23       1.0  0.53991  0.65923  0.27664  1.0000
  H   H24       1.0  0.46009  0.84077  0.77665  1.0000
  H   H25       1.0  0.09565  0.09763  0.13463  1.0000
  H   H26       1.0  0.90434  0.40236  0.63462  1.0000
  H   H27       1.0  0.90434  0.90236  0.86537  1.0000
  H   H28       1.0  0.09566  0.59764  0.36538  1.0000
  C   C1        1.0  0.95947  0.13503  0.15264  1.0000
  C   C2        1.0  0.04053  0.36497  0.65263  1.0000
  C   C3        1.0  0.04052  0.86497  0.84737  1.0000
  C   C4        1.0  0.95948  0.63503  0.34737  1.0000
  C   C5        1.0  0.00549  0.28599  0.15805  1.0000
  C   C6        1.0  0.99450  0.21401  0.65804  1.0000
  C   C7        1.0  0.99450  0.71400  0.84196  1.0000
  C   C8        1.0  0.00550  0.78600  0.34195  1.0000
  C   C9        1.0  0.45281  0.55505  0.97484  1.0000
  C   C10       1.0  0.54719  0.94494  0.47484  1.0000
  C   C11       1.0  0.54719  0.44495  0.02516  1.0000
  C   C12       1.0  0.45283  0.05506  0.52515  1.0000
  O   O1        1.0  0.58453  0.12234  0.09272  1.0000
  O   O2        1.0  0.41546  0.37766  0.59272  1.0000
  O   O3        1.0  0.41546  0.87766  0.90728  1.0000
  O   O4        1.0  0.58454  0.62234  0.40728  1.0000
  O   O5        1.0  0.84679  0.14279  0.95592  1.0000
  O   O6        1.0  0.15321  0.35722  0.45592  1.0000
  O   O7        1.0  0.15320  0.85721  0.04408  1.0000
  O   O8        1.0  0.84680  0.64280  0.54408  1.0000
  O   O9        1.0  0.74955  0.92535  0.05774  1.0000
  O   O10       1.0  0.25045  0.57465  0.55774  1.0000
  O   O11       1.0  0.25044  0.07466  0.94227  1.0000
  O   O12       1.0  0.74955  0.42535  0.44227  1.0000
  O   O13       1.0  0.87426  0.08119  0.24326  1.0000
  O   O14       1.0  0.12573  0.41881  0.74326  1.0000
  O   O15       1.0  0.12574  0.91881  0.75675  1.0000
  O   O16       1.0  0.87427  0.58119  0.25674  1.0000
  O   O17       1.0  0.08105  0.34933  0.08213  1.0000
  O   O18       1.0  0.91896  0.15067  0.58213  1.0000
  O   O19       1.0  0.91895  0.65067  0.91787  1.0000
  O   O20       1.0  0.08106  0.84933  0.41787  1.0000
  O   O21       1.0  0.96177  0.34053  0.23833  1.0000
  O   O22       1.0  0.03824  0.15947  0.73833  1.0000
  O   O23       1.0  0.03824  0.65947  0.76168  1.0000
  O   O24       1.0  0.96177  0.84054  0.26168  1.0000
  O   O25       1.0  0.30191  0.51990  0.92256  1.0000
  O   O26       1.0  0.69809  0.98010  0.42256  1.0000
  O   O27       1.0  0.69809  0.48010  0.07744  1.0000
  O   O28       1.0  0.30189  0.01989  0.57745  1.0000
  O   O29       1.0  0.53396  0.67486  0.99359  1.0000
  O   O30       1.0  0.46605  0.82515  0.49359  1.0000
  O   O31       1.0  0.46605  0.32516  0.00641  1.0000
  O   O32       1.0  0.53395  0.17485  0.50641  1.0000
  O   O33       1.0  0.84610  0.38737  0.88585  1.0000
  O   O34       1.0  0.15390  0.11263  0.38585  1.0000
  O   O35       1.0  0.15390  0.61262  0.11415  1.0000
  O   O36       1.0  0.84610  0.88738  0.61415  1.0000
  O   O37       1.0  0.46815  0.30120  0.78975  1.0000
  O   O38       1.0  0.53185  0.19881  0.28975  1.0000
  O   O39       1.0  0.53185  0.69879  0.21025  1.0000
  O   O40       1.0  0.46815  0.80121  0.71025  1.0000
