data_image0
_chemical_formula_structural       Nd4P4H28C12O40
_chemical_formula_sum              "Nd4 P4 H28 C12 O40"
_cell_length_a       6.90512
_cell_length_b       10.1921
_cell_length_c       13.3858
_cell_angle_alpha    89.9997
_cell_angle_beta     89.9998
_cell_angle_gamma    100.508

_space_group_name_H-M_alt    "P 1"
_space_group_IT_number       1

loop_
  _space_group_symop_operation_xyz
  'x, y, z'

loop_
  _atom_site_type_symbol
  _atom_site_label
  _atom_site_symmetry_multiplicity
  _atom_site_fract_x
  _atom_site_fract_y
  _atom_site_fract_z
  _atom_site_occupancy
  Nd  Nd1       1.0  0.15855  0.27930  0.89765  1.0000
  Nd  Nd2       1.0  0.84145  0.22070  0.39765  1.0000
  Nd  Nd3       1.0  0.84145  0.72070  0.10235  1.0000
  Nd  Nd4       1.0  0.15854  0.77930  0.60235  1.0000
  P   P1        1.0  0.77984  0.07375  0.05315  1.0000
  P   P2        1.0  0.22016  0.42625  0.55314  1.0000
  P   P3        1.0  0.22017  0.92625  0.94686  1.0000
  P   P4        1.0  0.77983  0.57375  0.44685  1.0000
  H   H1        1.0  0.54322  0.19762  0.05456  1.0000
  H   H2        1.0  0.45679  0.30238  0.55455  1.0000
  H   H3        1.0  0.45679  0.80238  0.94544  1.0000
  H   H4        1.0  0.54322  0.69762  0.44544  1.0000
  H   H5        1.0  0.90308  0.98853  0.25558  1.0000
  H   H6        1.0  0.09692  0.51146  0.75558  1.0000
  H   H7        1.0  0.09692  0.01146  0.74442  1.0000
  H   H8        1.0  0.90308  0.48854  0.24442  1.0000
  H   H9        1.0  0.79079  0.34642  0.94946  1.0000
  H   H10       1.0  0.20920  0.15357  0.44947  1.0000
  H   H11       1.0  0.20921  0.65358  0.05054  1.0000
  H   H12       1.0  0.79079  0.84643  0.55053  1.0000
  H   H13       1.0  0.87550  0.48740  0.89961  1.0000
  H   H14       1.0  0.12449  0.01260  0.39961  1.0000
  H   H15       1.0  0.12449  0.51259  0.10039  1.0000
  H   H16       1.0  0.87550  0.98740  0.60039  1.0000
  H   H17       1.0  0.60218  0.32646  0.81616  1.0000
  H   H18       1.0  0.39783  0.17355  0.31617  1.0000
  H   H19       1.0  0.39782  0.67355  0.18384  1.0000
  H   H20       1.0  0.60217  0.82645  0.68384  1.0000
  H   H21       1.0  0.46027  0.34130  0.72450  1.0000
  H   H22       1.0  0.53973  0.15870  0.22451  1.0000
  H   H23       1.0  0.53973  0.65870  0.27549  1.0000
  H   H24       1.0  0.46027  0.84130  0.77550  1.0000
  H   H25       1.0  0.09522  0.09593  0.13625  1.0000
  H   H26       1.0  0.90478  0.40407  0.63625  1.0000
  H   H27       1.0  0.90478  0.90408  0.86376  1.0000
  H   H28       1.0  0.09522  0.59593  0.36375  1.0000
  C   C1        1.0  0.95882  0.13349  0.15372  1.0000
  C   C2        1.0  0.04118  0.36651  0.65372  1.0000
  C   C3        1.0  0.04118  0.86651  0.84628  1.0000
  C   C4        1.0  0.95881  0.63349  0.34628  1.0000
  C   C5        1.0  0.00444  0.28449  0.15887  1.0000
  C   C6        1.0  0.99555  0.21551  0.65886  1.0000
  C   C7        1.0  0.99556  0.71551  0.84114  1.0000
  C   C8        1.0  0.00444  0.78449  0.34113  1.0000
  C   C9        1.0  0.45305  0.55506  0.97468  1.0000
  C   C10       1.0  0.54697  0.94495  0.47468  1.0000
  C   C11       1.0  0.54696  0.44495  0.02532  1.0000
  C   C12       1.0  0.45306  0.05506  0.52532  1.0000
  O   O1        1.0  0.58475  0.12100  0.09223  1.0000
  O   O2        1.0  0.41525  0.37901  0.59223  1.0000
  O   O3        1.0  0.41526  0.87901  0.90777  1.0000
  O   O4        1.0  0.58475  0.62100  0.40777  1.0000
  O   O5        1.0  0.84958  0.14082  0.95535  1.0000
  O   O6        1.0  0.15042  0.35918  0.45535  1.0000
  O   O7        1.0  0.15043  0.85918  0.04465  1.0000
  O   O8        1.0  0.84958  0.64082  0.54465  1.0000
  O   O9        1.0  0.74859  0.92334  0.05801  1.0000
  O   O10       1.0  0.25141  0.57666  0.55802  1.0000
  O   O11       1.0  0.25142  0.07666  0.94199  1.0000
  O   O12       1.0  0.74859  0.42334  0.44199  1.0000
  O   O13       1.0  0.87210  0.08015  0.24483  1.0000
  O   O14       1.0  0.12790  0.41985  0.74482  1.0000
  O   O15       1.0  0.12790  0.91985  0.75518  1.0000
  O   O16       1.0  0.87210  0.58015  0.25518  1.0000
  O   O17       1.0  0.07984  0.34806  0.08242  1.0000
  O   O18       1.0  0.92016  0.15193  0.58242  1.0000
  O   O19       1.0  0.92016  0.65194  0.91758  1.0000
  O   O20       1.0  0.07984  0.84806  0.41758  1.0000
  O   O21       1.0  0.95998  0.33920  0.23946  1.0000
  O   O22       1.0  0.04002  0.16080  0.73946  1.0000
  O   O23       1.0  0.04002  0.66080  0.76054  1.0000
  O   O24       1.0  0.95998  0.83920  0.26054  1.0000
  O   O25       1.0  0.30060  0.51955  0.92288  1.0000
  O   O26       1.0  0.69939  0.98045  0.42289  1.0000
  O   O27       1.0  0.69940  0.48045  0.07711  1.0000
  O   O28       1.0  0.30060  0.01955  0.57712  1.0000
  O   O29       1.0  0.53555  0.67499  0.99281  1.0000
  O   O30       1.0  0.46445  0.82501  0.49282  1.0000
  O   O31       1.0  0.46446  0.32501  0.00718  1.0000
  O   O32       1.0  0.53555  0.17499  0.50718  1.0000
  O   O33       1.0  0.84993  0.38790  0.88825  1.0000
  O   O34       1.0  0.15007  0.11210  0.38826  1.0000
  O   O35       1.0  0.15007  0.61210  0.11174  1.0000
  O   O36       1.0  0.84993  0.88790  0.61175  1.0000
  O   O37       1.0  0.46658  0.30087  0.79113  1.0000
  O   O38       1.0  0.53342  0.19912  0.29114  1.0000
  O   O39       1.0  0.53342  0.69913  0.20886  1.0000
  O   O40       1.0  0.46658  0.80087  0.70886  1.0000
