data_image0
_chemical_formula_structural       Sr2H16C4N16O12
_chemical_formula_sum              "Sr2 H16 C4 N16 O12"
_cell_length_a       5.61524
_cell_length_b       6.6371
_cell_length_c       15.1986
_cell_angle_alpha    81.8795
_cell_angle_beta     79.3537
_cell_angle_gamma    64.9679

_space_group_name_H-M_alt    "P 1"
_space_group_IT_number       1

loop_
  _space_group_symop_operation_xyz
  'x, y, z'

loop_
  _atom_site_type_symbol
  _atom_site_label
  _atom_site_symmetry_multiplicity
  _atom_site_fract_x
  _atom_site_fract_y
  _atom_site_fract_z
  _atom_site_occupancy
  Sr  Sr1       1.0  0.97658  0.24998  0.75001  1.0000
  Sr  Sr2       1.0  0.02342  0.75003  0.24999  1.0000
  H   H1        1.0  0.20675  0.42794  0.88535  1.0000
  H   H2        1.0  0.52022  0.07208  0.61463  1.0000
  H   H3        1.0  0.79324  0.57205  0.11465  1.0000
  H   H4        1.0  0.47979  0.92792  0.38537  1.0000
  H   H5        1.0  0.65500  0.94107  0.78262  1.0000
  H   H6        1.0  0.37848  0.55897  0.71739  1.0000
  H   H7        1.0  0.34500  0.05893  0.21738  1.0000
  H   H8        1.0  0.62152  0.44103  0.28261  1.0000
  H   H9        1.0  0.89411  0.57811  0.89522  1.0000
  H   H10       1.0  0.36757  0.92190  0.60481  1.0000
  H   H11       1.0  0.10589  0.42189  0.10478  1.0000
  H   H12       1.0  0.63243  0.07810  0.39519  1.0000
  H   H13       1.0  0.91074  0.80799  0.71757  1.0000
  H   H14       1.0  0.43628  0.69198  0.78243  1.0000
  H   H15       1.0  0.08925  0.19201  0.28242  1.0000
  H   H16       1.0  0.56372  0.30803  0.21757  1.0000
  C   C1        1.0  0.13761  0.92937  0.00208  1.0000
  C   C2        1.0  0.06916  0.57049  0.49793  1.0000
  C   C3        1.0  0.86239  0.07063  0.99792  1.0000
  C   C4        1.0  0.93084  0.42951  0.50207  1.0000
  N   N1        1.0  0.33614  0.87940  0.93039  1.0000
  N   N2        1.0  0.14600  0.62044  0.56964  1.0000
  N   N3        1.0  0.66386  0.12060  0.06961  1.0000
  N   N4        1.0  0.85400  0.37956  0.43036  1.0000
  N   N5        1.0  0.56606  0.74587  0.96185  1.0000
  N   N6        1.0  0.27372  0.75407  0.53820  1.0000
  N   N7        1.0  0.43393  0.25412  0.03815  1.0000
  N   N8        1.0  0.72628  0.24594  0.46180  1.0000
  N   N9        1.0  0.50860  0.71466  0.04913  1.0000
  N   N10       1.0  0.27233  0.78531  0.45091  1.0000
  N   N11       1.0  0.49140  0.28533  0.95087  1.0000
  N   N12       1.0  0.72766  0.21469  0.54909  1.0000
  N   N13       1.0  0.24901  0.82420  0.07611  1.0000
  N   N14       1.0  0.14934  0.67575  0.42390  1.0000
  N   N15       1.0  0.75100  0.17579  0.92390  1.0000
  N   N16       1.0  0.85065  0.32425  0.57610  1.0000
  O   O1        1.0  0.32988  0.93809  0.84488  1.0000
  O   O2        1.0  0.11299  0.56157  0.65514  1.0000
  O   O3        1.0  0.67012  0.06191  0.15512  1.0000
  O   O4        1.0  0.88701  0.43842  0.34486  1.0000
  O   O5        1.0  0.04586  0.47776  0.85595  1.0000
  O   O6        1.0  0.37988  0.02214  0.64408  1.0000
  O   O7        1.0  0.95414  0.52224  0.14405  1.0000
  O   O8        1.0  0.62012  0.97786  0.35592  1.0000
  O   O9        1.0  0.81790  0.94843  0.74790  1.0000
  O   O10       1.0  0.51401  0.55148  0.75214  1.0000
  O   O11       1.0  0.18210  0.05157  0.25209  1.0000
  O   O12       1.0  0.48598  0.44853  0.24786  1.0000
