data_image0
_chemical_formula_structural       Li2H8C2N8O6
_chemical_formula_sum              "Li2 H8 C2 N8 O6"
_cell_length_a       5.21338
_cell_length_b       6.43861
_cell_length_c       8.21317
_cell_angle_alpha    106.049
_cell_angle_beta     99.037
_cell_angle_gamma    111.768

_space_group_name_H-M_alt    "P 1"
_space_group_IT_number       1

loop_
  _space_group_symop_operation_xyz
  'x, y, z'

loop_
  _atom_site_type_symbol
  _atom_site_label
  _atom_site_symmetry_multiplicity
  _atom_site_fract_x
  _atom_site_fract_y
  _atom_site_fract_z
  _atom_site_occupancy
  Li  Li1       1.0  0.66383  0.86370  0.91021  1.0000
  Li  Li2       1.0  0.33618  0.13631  0.08979  1.0000
  H   H1        1.0  0.12381  0.97126  0.73695  1.0000
  H   H2        1.0  0.87619  0.02874  0.26304  1.0000
  H   H3        1.0  0.99423  0.15106  0.78667  1.0000
  H   H4        1.0  0.00577  0.84893  0.21332  1.0000
  H   H5        1.0  0.32422  0.67183  0.07297  1.0000
  H   H6        1.0  0.67579  0.32816  0.92702  1.0000
  H   H7        1.0  0.10965  0.68667  0.92688  1.0000
  H   H8        1.0  0.89035  0.31333  0.07312  1.0000
  C   C1        1.0  0.42900  0.57514  0.49658  1.0000
  C   C2        1.0  0.57100  0.42483  0.50340  1.0000
  N   N1        1.0  0.40164  0.72815  0.63363  1.0000
  N   N2        1.0  0.59835  0.27183  0.36634  1.0000
  N   N3        1.0  0.24432  0.82311  0.56361  1.0000
  N   N4        1.0  0.75567  0.17687  0.43636  1.0000
  N   N5        1.0  0.17342  0.73774  0.38924  1.0000
  N   N6        1.0  0.82656  0.26224  0.61073  1.0000
  N   N7        1.0  0.29029  0.58257  0.34485  1.0000
  N   N8        1.0  0.70970  0.41747  0.65519  1.0000
  O   O1        1.0  0.26433  0.46589  0.18072  1.0000
  O   O2        1.0  0.73568  0.53417  0.81937  1.0000
  O   O3        1.0  0.06100  0.04977  0.83460  1.0000
  O   O4        1.0  0.93900  0.95022  0.16539  1.0000
  O   O5        1.0  0.31303  0.77288  0.00266  1.0000
  O   O6        1.0  0.68697  0.22711  0.99734  1.0000
