data_image0
_chemical_formula_structural       Na2H8C2N8O6
_chemical_formula_sum              "Na2 H8 C2 N8 O6"
_cell_length_a       5.55107
_cell_length_b       6.5075
_cell_length_c       8.44065
_cell_angle_alpha    101.52
_cell_angle_beta     98.444
_cell_angle_gamma    111.675

_space_group_name_H-M_alt    "P 1"
_space_group_IT_number       1

loop_
  _space_group_symop_operation_xyz
  'x, y, z'

loop_
  _atom_site_type_symbol
  _atom_site_label
  _atom_site_symmetry_multiplicity
  _atom_site_fract_x
  _atom_site_fract_y
  _atom_site_fract_z
  _atom_site_occupancy
  Na  Na1       1.0  0.81922  0.64299  0.08574  1.0000
  Na  Na2       1.0  0.18078  0.35701  0.91426  1.0000
  H   H1        1.0  0.39659  0.83304  0.08539  1.0000
  H   H2        1.0  0.60341  0.16696  0.91461  1.0000
  H   H3        1.0  0.22428  0.84056  0.92347  1.0000
  H   H4        1.0  0.77572  0.15944  0.07653  1.0000
  H   H5        1.0  0.49495  0.34999  0.25189  1.0000
  H   H6        1.0  0.50505  0.65001  0.74812  1.0000
  H   H7        1.0  0.36516  0.52519  0.27940  1.0000
  H   H8        1.0  0.63484  0.47482  0.72060  1.0000
  C   C1        1.0  0.92783  0.07134  0.49761  1.0000
  C   C2        1.0  0.07215  0.92869  0.50240  1.0000
  N   N1        1.0  0.78169  0.08183  0.35647  1.0000
  N   N2        1.0  0.21832  0.91816  0.64350  1.0000
  N   N3        1.0  0.67175  0.23107  0.40224  1.0000
  N   N4        1.0  0.32825  0.76893  0.59778  1.0000
  N   N5        1.0  0.75101  0.30922  0.56591  1.0000
  N   N6        1.0  0.24898  0.69080  0.43411  1.0000
  N   N7        1.0  0.90795  0.21555  0.62811  1.0000
  N   N8        1.0  0.09207  0.78448  0.37192  1.0000
  O   O1        1.0  0.74299  0.97439  0.20079  1.0000
  O   O2        1.0  0.25699  0.02555  0.79916  1.0000
  O   O3        1.0  0.22298  0.74618  0.00272  1.0000
  O   O4        1.0  0.77701  0.25383  0.99728  1.0000
  O   O5        1.0  0.42532  0.44097  0.19360  1.0000
  O   O6        1.0  0.57468  0.55902  0.80641  1.0000
