data_image0
_chemical_formula_structural       Ca2H16C4N16O12
_chemical_formula_sum              "Ca2 H16 C4 N16 O12"
_cell_length_a       5.5779
_cell_length_b       6.4772
_cell_length_c       14.8195
_cell_angle_alpha    81.249
_cell_angle_beta     79.171
_cell_angle_gamma    64.4936

_space_group_name_H-M_alt    "P 1"
_space_group_IT_number       1

loop_
  _space_group_symop_operation_xyz
  'x, y, z'

loop_
  _atom_site_type_symbol
  _atom_site_label
  _atom_site_symmetry_multiplicity
  _atom_site_fract_x
  _atom_site_fract_y
  _atom_site_fract_z
  _atom_site_occupancy
  Ca  Ca1       1.0  0.52288  0.74987  0.75000  1.0000
  Ca  Ca2       1.0  0.47712  0.25013  0.25000  1.0000
  H   H1        1.0  0.99013  0.92121  0.87940  1.0000
  H   H2        1.0  0.29056  0.57873  0.62060  1.0000
  H   H3        1.0  0.00987  0.07879  0.12060  1.0000
  H   H4        1.0  0.70944  0.42128  0.37940  1.0000
  H   H5        1.0  0.04368  0.31082  0.71999  1.0000
  H   H6        1.0  0.57476  0.18887  0.77994  1.0000
  H   H7        1.0  0.95632  0.68919  0.28001  1.0000
  H   H8        1.0  0.42525  0.81114  0.22007  1.0000
  H   H9        1.0  0.10146  0.45720  0.78150  1.0000
  H   H10       1.0  0.84027  0.04264  0.71835  1.0000
  H   H11       1.0  0.89855  0.54280  0.21850  1.0000
  H   H12       1.0  0.15974  0.95737  0.28165  1.0000
  H   H13       1.0  0.14269  0.07285  0.89112  1.0000
  H   H14       1.0  0.60646  0.42712  0.60891  1.0000
  H   H15       1.0  0.85732  0.92715  0.10888  1.0000
  H   H16       1.0  0.39354  0.57288  0.39109  1.0000
  C   C1        1.0  0.42963  0.42867  0.00271  1.0000
  C   C2        1.0  0.36103  0.07135  0.49729  1.0000
  C   C3        1.0  0.57034  0.57132  0.99730  1.0000
  C   C4        1.0  0.63898  0.92865  0.50271  1.0000
  N   N1        1.0  0.22036  0.24457  0.96239  1.0000
  N   N2        1.0  0.92735  0.25533  0.53753  1.0000
  N   N3        1.0  0.77964  0.75542  0.03761  1.0000
  N   N4        1.0  0.07266  0.74467  0.46247  1.0000
  N   N5        1.0  0.35172  0.31863  0.07904  1.0000
  N   N6        1.0  0.24946  0.18152  0.42097  1.0000
  N   N7        1.0  0.64826  0.68136  0.92097  1.0000
  N   N8        1.0  0.75054  0.81848  0.57903  1.0000
  N   N9        1.0  0.22562  0.20893  0.05193  1.0000
  N   N10       1.0  0.98656  0.29115  0.44802  1.0000
  N   N11       1.0  0.77437  0.79105  0.94808  1.0000
  N   N12       1.0  0.01345  0.70885  0.55198  1.0000
  N   N13       1.0  0.34867  0.38157  0.92964  1.0000
  N   N14       1.0  0.15988  0.11829  0.57027  1.0000
  N   N15       1.0  0.65133  0.61843  0.07036  1.0000
  N   N16       1.0  0.84012  0.88171  0.42972  1.0000
  O   O1        1.0  0.96528  0.46055  0.74685  1.0000
  O   O2        1.0  0.67293  0.03918  0.75303  1.0000
  O   O3        1.0  0.03473  0.53945  0.25315  1.0000
  O   O4        1.0  0.32707  0.96082  0.24697  1.0000
  O   O5        1.0  0.37969  0.44464  0.84178  1.0000
  O   O6        1.0  0.16601  0.05510  0.65809  1.0000
  O   O7        1.0  0.62032  0.55537  0.15821  1.0000
  O   O8        1.0  0.83399  0.94490  0.34191  1.0000
  O   O9        1.0  0.13337  0.97135  0.84987  1.0000
  O   O10       1.0  0.45444  0.52848  0.65018  1.0000
  O   O11       1.0  0.86662  0.02865  0.15012  1.0000
  O   O12       1.0  0.54557  0.47153  0.34982  1.0000
