data_image0
_chemical_formula_structural       Sr2H60C48O26
_chemical_formula_sum              "Sr2 H60 C48 O26"
_cell_length_a       8.4615
_cell_length_b       8.44748
_cell_length_c       20.905
_cell_angle_alpha    90
_cell_angle_beta     90
_cell_angle_gamma    114.354

_space_group_name_H-M_alt    "P 1"
_space_group_IT_number       1

loop_
  _space_group_symop_operation_xyz
  'x, y, z'

loop_
  _atom_site_type_symbol
  _atom_site_label
  _atom_site_symmetry_multiplicity
  _atom_site_fract_x
  _atom_site_fract_y
  _atom_site_fract_z
  _atom_site_occupancy
  Sr  Sr1       1.0  0.02438  0.97496  0.74992  1.0000
  Sr  Sr2       1.0  0.97562  0.02504  0.24992  1.0000
  H   H1        1.0  0.45780  0.50300  0.69438  1.0000
  H   H2        1.0  0.54221  0.49700  0.19438  1.0000
  H   H3        1.0  0.50335  0.45825  0.30549  1.0000
  H   H4        1.0  0.49665  0.54175  0.80549  1.0000
  H   H5        1.0  0.97665  0.57307  0.68338  1.0000
  H   H6        1.0  0.02336  0.42693  0.18339  1.0000
  H   H7        1.0  0.57345  0.97606  0.31665  1.0000
  H   H8        1.0  0.42655  0.02394  0.81665  1.0000
  H   H9        1.0  0.70200  0.55102  0.63352  1.0000
  H   H10       1.0  0.29800  0.44898  0.13352  1.0000
  H   H11       1.0  0.55127  0.70110  0.36665  1.0000
  H   H12       1.0  0.44873  0.29890  0.86665  1.0000
  H   H13       1.0  0.66108  0.51315  0.51560  1.0000
  H   H14       1.0  0.33892  0.48685  0.01560  1.0000
  H   H15       1.0  0.51320  0.66037  0.48457  1.0000
  H   H16       1.0  0.48679  0.33963  0.98457  1.0000
  H   H17       1.0  0.89880  0.51045  0.44705  1.0000
  H   H18       1.0  0.10119  0.48955  0.94705  1.0000
  H   H19       1.0  0.51029  0.89859  0.55300  1.0000
  H   H20       1.0  0.48970  0.10140  0.05300  1.0000
  H   H21       1.0  0.17765  0.53577  0.49758  1.0000
  H   H22       1.0  0.82235  0.46423  0.99758  1.0000
  H   H23       1.0  0.53548  0.17765  0.50236  1.0000
  H   H24       1.0  0.46452  0.82234  0.00236  1.0000
  H   H25       1.0  0.88934  0.26617  0.76998  1.0000
  H   H26       1.0  0.11066  0.73383  0.26998  1.0000
  H   H27       1.0  0.26600  0.88903  0.23004  1.0000
  H   H28       1.0  0.73400  0.11097  0.73004  1.0000
  H   H29       1.0  0.06510  0.61789  0.80694  1.0000
  H   H30       1.0  0.93490  0.38211  0.30694  1.0000
  H   H31       1.0  0.61842  0.06524  0.19321  1.0000
  H   H32       1.0  0.38158  0.93476  0.69321  1.0000
  H   H33       1.0  0.88054  0.53268  0.88120  1.0000
  H   H34       1.0  0.11946  0.46732  0.38120  1.0000
  H   H35       1.0  0.53343  0.88081  0.11884  1.0000
  H   H36       1.0  0.46657  0.11919  0.61884  1.0000
  H   H37       1.0  0.75419  0.61442  0.83466  1.0000
  H   H38       1.0  0.24581  0.38558  0.33466  1.0000
  H   H39       1.0  0.61498  0.75416  0.16535  1.0000
  H   H40       1.0  0.38502  0.24583  0.66535  1.0000
  H   H41       1.0  0.80902  0.74879  0.94167  1.0000
  H   H42       1.0  0.19098  0.25121  0.44167  1.0000
  H   H43       1.0  0.74915  0.80896  0.05835  1.0000
  H   H44       1.0  0.25085  0.19103  0.55835  1.0000
  H   H45       1.0  0.03987  0.82689  0.92986  1.0000
  H   H46       1.0  0.96013  0.17311  0.42985  1.0000
  H   H47       1.0  0.82717  0.04021  0.07012  1.0000
  H   H48       1.0  0.17282  0.95979  0.57012  1.0000
  H   H49       1.0  0.94016  0.18890  0.88295  1.0000
  H   H50       1.0  0.05984  0.81110  0.38295  1.0000
  H   H51       1.0  0.18859  0.94011  0.11697  1.0000
  H   H52       1.0  0.81141  0.05989  0.61696  1.0000
  H   H53       1.0  0.06709  0.12623  0.93769  1.0000
  H   H54       1.0  0.93291  0.87378  0.43769  1.0000
  H   H55       1.0  0.12609  0.06738  0.06224  1.0000
  H   H56       1.0  0.87391  0.93262  0.56224  1.0000
  H   H57       1.0  0.83614  0.04725  0.94874  1.0000
  H   H58       1.0  0.16386  0.95275  0.44874  1.0000
  H   H59       1.0  0.04697  0.83602  0.05122  1.0000
  H   H60       1.0  0.95303  0.16398  0.55122  1.0000
  C   C1        1.0  0.58510  0.78063  0.70419  1.0000
  C   C2        1.0  0.41490  0.21937  0.20419  1.0000
  C   C3        1.0  0.78061  0.58546  0.29578  1.0000
  C   C4        1.0  0.21939  0.41454  0.79578  1.0000
  C   C5        1.0  0.42707  0.60704  0.71433  1.0000
  C   C6        1.0  0.57294  0.39296  0.21433  1.0000
  C   C7        1.0  0.60721  0.42733  0.28561  1.0000
  C   C8        1.0  0.39279  0.57268  0.78561  1.0000
  C   C9        1.0  0.25792  0.56366  0.62065  1.0000
  C   C10       1.0  0.74208  0.43634  0.12066  1.0000
  C   C11       1.0  0.56386  0.25800  0.37932  1.0000
  C   C12       1.0  0.43613  0.74200  0.87932  1.0000
  C   C13       1.0  0.09312  0.55440  0.59319  1.0000
  C   C14       1.0  0.90689  0.44560  0.09320  1.0000
  C   C15       1.0  0.55444  0.09290  0.40679  1.0000
  C   C16       1.0  0.44556  0.90710  0.90679  1.0000
  C   C17       1.0  0.95940  0.55936  0.63173  1.0000
  C   C18       1.0  0.04061  0.44064  0.13174  1.0000
  C   C19       1.0  0.55954  0.95893  0.36830  1.0000
  C   C20       1.0  0.44046  0.04107  0.86830  1.0000
  C   C21       1.0  0.80470  0.54505  0.60366  1.0000
  C   C22       1.0  0.19531  0.45495  0.10366  1.0000
  C   C23       1.0  0.54518  0.80402  0.39644  1.0000
  C   C24       1.0  0.45482  0.19598  0.89644  1.0000
  C   C25       1.0  0.78277  0.52636  0.53743  1.0000
  C   C26       1.0  0.21723  0.47365  0.03743  1.0000
  C   C27       1.0  0.52636  0.78217  0.46268  1.0000
  C   C28       1.0  0.47363  0.21783  0.96268  1.0000
  C   C29       1.0  0.91646  0.52335  0.49877  1.0000
  C   C30       1.0  0.08354  0.47665  0.99878  1.0000
  C   C31       1.0  0.52318  0.91611  0.50127  1.0000
  C   C32       1.0  0.47681  0.08388  0.00127  1.0000
  C   C33       1.0  0.07122  0.53726  0.52657  1.0000
  C   C34       1.0  0.92878  0.46274  0.02657  1.0000
  C   C35       1.0  0.53707  0.07104  0.47341  1.0000
  C   C36       1.0  0.46292  0.92896  0.97341  1.0000
  C   C37       1.0  0.35035  0.11788  0.64282  1.0000
  C   C38       1.0  0.64965  0.88211  0.14282  1.0000
  C   C39       1.0  0.11809  0.35094  0.35719  1.0000
  C   C40       1.0  0.88191  0.64906  0.85720  1.0000
  C   C41       1.0  0.20790  0.08606  0.59441  1.0000
  C   C42       1.0  0.79210  0.91394  0.09441  1.0000
  C   C43       1.0  0.08621  0.20821  0.40558  1.0000
  C   C44       1.0  0.91379  0.79179  0.90558  1.0000
  C   C45       1.0  0.94101  0.08327  0.91304  1.0000
  C   C46       1.0  0.05898  0.91673  0.41304  1.0000
  C   C47       1.0  0.08312  0.94111  0.08691  1.0000
  C   C48       1.0  0.91688  0.05889  0.58691  1.0000
  O   O1        1.0  0.72850  0.77444  0.71621  1.0000
  O   O2        1.0  0.27150  0.22557  0.21621  1.0000
  O   O3        1.0  0.77467  0.72912  0.28362  1.0000
  O   O4        1.0  0.22533  0.27089  0.78362  1.0000
  O   O5        1.0  0.56110  0.91332  0.68719  1.0000
  O   O6        1.0  0.43890  0.08668  0.18719  1.0000
  O   O7        1.0  0.91289  0.56132  0.31298  1.0000
  O   O8        1.0  0.08711  0.43868  0.81298  1.0000
  O   O9        1.0  0.27189  0.60191  0.68431  1.0000
  O   O10       1.0  0.72812  0.39808  0.18432  1.0000
  O   O11       1.0  0.60187  0.27184  0.31565  1.0000
  O   O12       1.0  0.39813  0.72816  0.81565  1.0000
  O   O13       1.0  0.37073  0.53927  0.59065  1.0000
  O   O14       1.0  0.62928  0.46075  0.09066  1.0000
  O   O15       1.0  0.53983  0.37115  0.40934  1.0000
  O   O16       1.0  0.46016  0.62885  0.90934  1.0000
  O   O17       1.0  0.84901  0.15149  0.74981  1.0000
  O   O18       1.0  0.15099  0.84851  0.24981  1.0000
  O   O19       1.0  0.29295  0.98584  0.69115  1.0000
  O   O20       1.0  0.70705  0.01416  0.19115  1.0000
  O   O21       1.0  0.98628  0.29360  0.30885  1.0000
  O   O22       1.0  0.01373  0.70641  0.80886  1.0000
  O   O23       1.0  0.06032  0.08522  0.62836  1.0000
  O   O24       1.0  0.93968  0.91477  0.12836  1.0000
  O   O25       1.0  0.08543  0.06047  0.37161  1.0000
  O   O26       1.0  0.91457  0.93953  0.87161  1.0000
