data_image0
_chemical_formula_structural       Ca2H60C48O26
_chemical_formula_sum              "Ca2 H60 C48 O26"
_cell_length_a       8.31953
_cell_length_b       8.32197
_cell_length_c       20.864
_cell_angle_alpha    90
_cell_angle_beta     90
_cell_angle_gamma    113.527

_space_group_name_H-M_alt    "P 1"
_space_group_IT_number       1

loop_
  _space_group_symop_operation_xyz
  'x, y, z'

loop_
  _atom_site_type_symbol
  _atom_site_label
  _atom_site_symmetry_multiplicity
  _atom_site_fract_x
  _atom_site_fract_y
  _atom_site_fract_z
  _atom_site_occupancy
  Ca  Ca1       1.0  0.51794  0.48210  0.75001  1.0000
  Ca  Ca2       1.0  0.48207  0.51790  0.25001  1.0000
  H   H1        1.0  0.97651  0.00237  0.69383  1.0000
  H   H2        1.0  0.02349  0.99763  0.19383  1.0000
  H   H3        1.0  0.00231  0.97646  0.30617  1.0000
  H   H4        1.0  0.99769  0.02354  0.80618  1.0000
  H   H5        1.0  0.68256  0.02087  0.49591  1.0000
  H   H6        1.0  0.31745  0.97912  0.99591  1.0000
  H   H7        1.0  0.02088  0.68252  0.50409  1.0000
  H   H8        1.0  0.97912  0.31749  0.00409  1.0000
  H   H9        1.0  0.39912  0.99766  0.44643  1.0000
  H   H10       1.0  0.60088  0.00234  0.94643  1.0000
  H   H11       1.0  0.99766  0.39915  0.55356  1.0000
  H   H12       1.0  0.00234  0.60085  0.05356  1.0000
  H   H13       1.0  0.16281  0.01165  0.51556  1.0000
  H   H14       1.0  0.83719  0.98835  0.01556  1.0000
  H   H15       1.0  0.01165  0.16291  0.48443  1.0000
  H   H16       1.0  0.98835  0.83710  0.98443  1.0000
  H   H17       1.0  0.21004  0.05821  0.63315  1.0000
  H   H18       1.0  0.78996  0.94179  0.13315  1.0000
  H   H19       1.0  0.05821  0.21012  0.36684  1.0000
  H   H20       1.0  0.94180  0.78988  0.86684  1.0000
  H   H21       1.0  0.48950  0.08014  0.68204  1.0000
  H   H22       1.0  0.51050  0.91986  0.18204  1.0000
  H   H23       1.0  0.08014  0.48951  0.31796  1.0000
  H   H24       1.0  0.91986  0.51049  0.81796  1.0000
  H   H25       1.0  0.57479  0.13532  0.79853  1.0000
  H   H26       1.0  0.42521  0.86468  0.29853  1.0000
  H   H27       1.0  0.13531  0.57479  0.20147  1.0000
  H   H28       1.0  0.86469  0.42521  0.70147  1.0000
  H   H29       1.0  0.39912  0.04679  0.87559  1.0000
  H   H30       1.0  0.60087  0.95321  0.37559  1.0000
  H   H31       1.0  0.04671  0.39912  0.12442  1.0000
  H   H32       1.0  0.95329  0.60089  0.62442  1.0000
  H   H33       1.0  0.26338  0.12679  0.83110  1.0000
  H   H34       1.0  0.73661  0.87320  0.33110  1.0000
  H   H35       1.0  0.12677  0.26342  0.16890  1.0000
  H   H36       1.0  0.87323  0.73658  0.66890  1.0000
  H   H37       1.0  0.32187  0.26248  0.93856  1.0000
  H   H38       1.0  0.67813  0.73752  0.43855  1.0000
  H   H39       1.0  0.26247  0.32190  0.06144  1.0000
  H   H40       1.0  0.73753  0.67810  0.56144  1.0000
  H   H41       1.0  0.55478  0.34383  0.92456  1.0000
  H   H42       1.0  0.44522  0.65617  0.42455  1.0000
  H   H43       1.0  0.34382  0.55475  0.07545  1.0000
  H   H44       1.0  0.65618  0.44525  0.57545  1.0000
  H   H45       1.0  0.43873  0.70457  0.87991  1.0000
  H   H46       1.0  0.56127  0.29543  0.37991  1.0000
  H   H47       1.0  0.70464  0.43875  0.12008  1.0000
  H   H48       1.0  0.29536  0.56125  0.62008  1.0000
  H   H49       1.0  0.34177  0.56110  0.94630  1.0000
  H   H50       1.0  0.65823  0.43890  0.44630  1.0000
  H   H51       1.0  0.56112  0.34180  0.05370  1.0000
  H   H52       1.0  0.43888  0.65820  0.55370  1.0000
  H   H53       1.0  0.57457  0.64355  0.93290  1.0000
  H   H54       1.0  0.42543  0.35645  0.43290  1.0000
  H   H55       1.0  0.64357  0.57455  0.06709  1.0000
  H   H56       1.0  0.35643  0.42545  0.56709  1.0000
  H   H57       1.0  0.39483  0.76919  0.76763  1.0000
  H   H58       1.0  0.60517  0.23081  0.26763  1.0000
  H   H59       1.0  0.76922  0.39483  0.23237  1.0000
  H   H60       1.0  0.23078  0.60516  0.73237  1.0000
  C   C1        1.0  0.09213  0.28257  0.70797  1.0000
  C   C2        1.0  0.90787  0.71743  0.20797  1.0000
  C   C3        1.0  0.28257  0.09212  0.29203  1.0000
  C   C4        1.0  0.71743  0.90788  0.79203  1.0000
  C   C5        1.0  0.93825  0.10304  0.71452  1.0000
  C   C6        1.0  0.06175  0.89696  0.21452  1.0000
  C   C7        1.0  0.10303  0.93823  0.28548  1.0000
  C   C8        1.0  0.89697  0.06177  0.78548  1.0000
  C   C9        1.0  0.76938  0.05828  0.61939  1.0000
  C   C10       1.0  0.23062  0.94172  0.11939  1.0000
  C   C11       1.0  0.05829  0.76936  0.38061  1.0000
  C   C12       1.0  0.94171  0.23064  0.88061  1.0000
  C   C13       1.0  0.60224  0.04977  0.59180  1.0000
  C   C14       1.0  0.39776  0.95023  0.09180  1.0000
  C   C15       1.0  0.04977  0.60224  0.40819  1.0000
  C   C16       1.0  0.95023  0.39776  0.90819  1.0000
  C   C17       1.0  0.57693  0.02719  0.52527  1.0000
  C   C18       1.0  0.42307  0.97281  0.02527  1.0000
  C   C19       1.0  0.02719  0.57692  0.47472  1.0000
  C   C20       1.0  0.97281  0.42308  0.97472  1.0000
  C   C21       1.0  0.41945  0.01440  0.49803  1.0000
  C   C22       1.0  0.58054  0.98560  0.99802  1.0000
  C   C23       1.0  0.01440  0.41949  0.50197  1.0000
  C   C24       1.0  0.98560  0.58052  0.00197  1.0000
  C   C25       1.0  0.28653  0.02377  0.53691  1.0000
  C   C26       1.0  0.71346  0.97622  0.03691  1.0000
  C   C27       1.0  0.02378  0.28660  0.46308  1.0000
  C   C28       1.0  0.97622  0.71340  0.96308  1.0000
  C   C29       1.0  0.31198  0.04766  0.60299  1.0000
  C   C30       1.0  0.68802  0.95234  0.10299  1.0000
  C   C31       1.0  0.04765  0.31203  0.39701  1.0000
  C   C32       1.0  0.95235  0.68797  0.89701  1.0000
  C   C33       1.0  0.46931  0.06113  0.63057  1.0000
  C   C34       1.0  0.53069  0.93886  0.13057  1.0000
  C   C35       1.0  0.06113  0.46933  0.36943  1.0000
  C   C36       1.0  0.93887  0.53067  0.86943  1.0000
  C   C37       1.0  0.83642  0.60585  0.64735  1.0000
  C   C38       1.0  0.16358  0.39415  0.14735  1.0000
  C   C39       1.0  0.60585  0.83637  0.35265  1.0000
  C   C40       1.0  0.39415  0.16363  0.85265  1.0000
  C   C41       1.0  0.69343  0.57472  0.59852  1.0000
  C   C42       1.0  0.30657  0.42528  0.09852  1.0000
  C   C43       1.0  0.57472  0.69341  0.40148  1.0000
  C   C44       1.0  0.42528  0.30659  0.90148  1.0000
  C   C45       1.0  0.44523  0.59878  0.90946  1.0000
  C   C46       1.0  0.55477  0.40122  0.40946  1.0000
  C   C47       1.0  0.59882  0.44524  0.09054  1.0000
  C   C48       1.0  0.40118  0.55476  0.59054  1.0000
  O   O1        1.0  0.24080  0.28092  0.71868  1.0000
  O   O2        1.0  0.75921  0.71908  0.21868  1.0000
  O   O3        1.0  0.28088  0.24073  0.28133  1.0000
  O   O4        1.0  0.71912  0.75927  0.78133  1.0000
  O   O5        1.0  0.05820  0.41478  0.69517  1.0000
  O   O6        1.0  0.94180  0.58522  0.19517  1.0000
  O   O7        1.0  0.41484  0.05824  0.30483  1.0000
  O   O8        1.0  0.58516  0.94176  0.80483  1.0000
  O   O9        1.0  0.78220  0.09761  0.68310  1.0000
  O   O10       1.0  0.21780  0.90238  0.18310  1.0000
  O   O11       1.0  0.09764  0.78222  0.31690  1.0000
  O   O12       1.0  0.90236  0.21778  0.81690  1.0000
  O   O13       1.0  0.88435  0.03244  0.58970  1.0000
  O   O14       1.0  0.11565  0.96756  0.08970  1.0000
  O   O15       1.0  0.03243  0.88428  0.41031  1.0000
  O   O16       1.0  0.96757  0.11572  0.91031  1.0000
  O   O17       1.0  0.77374  0.47534  0.69671  1.0000
  O   O18       1.0  0.22626  0.52466  0.19671  1.0000
  O   O19       1.0  0.47531  0.77373  0.30329  1.0000
  O   O20       1.0  0.52469  0.22627  0.80329  1.0000
  O   O21       1.0  0.54588  0.58032  0.63233  1.0000
  O   O22       1.0  0.45412  0.41968  0.13233  1.0000
  O   O23       1.0  0.58032  0.54589  0.36767  1.0000
  O   O24       1.0  0.41968  0.45411  0.86767  1.0000
  O   O25       1.0  0.35018  0.64981  0.75001  1.0000
  O   O26       1.0  0.64982  0.35019  0.25001  1.0000
