data_image0
_chemical_formula_structural       Mn2H20C28N4O8
_chemical_formula_sum              "Mn2 H20 C28 N4 O8"
_cell_length_a       7.73875
_cell_length_b       9.31305
_cell_length_c       9.76671
_cell_angle_alpha    97.2382
_cell_angle_beta     104.99
_cell_angle_gamma    108.469

_space_group_name_H-M_alt    "P 1"
_space_group_IT_number       1

loop_
  _space_group_symop_operation_xyz
  'x, y, z'

loop_
  _atom_site_type_symbol
  _atom_site_label
  _atom_site_symmetry_multiplicity
  _atom_site_fract_x
  _atom_site_fract_y
  _atom_site_fract_z
  _atom_site_occupancy
  Mn  Mn1       1.0  0.71188  0.96094  0.51801  1.0000
  Mn  Mn2       1.0  0.28813  0.03906  0.48198  1.0000
  H   H1        1.0  0.72906  0.42357  0.33690  1.0000
  H   H2        1.0  0.27095  0.57643  0.66311  1.0000
  H   H3        1.0  0.05282  0.42876  0.39044  1.0000
  H   H4        1.0  0.94719  0.57124  0.60956  1.0000
  H   H5        1.0  0.97412  0.98449  0.83700  1.0000
  H   H6        1.0  0.02588  0.01550  0.16300  1.0000
  H   H7        1.0  0.22385  0.18617  0.04843  1.0000
  H   H8        1.0  0.77615  0.81383  0.95157  1.0000
  H   H9        1.0  0.06520  0.52950  0.83990  1.0000
  H   H10       1.0  0.93479  0.47049  0.16010  1.0000
  H   H11       1.0  0.83244  0.31230  0.63308  1.0000
  H   H12       1.0  0.16756  0.68770  0.36691  1.0000
  H   H13       1.0  0.29726  0.37126  0.25322  1.0000
  H   H14       1.0  0.70273  0.62874  0.74678  1.0000
  H   H15       1.0  0.51489  0.60047  0.45345  1.0000
  H   H16       1.0  0.48511  0.39953  0.54655  1.0000
  H   H17       1.0  0.36415  0.68118  0.95688  1.0000
  H   H18       1.0  0.63584  0.31882  0.04312  1.0000
  H   H19       1.0  0.57027  0.89399  0.17062  1.0000
  H   H20       1.0  0.42972  0.10602  0.82938  1.0000
  C   C1        1.0  0.57441  0.17788  0.31726  1.0000
  C   C2        1.0  0.42560  0.82212  0.68275  1.0000
  C   C3        1.0  0.75522  0.31611  0.34807  1.0000
  C   C4        1.0  0.24480  0.68390  0.65193  1.0000
  C   C5        1.0  0.93624  0.31953  0.37674  1.0000
  C   C6        1.0  0.06377  0.68047  0.62326  1.0000
  C   C7        1.0  0.99462  0.18362  0.38881  1.0000
  C   C8        1.0  0.00540  0.81638  0.61119  1.0000
  C   C9        1.0  0.00069  0.10713  0.84152  1.0000
  C   C10       1.0  0.99931  0.89287  0.15848  1.0000
  C   C11       1.0  0.13719  0.22046  0.96083  1.0000
  C   C12       1.0  0.86281  0.77954  0.03917  1.0000
  C   C13       1.0  0.16703  0.37758  0.96260  1.0000
  C   C14       1.0  0.83297  0.62241  0.03740  1.0000
  C   C15       1.0  0.05374  0.41062  0.84281  1.0000
  C   C16       1.0  0.94626  0.58938  0.15719  1.0000
  C   C17       1.0  0.92246  0.29014  0.72757  1.0000
  C   C18       1.0  0.07754  0.70986  0.27243  1.0000
  C   C19       1.0  0.47576  0.61171  0.34092  1.0000
  C   C20       1.0  0.52423  0.38829  0.65908  1.0000
  C   C21       1.0  0.35631  0.48398  0.22806  1.0000
  C   C22       1.0  0.64369  0.51602  0.77193  1.0000
  C   C23       1.0  0.30707  0.50538  0.08517  1.0000
  C   C24       1.0  0.69292  0.49461  0.91483  1.0000
  C   C25       1.0  0.38857  0.65546  0.06457  1.0000
  C   C26       1.0  0.61143  0.34454  0.93543  1.0000
  C   C27       1.0  0.50722  0.77640  0.18418  1.0000
  C   C28       1.0  0.49277  0.22360  0.81582  1.0000
  N   N1        1.0  0.89541  0.13982  0.72507  1.0000
  N   N2        1.0  0.10459  0.86017  0.27493  1.0000
  N   N3        1.0  0.54950  0.75639  0.32111  1.0000
  N   N4        1.0  0.45049  0.24361  0.67889  1.0000
  O   O1        1.0  0.54818  0.11558  0.42609  1.0000
  O   O2        1.0  0.45183  0.88442  0.57391  1.0000
  O   O3        1.0  0.45843  0.13881  0.19197  1.0000
  O   O4        1.0  0.54158  0.86120  0.80803  1.0000
  O   O5        1.0  0.87245  0.05334  0.38667  1.0000
  O   O6        1.0  0.12757  0.94666  0.61333  1.0000
  O   O7        1.0  0.16967  0.20477  0.39825  1.0000
  O   O8        1.0  0.83034  0.79523  0.60174  1.0000
