data_image0
_chemical_formula_structural       Mg4H32C16O28
_chemical_formula_sum              "Mg4 H32 C16 O28"
_cell_length_a       7.92269
_cell_length_b       7.92269
_cell_length_c       12.7436
_cell_angle_alpha    90
_cell_angle_beta     90
_cell_angle_gamma    90

_space_group_name_H-M_alt    "P 1"
_space_group_IT_number       1

loop_
  _space_group_symop_operation_xyz
  'x, y, z'

loop_
  _atom_site_type_symbol
  _atom_site_label
  _atom_site_symmetry_multiplicity
  _atom_site_fract_x
  _atom_site_fract_y
  _atom_site_fract_z
  _atom_site_occupancy
  Mg  Mg1       1.0  0.53118  0.88075  0.21306  1.0000
  Mg  Mg2       1.0  0.46882  0.11924  0.71306  1.0000
  Mg  Mg3       1.0  0.11924  0.53118  0.96306  1.0000
  Mg  Mg4       1.0  0.88076  0.46882  0.46306  1.0000
  H   H1        1.0  0.30245  0.07649  0.30412  1.0000
  H   H2        1.0  0.69755  0.92351  0.80412  1.0000
  H   H3        1.0  0.92351  0.30245  0.05412  1.0000
  H   H4        1.0  0.07649  0.69755  0.55412  1.0000
  H   H5        1.0  0.22273  0.03902  0.18959  1.0000
  H   H6        1.0  0.77727  0.96098  0.68959  1.0000
  H   H7        1.0  0.96098  0.22273  0.93959  1.0000
  H   H8        1.0  0.03902  0.77726  0.43959  1.0000
  H   H9        1.0  0.77388  0.67312  0.25185  1.0000
  H   H10       1.0  0.22612  0.32688  0.75185  1.0000
  H   H11       1.0  0.32688  0.77388  0.00185  1.0000
  H   H12       1.0  0.67312  0.22612  0.50185  1.0000
  H   H13       1.0  0.80916  0.70956  0.12889  1.0000
  H   H14       1.0  0.19084  0.29044  0.62889  1.0000
  H   H15       1.0  0.29044  0.80916  0.87889  1.0000
  H   H16       1.0  0.70956  0.19084  0.37889  1.0000
  H   H17       1.0  0.60346  0.91647  0.00781  1.0000
  H   H18       1.0  0.39654  0.08353  0.50781  1.0000
  H   H19       1.0  0.08353  0.60346  0.75781  1.0000
  H   H20       1.0  0.91647  0.39654  0.25781  1.0000
  H   H21       1.0  0.71109  0.15722  0.99781  1.0000
  H   H22       1.0  0.28891  0.84278  0.49781  1.0000
  H   H23       1.0  0.84278  0.71109  0.74781  1.0000
  H   H24       1.0  0.15722  0.28891  0.24781  1.0000
  H   H25       1.0  0.37394  0.26864  0.09182  1.0000
  H   H26       1.0  0.62606  0.73136  0.59182  1.0000
  H   H27       1.0  0.73136  0.37394  0.84182  1.0000
  H   H28       1.0  0.26864  0.62606  0.34182  1.0000
  H   H29       1.0  0.53137  0.41329  0.05411  1.0000
  H   H30       1.0  0.46863  0.58671  0.55411  1.0000
  H   H31       1.0  0.58671  0.53137  0.80411  1.0000
  H   H32       1.0  0.41329  0.46863  0.30411  1.0000
  C   C1        1.0  0.70412  0.19506  0.16589  1.0000
  C   C2        1.0  0.29588  0.80494  0.66589  1.0000
  C   C3        1.0  0.80494  0.70412  0.91589  1.0000
  C   C4        1.0  0.19506  0.29588  0.41589  1.0000
  C   C5        1.0  0.61731  0.15347  0.06117  1.0000
  C   C6        1.0  0.38269  0.84653  0.56117  1.0000
  C   C7        1.0  0.84653  0.61731  0.81117  1.0000
  C   C8        1.0  0.15347  0.38269  0.31117  1.0000
  C   C9        1.0  0.48157  0.28601  0.03852  1.0000
  C   C10       1.0  0.51843  0.71399  0.53852  1.0000
  C   C11       1.0  0.71399  0.48157  0.78852  1.0000
  C   C12       1.0  0.28601  0.51843  0.28852  1.0000
  C   C13       1.0  0.41671  0.28186  0.92610  1.0000
  C   C14       1.0  0.58328  0.71814  0.42610  1.0000
  C   C15       1.0  0.71814  0.41671  0.67610  1.0000
  C   C16       1.0  0.28186  0.58329  0.17610  1.0000
  O   O1        1.0  0.65759  0.11445  0.24674  1.0000
  O   O2        1.0  0.34241  0.88555  0.74674  1.0000
  O   O3        1.0  0.88555  0.65759  0.99674  1.0000
  O   O4        1.0  0.11445  0.34241  0.49674  1.0000
  O   O5        1.0  0.29716  0.99514  0.24346  1.0000
  O   O6        1.0  0.70284  0.00486  0.74346  1.0000
  O   O7        1.0  0.00486  0.29716  0.99346  1.0000
  O   O8        1.0  0.99514  0.70284  0.49346  1.0000
  O   O9        1.0  0.75956  0.75476  0.19451  1.0000
  O   O10       1.0  0.24044  0.24524  0.69451  1.0000
  O   O11       1.0  0.24524  0.75956  0.94451  1.0000
  O   O12       1.0  0.75476  0.24044  0.44450  1.0000
  O   O13       1.0  0.81469  0.31194  0.16333  1.0000
  O   O14       1.0  0.18531  0.68806  0.66333  1.0000
  O   O15       1.0  0.68806  0.81469  0.91333  1.0000
  O   O16       1.0  0.31194  0.18531  0.41333  1.0000
  O   O17       1.0  0.30796  0.39065  0.89700  1.0000
  O   O18       1.0  0.69204  0.60935  0.39700  1.0000
  O   O19       1.0  0.60935  0.30796  0.64700  1.0000
  O   O20       1.0  0.39065  0.69204  0.14700  1.0000
  O   O21       1.0  0.47981  0.17198  0.86601  1.0000
  O   O22       1.0  0.52019  0.82802  0.36601  1.0000
  O   O23       1.0  0.82802  0.47981  0.61601  1.0000
  O   O24       1.0  0.17198  0.52019  0.11601  1.0000
  O   O25       1.0  0.54759  0.98690  0.06462  1.0000
  O   O26       1.0  0.45241  0.01310  0.56462  1.0000
  O   O27       1.0  0.01310  0.54759  0.81462  1.0000
  O   O28       1.0  0.98690  0.45241  0.31462  1.0000
