data_image0
_chemical_formula_structural       Ni4H72C40O24
_chemical_formula_sum              "Ni4 H72 C40 O24"
_cell_length_a       7.16706
_cell_length_b       11.9855
_cell_length_c       14.1824
_cell_angle_alpha    90
_cell_angle_beta     90
_cell_angle_gamma    90

_space_group_name_H-M_alt    "P 1"
_space_group_IT_number       1

loop_
  _space_group_symop_operation_xyz
  'x, y, z'

loop_
  _atom_site_type_symbol
  _atom_site_label
  _atom_site_symmetry_multiplicity
  _atom_site_fract_x
  _atom_site_fract_y
  _atom_site_fract_z
  _atom_site_occupancy
  Ni  Ni1       1.0  0.37992  0.25271  0.48575  1.0000
  Ni  Ni2       1.0  0.12008  0.74729  0.98575  1.0000
  Ni  Ni3       1.0  0.87992  0.24728  0.51425  1.0000
  Ni  Ni4       1.0  0.62008  0.75272  0.01425  1.0000
  H   H1        1.0  0.57848  0.06971  0.52044  1.0000
  H   H2        1.0  0.92151  0.93029  0.02044  1.0000
  H   H3        1.0  0.07847  0.43029  0.47956  1.0000
  H   H4        1.0  0.42152  0.56971  0.97956  1.0000
  H   H5        1.0  0.35849  0.03766  0.52929  1.0000
  H   H6        1.0  0.14151  0.96235  0.02929  1.0000
  H   H7        1.0  0.85849  0.46234  0.47071  1.0000
  H   H8        1.0  0.64150  0.53765  0.97071  1.0000
  H   H9        1.0  0.11007  0.10913  0.46239  1.0000
  H   H10       1.0  0.38993  0.89087  0.96238  1.0000
  H   H11       1.0  0.61006  0.39086  0.53761  1.0000
  H   H12       1.0  0.88993  0.60914  0.03761  1.0000
  H   H13       1.0  0.07466  0.20468  0.37749  1.0000
  H   H14       1.0  0.42535  0.79532  0.87748  1.0000
  H   H15       1.0  0.57466  0.29533  0.62251  1.0000
  H   H16       1.0  0.92534  0.70467  0.12252  1.0000
  H   H17       1.0  0.79175  0.12475  0.05111  1.0000
  H   H18       1.0  0.70824  0.87526  0.55111  1.0000
  H   H19       1.0  0.29175  0.37525  0.94889  1.0000
  H   H20       1.0  0.20824  0.62475  0.44888  1.0000
  H   H21       1.0  0.38644  0.18666  0.04266  1.0000
  H   H22       1.0  0.11356  0.81335  0.54267  1.0000
  H   H23       1.0  0.88644  0.31335  0.95733  1.0000
  H   H24       1.0  0.61356  0.68664  0.45733  1.0000
  H   H25       1.0  0.58247  0.26271  0.00343  1.0000
  H   H26       1.0  0.91753  0.73729  0.50343  1.0000
  H   H27       1.0  0.08246  0.23729  0.99658  1.0000
  H   H28       1.0  0.41754  0.76270  0.49657  1.0000
  H   H29       1.0  0.54865  0.37104  0.14175  1.0000
  H   H30       1.0  0.95135  0.62896  0.64175  1.0000
  H   H31       1.0  0.04865  0.12895  0.85826  1.0000
  H   H32       1.0  0.45135  0.87104  0.35826  1.0000
  H   H33       1.0  0.38998  0.27489  0.19096  1.0000
  H   H34       1.0  0.11002  0.72511  0.69096  1.0000
  H   H35       1.0  0.88998  0.22510  0.80904  1.0000
  H   H36       1.0  0.61003  0.77490  0.30904  1.0000
  H   H37       1.0  0.86696  0.37453  0.21035  1.0000
  H   H38       1.0  0.63303  0.62548  0.71035  1.0000
  H   H39       1.0  0.36697  0.12547  0.78965  1.0000
  H   H40       1.0  0.13304  0.87453  0.28965  1.0000
  H   H41       1.0  0.88908  0.28347  0.11337  1.0000
  H   H42       1.0  0.61092  0.71654  0.61337  1.0000
  H   H43       1.0  0.38909  0.21654  0.88663  1.0000
  H   H44       1.0  0.11092  0.78346  0.38663  1.0000
  H   H45       1.0  0.98692  0.24642  0.22409  1.0000
  H   H46       1.0  0.51308  0.75359  0.72409  1.0000
  H   H47       1.0  0.48692  0.25359  0.77591  1.0000
  H   H48       1.0  0.01309  0.74641  0.27591  1.0000
  H   H49       1.0  0.82887  0.94962  0.20247  1.0000
  H   H50       1.0  0.67113  0.05038  0.70248  1.0000
  H   H51       1.0  0.32886  0.55038  0.79753  1.0000
  H   H52       1.0  0.17113  0.44962  0.29752  1.0000
  H   H53       1.0  0.86526  0.04346  0.29752  1.0000
  H   H54       1.0  0.63473  0.95654  0.79753  1.0000
  H   H55       1.0  0.36527  0.45654  0.70248  1.0000
  H   H56       1.0  0.13473  0.54346  0.20247  1.0000
  H   H57       1.0  0.97302  0.06847  0.18632  1.0000
  H   H58       1.0  0.52698  0.93154  0.68632  1.0000
  H   H59       1.0  0.47302  0.43153  0.81368  1.0000
  H   H60       1.0  0.02698  0.56846  0.31368  1.0000
  H   H61       1.0  0.49062  0.96146  0.20838  1.0000
  H   H62       1.0  0.00938  0.03854  0.70839  1.0000
  H   H63       1.0  0.99062  0.53854  0.79161  1.0000
  H   H64       1.0  0.50938  0.46146  0.29161  1.0000
  H   H65       1.0  0.36970  0.09093  0.21344  1.0000
  H   H66       1.0  0.13029  0.90906  0.71344  1.0000
  H   H67       1.0  0.86970  0.40906  0.78656  1.0000
  H   H68       1.0  0.63030  0.59094  0.28655  1.0000
  H   H69       1.0  0.50618  0.04673  0.31040  1.0000
  H   H70       1.0  0.99382  0.95327  0.81040  1.0000
  H   H71       1.0  0.00618  0.45327  0.68960  1.0000
  H   H72       1.0  0.49382  0.54673  0.18959  1.0000
  C   C1        1.0  0.68067  0.23227  0.21680  1.0000
  C   C2        1.0  0.81934  0.76774  0.71680  1.0000
  C   C3        1.0  0.18066  0.26773  0.78320  1.0000
  C   C4        1.0  0.31934  0.73227  0.28320  1.0000
  C   C5        1.0  0.67283  0.10380  0.19056  1.0000
  C   C6        1.0  0.82717  0.89621  0.69056  1.0000
  C   C7        1.0  0.17283  0.39620  0.80944  1.0000
  C   C8        1.0  0.32717  0.60379  0.30943  1.0000
  C   C9        1.0  0.65143  0.11129  0.08063  1.0000
  C   C10       1.0  0.84856  0.88871  0.58064  1.0000
  C   C11       1.0  0.15143  0.38871  0.91937  1.0000
  C   C12       1.0  0.34856  0.61129  0.41936  1.0000
  C   C13       1.0  0.52707  0.21384  0.06265  1.0000
  C   C14       1.0  0.97293  0.78616  0.56265  1.0000
  C   C15       1.0  0.02707  0.28616  0.93735  1.0000
  C   C16       1.0  0.47293  0.71383  0.43735  1.0000
  C   C17       1.0  0.52461  0.28210  0.15480  1.0000
  C   C18       1.0  0.97539  0.71790  0.65480  1.0000
  C   C19       1.0  0.02461  0.21790  0.84520  1.0000
  C   C20       1.0  0.47539  0.78210  0.34520  1.0000
  C   C21       1.0  0.86735  0.28629  0.18975  1.0000
  C   C22       1.0  0.63265  0.71371  0.68975  1.0000
  C   C23       1.0  0.36735  0.21371  0.81025  1.0000
  C   C24       1.0  0.13265  0.78629  0.31025  1.0000
  C   C25       1.0  0.84547  0.03800  0.22080  1.0000
  C   C26       1.0  0.65453  0.96200  0.72080  1.0000
  C   C27       1.0  0.34547  0.46199  0.77920  1.0000
  C   C28       1.0  0.15453  0.53800  0.27920  1.0000
  C   C29       1.0  0.49917  0.04799  0.23315  1.0000
  C   C30       1.0  0.00083  0.95201  0.73316  1.0000
  C   C31       1.0  0.99917  0.45201  0.76684  1.0000
  C   C32       1.0  0.50083  0.54799  0.26684  1.0000
  C   C33       1.0  0.64834  0.24647  0.32342  1.0000
  C   C34       1.0  0.85168  0.75352  0.82342  1.0000
  C   C35       1.0  0.14833  0.25352  0.67659  1.0000
  C   C36       1.0  0.35169  0.74648  0.17658  1.0000
  C   C37       1.0  0.58229  0.00319  0.03757  1.0000
  C   C38       1.0  0.91771  0.99682  0.53757  1.0000
  C   C39       1.0  0.08230  0.49681  0.96242  1.0000
  C   C40       1.0  0.41769  0.50318  0.46242  1.0000
  O   O1        1.0  0.48163  0.25794  0.35245  1.0000
  O   O2        1.0  0.01839  0.74206  0.85245  1.0000
  O   O3        1.0  0.98161  0.24205  0.64756  1.0000
  O   O4        1.0  0.51840  0.75795  0.14755  1.0000
  O   O5        1.0  0.45011  0.08097  0.49382  1.0000
  O   O6        1.0  0.04989  0.91902  0.99383  1.0000
  O   O7        1.0  0.95010  0.41903  0.50617  1.0000
  O   O8        1.0  0.54989  0.58097  0.00618  1.0000
  O   O9        1.0  0.79448  0.24343  0.37468  1.0000
  O   O10       1.0  0.70552  0.75655  0.87468  1.0000
  O   O11       1.0  0.29447  0.25655  0.62532  1.0000
  O   O12       1.0  0.20554  0.74344  0.12532  1.0000
  O   O13       1.0  0.12233  0.19476  0.44170  1.0000
  O   O14       1.0  0.37768  0.80524  0.94171  1.0000
  O   O15       1.0  0.62233  0.30524  0.55829  1.0000
  O   O16       1.0  0.87767  0.69476  0.05829  1.0000
  O   O17       1.0  0.41593  0.99603  0.00645  1.0000
  O   O18       1.0  0.08406  0.00397  0.50645  1.0000
  O   O19       1.0  0.91593  0.50398  0.99355  1.0000
  O   O20       1.0  0.58405  0.49602  0.49355  1.0000
  O   O21       1.0  0.69767  0.92135  0.03518  1.0000
  O   O22       1.0  0.80233  0.07865  0.53518  1.0000
  O   O23       1.0  0.19767  0.57865  0.96482  1.0000
  O   O24       1.0  0.30232  0.42135  0.46481  1.0000
