data_image0
_chemical_formula_structural       Zn4H52C64N4O24
_chemical_formula_sum              "Zn4 H52 C64 N4 O24"
_cell_length_a       10.8354
_cell_length_b       10.8359
_cell_length_c       16.118
_cell_angle_alpha    71.445
_cell_angle_beta     71.444
_cell_angle_gamma    64.9293

_space_group_name_H-M_alt    "P 1"
_space_group_IT_number       1

loop_
  _space_group_symop_operation_xyz
  'x, y, z'

loop_
  _atom_site_type_symbol
  _atom_site_label
  _atom_site_symmetry_multiplicity
  _atom_site_fract_x
  _atom_site_fract_y
  _atom_site_fract_z
  _atom_site_occupancy
  Zn  Zn1       1.0  0.09214  0.43911  0.15296  1.0000
  Zn  Zn2       1.0  0.56089  0.90786  0.34704  1.0000
  Zn  Zn3       1.0  0.90786  0.56089  0.84704  1.0000
  Zn  Zn4       1.0  0.43911  0.09214  0.65296  1.0000
  H   H1        1.0  0.16730  0.32609  0.39858  1.0000
  H   H2        1.0  0.67391  0.83270  0.10142  1.0000
  H   H3        1.0  0.83270  0.67391  0.60142  1.0000
  H   H4        1.0  0.32609  0.16730  0.89858  1.0000
  H   H5        1.0  0.99278  0.25751  0.68036  1.0000
  H   H6        1.0  0.74249  0.00722  0.81964  1.0000
  H   H7        1.0  0.00722  0.74249  0.31964  1.0000
  H   H8        1.0  0.25751  0.99278  0.18036  1.0000
  H   H9        1.0  0.72196  0.45917  0.49177  1.0000
  H   H10       1.0  0.54083  0.27804  0.00823  1.0000
  H   H11       1.0  0.27804  0.54083  0.50823  1.0000
  H   H12       1.0  0.45917  0.72196  0.99176  1.0000
  H   H13       1.0  0.59215  0.58206  0.61474  1.0000
  H   H14       1.0  0.41793  0.40785  0.88526  1.0000
  H   H15       1.0  0.40785  0.41794  0.38525  1.0000
  H   H16       1.0  0.58207  0.59215  0.11474  1.0000
  H   H17       1.0  0.39909  0.60091  0.75000  1.0000
  H   H18       1.0  0.60091  0.39909  0.25000  1.0000
  H   H19       1.0  0.82483  0.17517  0.75000  1.0000
  H   H20       1.0  0.17517  0.82483  0.25000  1.0000
  H   H21       1.0  0.92715  0.70319  0.21310  1.0000
  H   H22       1.0  0.29681  0.07285  0.28690  1.0000
  H   H23       1.0  0.07285  0.29681  0.78690  1.0000
  H   H24       1.0  0.70319  0.92715  0.71310  1.0000
  H   H25       1.0  0.88548  0.95256  0.15362  1.0000
  H   H26       1.0  0.04744  0.11452  0.34639  1.0000
  H   H27       1.0  0.11452  0.04744  0.84639  1.0000
  H   H28       1.0  0.95256  0.88548  0.65361  1.0000
  H   H29       1.0  0.14696  0.84786  0.89989  1.0000
  H   H30       1.0  0.15214  0.85304  0.60011  1.0000
  H   H31       1.0  0.85304  0.15214  0.10011  1.0000
  H   H32       1.0  0.84786  0.14696  0.39989  1.0000
  H   H33       1.0  0.17912  0.60147  0.97176  1.0000
  H   H34       1.0  0.39853  0.82088  0.52824  1.0000
  H   H35       1.0  0.82088  0.39853  0.02824  1.0000
  H   H36       1.0  0.60147  0.17912  0.47176  1.0000
  H   H37       1.0  0.38586  0.33904  0.15032  1.0000
  H   H38       1.0  0.66096  0.61414  0.34968  1.0000
  H   H39       1.0  0.61414  0.66096  0.84968  1.0000
  H   H40       1.0  0.33904  0.38586  0.65032  1.0000
  H   H41       1.0  0.84307  0.54663  0.10278  1.0000
  H   H42       1.0  0.45336  0.15693  0.39722  1.0000
  H   H43       1.0  0.15693  0.45337  0.89722  1.0000
  H   H44       1.0  0.54664  0.84307  0.60278  1.0000
  H   H45       1.0  0.83342  0.48711  0.20960  1.0000
  H   H46       1.0  0.51289  0.16658  0.29040  1.0000
  H   H47       1.0  0.16659  0.51289  0.79040  1.0000
  H   H48       1.0  0.48711  0.83342  0.70960  1.0000
  H   H49       1.0  0.31751  0.48718  0.17280  1.0000
  H   H50       1.0  0.51282  0.68248  0.32720  1.0000
  H   H51       1.0  0.68249  0.51282  0.82720  1.0000
  H   H52       1.0  0.48718  0.31751  0.67280  1.0000
  C   C1        1.0  0.93056  0.44481  0.34026  1.0000
  C   C2        1.0  0.55518  0.06944  0.15974  1.0000
  C   C3        1.0  0.06944  0.55519  0.65974  1.0000
  C   C4        1.0  0.44482  0.93056  0.84026  1.0000
  C   C5        1.0  0.94299  0.39704  0.43617  1.0000
  C   C6        1.0  0.60296  0.05701  0.06383  1.0000
  C   C7        1.0  0.05701  0.60296  0.56383  1.0000
  C   C8        1.0  0.39704  0.94299  0.93618  1.0000
  C   C9        1.0  0.07705  0.33404  0.45394  1.0000
  C   C10       1.0  0.66596  0.92295  0.04606  1.0000
  C   C11       1.0  0.92295  0.66596  0.54606  1.0000
  C   C12       1.0  0.33404  0.07705  0.95394  1.0000
  C   C13       1.0  0.09450  0.28178  0.54192  1.0000
  C   C14       1.0  0.71822  0.90550  0.95808  1.0000
  C   C15       1.0  0.90550  0.71822  0.45808  1.0000
  C   C16       1.0  0.28178  0.09450  0.04192  1.0000
  C   C17       1.0  0.97697  0.29552  0.61203  1.0000
  C   C18       1.0  0.70448  0.02303  0.88797  1.0000
  C   C19       1.0  0.02303  0.70448  0.38797  1.0000
  C   C20       1.0  0.29552  0.97697  0.11203  1.0000
  C   C21       1.0  0.84175  0.36116  0.59578  1.0000
  C   C22       1.0  0.63884  0.15825  0.90421  1.0000
  C   C23       1.0  0.15825  0.63884  0.40422  1.0000
  C   C24       1.0  0.36116  0.84175  0.09579  1.0000
  C   C25       1.0  0.82568  0.41075  0.50675  1.0000
  C   C26       1.0  0.58925  0.17432  0.99325  1.0000
  C   C27       1.0  0.17432  0.58925  0.49325  1.0000
  C   C28       1.0  0.41075  0.82568  0.00675  1.0000
  C   C29       1.0  0.72186  0.37607  0.67297  1.0000
  C   C30       1.0  0.62393  0.27814  0.82703  1.0000
  C   C31       1.0  0.27814  0.62393  0.32703  1.0000
  C   C32       1.0  0.37607  0.72186  0.17297  1.0000
  C   C33       1.0  0.60034  0.49631  0.67342  1.0000
  C   C34       1.0  0.50369  0.39966  0.82658  1.0000
  C   C35       1.0  0.39966  0.50369  0.32658  1.0000
  C   C36       1.0  0.49631  0.60034  0.17342  1.0000
  C   C37       1.0  0.49277  0.50723  0.75000  1.0000
  C   C38       1.0  0.50723  0.49277  0.25000  1.0000
  C   C39       1.0  0.73111  0.26890  0.75000  1.0000
  C   C40       1.0  0.26889  0.73110  0.25000  1.0000
  C   C41       1.0  0.23701  0.21511  0.56188  1.0000
  C   C42       1.0  0.78489  0.76299  0.93812  1.0000
  C   C43       1.0  0.76299  0.78489  0.43812  1.0000
  C   C44       1.0  0.21511  0.23701  0.06188  1.0000
  C   C45       1.0  0.97507  0.73990  0.14412  1.0000
  C   C46       1.0  0.26011  0.02493  0.35588  1.0000
  C   C47       1.0  0.02493  0.26010  0.85588  1.0000
  C   C48       1.0  0.73989  0.97507  0.64412  1.0000
  C   C49       1.0  0.95203  0.88047  0.10958  1.0000
  C   C50       1.0  0.11952  0.04797  0.39042  1.0000
  C   C51       1.0  0.04797  0.11953  0.89042  1.0000
  C   C52       1.0  0.88048  0.95203  0.60958  1.0000
  C   C53       1.0  0.01231  0.92539  0.01993  1.0000
  C   C54       1.0  0.07461  0.98769  0.48007  1.0000
  C   C55       1.0  0.98769  0.07461  0.98007  1.0000
  C   C56       1.0  0.92539  0.01231  0.51993  1.0000
  C   C57       1.0  0.09581  0.82251  0.96967  1.0000
  C   C58       1.0  0.17749  0.90419  0.53033  1.0000
  C   C59       1.0  0.90419  0.17749  0.03033  1.0000
  C   C60       1.0  0.82251  0.09581  0.46967  1.0000
  C   C61       1.0  0.11549  0.68357  0.00902  1.0000
  C   C62       1.0  0.31643  0.88451  0.49098  1.0000
  C   C63       1.0  0.88451  0.31643  0.99098  1.0000
  C   C64       1.0  0.68356  0.11549  0.50902  1.0000
  N   N1        1.0  0.05580  0.64305  0.09473  1.0000
  N   N2        1.0  0.35695  0.94420  0.40527  1.0000
  N   N3        1.0  0.94420  0.35695  0.90527  1.0000
  N   N4        1.0  0.64305  0.05580  0.59473  1.0000
  O   O1        1.0  0.04587  0.43567  0.28328  1.0000
  O   O2        1.0  0.56433  0.95413  0.21672  1.0000
  O   O3        1.0  0.95413  0.56433  0.71672  1.0000
  O   O4        1.0  0.43567  0.04587  0.78328  1.0000
  O   O5        1.0  0.81262  0.48695  0.32030  1.0000
  O   O6        1.0  0.51305  0.18738  0.17970  1.0000
  O   O7        1.0  0.18738  0.51305  0.67970  1.0000
  O   O8        1.0  0.48695  0.81262  0.82030  1.0000
  O   O9        1.0  0.24111  0.17504  0.64581  1.0000
  O   O10       1.0  0.82496  0.75889  0.85419  1.0000
  O   O11       1.0  0.75889  0.82496  0.35419  1.0000
  O   O12       1.0  0.17504  0.24111  0.14581  1.0000
  O   O13       1.0  0.34530  0.20117  0.50007  1.0000
  O   O14       1.0  0.79883  0.65470  0.99993  1.0000
  O   O15       1.0  0.65470  0.79884  0.49993  1.0000
  O   O16       1.0  0.20116  0.34530  0.00007  1.0000
  O   O17       1.0  0.31065  0.43202  0.13822  1.0000
  O   O18       1.0  0.56798  0.68935  0.36178  1.0000
  O   O19       1.0  0.68935  0.56798  0.86178  1.0000
  O   O20       1.0  0.43203  0.31065  0.63822  1.0000
  O   O21       1.0  0.88068  0.46448  0.14918  1.0000
  O   O22       1.0  0.53552  0.11932  0.35082  1.0000
  O   O23       1.0  0.11933  0.53552  0.85082  1.0000
  O   O24       1.0  0.46448  0.88068  0.64918  1.0000
