data_image0
_chemical_formula_structural       Zn4H44C80N4O18
_chemical_formula_sum              "Zn4 H44 C80 N4 O18"
_cell_length_a       11.7154
_cell_length_b       14.1017
_cell_length_c       17.6244
_cell_angle_alpha    84.8924
_cell_angle_beta     70.0637
_cell_angle_gamma    65.4882

_space_group_name_H-M_alt    "P 1"
_space_group_IT_number       1

loop_
  _space_group_symop_operation_xyz
  'x, y, z'

loop_
  _atom_site_type_symbol
  _atom_site_label
  _atom_site_symmetry_multiplicity
  _atom_site_fract_x
  _atom_site_fract_y
  _atom_site_fract_z
  _atom_site_occupancy
  Zn  Zn1       1.0  0.79587  0.27565  0.16390  1.0000
  Zn  Zn2       1.0  0.73420  0.22383  0.33625  1.0000
  Zn  Zn3       1.0  0.20417  0.72437  0.83609  1.0000
  Zn  Zn4       1.0  0.26583  0.77616  0.66376  1.0000
  H   H1        1.0  0.93849  0.39336  0.92852  1.0000
  H   H2        1.0  0.76192  0.10564  0.57076  1.0000
  H   H3        1.0  0.06147  0.60664  0.07149  1.0000
  H   H4        1.0  0.23806  0.89436  0.42924  1.0000
  H   H5        1.0  0.19519  0.53140  0.56590  1.0000
  H   H6        1.0  0.78993  0.97037  0.93378  1.0000
  H   H7        1.0  0.80479  0.46862  0.43410  1.0000
  H   H8        1.0  0.21009  0.02964  0.06622  1.0000
  H   H9        1.0  0.05526  0.50944  0.82337  1.0000
  H   H10       1.0  0.88976  0.98943  0.67620  1.0000
  H   H11       1.0  0.94474  0.49057  0.17663  1.0000
  H   H12       1.0  0.11023  0.01055  0.32379  1.0000
  H   H13       1.0  0.84428  0.18415  0.75934  1.0000
  H   H14       1.0  0.28717  0.31575  0.74254  1.0000
  H   H15       1.0  0.15578  0.81583  0.24064  1.0000
  H   H16       1.0  0.71283  0.68426  0.25747  1.0000
  H   H17       1.0  0.11168  0.40291  0.54392  1.0000
  H   H18       1.0  0.55541  0.09913  0.95612  1.0000
  H   H19       1.0  0.88832  0.59711  0.45608  1.0000
  H   H20       1.0  0.44462  0.90088  0.04387  1.0000
  H   H21       1.0  0.08767  0.10618  0.65664  1.0000
  H   H22       1.0  0.35072  0.39419  0.84335  1.0000
  H   H23       1.0  0.91234  0.89382  0.34334  1.0000
  H   H24       1.0  0.64926  0.60581  0.15667  1.0000
  H   H25       1.0  0.89868  0.29178  0.44446  1.0000
  H   H26       1.0  0.13143  0.20955  0.05779  1.0000
  H   H27       1.0  0.10133  0.70824  0.55553  1.0000
  H   H28       1.0  0.86857  0.79043  0.94222  1.0000
  H   H29       1.0  0.88575  0.39427  0.55878  1.0000
  H   H30       1.0  0.33627  0.10669  0.94257  1.0000
  H   H31       1.0  0.11427  0.60573  0.44122  1.0000
  H   H32       1.0  0.66374  0.89330  0.05744  1.0000
  H   H33       1.0  0.10513  0.00539  0.54296  1.0000
  H   H34       1.0  0.15253  0.49556  0.95796  1.0000
  H   H35       1.0  0.89485  0.99462  0.45703  1.0000
  H   H36       1.0  0.84745  0.50442  0.04207  1.0000
  H   H37       1.0  0.00627  0.09987  0.43669  1.0000
  H   H38       1.0  0.04020  0.40147  0.06532  1.0000
  H   H39       1.0  0.99371  0.90015  0.56331  1.0000
  H   H40       1.0  0.95977  0.59851  0.93469  1.0000
  H   H41       1.0  0.77948  0.17439  0.90982  1.0000
  H   H42       1.0  0.36397  0.32485  0.59197  1.0000
  H   H43       1.0  0.22053  0.82561  0.09016  1.0000
  H   H44       1.0  0.63601  0.67516  0.40805  1.0000
  C   C1        1.0  0.85620  0.28224  0.92656  1.0000
  C   C2        1.0  0.56597  0.21683  0.57409  1.0000
  C   C3        1.0  0.14377  0.71775  0.07344  1.0000
  C   C4        1.0  0.43402  0.78318  0.42591  1.0000
  C   C5        1.0  0.95397  0.35610  0.80777  1.0000
  C   C6        1.0  0.61857  0.14345  0.69224  1.0000
  C   C7        1.0  0.04602  0.64390  0.19223  1.0000
  C   C8        1.0  0.38142  0.85656  0.30777  1.0000
  C   C9        1.0  0.93094  0.29391  0.76035  1.0000
  C   C10       1.0  0.48520  0.20594  0.74020  1.0000
  C   C11       1.0  0.06906  0.70608  0.23965  1.0000
  C   C12       1.0  0.51479  0.79407  0.25981  1.0000
  C   C13       1.0  0.91832  0.34926  0.89089  1.0000
  C   C14       1.0  0.65963  0.14993  0.60903  1.0000
  C   C15       1.0  0.08165  0.65074  0.10911  1.0000
  C   C16       1.0  0.34036  0.85008  0.39097  1.0000
  C   C17       1.0  0.14209  0.49974  0.61750  1.0000
  C   C18       1.0  0.75735  0.00144  0.88234  1.0000
  C   C19       1.0  0.85790  0.50027  0.38250  1.0000
  C   C20       1.0  0.24266  0.99856  0.11766  1.0000
  C   C21       1.0  0.06377  0.48720  0.76351  1.0000
  C   C22       1.0  0.81498  0.01234  0.73616  1.0000
  C   C23       1.0  0.93622  0.51279  0.23650  1.0000
  C   C24       1.0  0.18502  0.98766  0.26383  1.0000
  C   C25       1.0  0.01680  0.41596  0.75237  1.0000
  C   C26       1.0  0.68537  0.08375  0.74738  1.0000
  C   C27       1.0  0.98320  0.58404  0.24764  1.0000
  C   C28       1.0  0.31462  0.91626  0.25261  1.0000
  C   C29       1.0  0.82177  0.26988  0.01492  1.0000
  C   C30       1.0  0.60762  0.22865  0.48570  1.0000
  C   C31       1.0  0.17822  0.73012  0.98507  1.0000
  C   C32       1.0  0.39238  0.77135  0.51429  1.0000
  C   C33       1.0  0.98647  0.25609  0.61378  1.0000
  C   C34       1.0  0.35494  0.24467  0.88701  1.0000
  C   C35       1.0  0.01354  0.74391  0.38621  1.0000
  C   C36       1.0  0.64505  0.75532  0.11301  1.0000
  C   C37       1.0  0.12638  0.52989  0.69589  1.0000
  C   C38       1.0  0.85153  0.97069  0.80384  1.0000
  C   C39       1.0  0.87362  0.47011  0.30412  1.0000
  C   C40       1.0  0.14845  0.02931  0.19614  1.0000
  C   C41       1.0  0.03155  0.38716  0.67312  1.0000
  C   C42       1.0  0.59094  0.11332  0.82690  1.0000
  C   C43       1.0  0.96845  0.61284  0.32689  1.0000
  C   C44       1.0  0.40906  0.88668  0.17310  1.0000
  C   C45       1.0  0.86542  0.22918  0.79558  1.0000
  C   C46       1.0  0.39007  0.27056  0.70574  1.0000
  C   C47       1.0  0.13459  0.77081  0.20441  1.0000
  C   C48       1.0  0.60992  0.72945  0.29427  1.0000
  C   C49       1.0  0.09575  0.42786  0.60485  1.0000
  C   C50       1.0  0.62635  0.07346  0.89514  1.0000
  C   C51       1.0  0.90425  0.57214  0.39515  1.0000
  C   C52       1.0  0.37366  0.92654  0.10486  1.0000
  C   C53       1.0  0.04619  0.14670  0.61027  1.0000
  C   C54       1.0  0.30239  0.35403  0.89028  1.0000
  C   C55       1.0  0.95382  0.85330  0.38972  1.0000
  C   C56       1.0  0.69760  0.64596  0.10974  1.0000
  C   C57       1.0  0.17597  0.60705  0.71034  1.0000
  C   C58       1.0  0.99315  0.89412  0.78968  1.0000
  C   C59       1.0  0.82405  0.39295  0.28965  1.0000
  C   C60       1.0  0.00687  0.10587  0.21032  1.0000
  C   C61       1.0  0.94176  0.25211  0.49050  1.0000
  C   C62       1.0  0.18159  0.24908  0.01131  1.0000
  C   C63       1.0  0.05824  0.74790  0.50950  1.0000
  C   C64       1.0  0.81841  0.75089  0.98870  1.0000
  C   C65       1.0  0.93445  0.30920  0.55392  1.0000
  C   C66       1.0  0.29524  0.19176  0.94740  1.0000
  C   C67       1.0  0.06555  0.69081  0.44608  1.0000
  C   C68       1.0  0.70477  0.80822  0.05261  1.0000
  C   C69       1.0  0.05467  0.09033  0.54606  1.0000
  C   C70       1.0  0.18980  0.41064  0.95497  1.0000
  C   C71       1.0  0.94531  0.90968  0.45394  1.0000
  C   C72       1.0  0.81019  0.58935  0.04504  1.0000
  C   C73       1.0  0.00203  0.14299  0.48657  1.0000
  C   C74       1.0  0.12942  0.35817  0.01509  1.0000
  C   C75       1.0  0.99797  0.85703  0.51343  1.0000
  C   C76       1.0  0.87057  0.64181  0.98492  1.0000
  C   C77       1.0  0.82883  0.22451  0.87918  1.0000
  C   C78       1.0  0.43282  0.27490  0.62214  1.0000
  C   C79       1.0  0.17117  0.77549  0.12081  1.0000
  C   C80       1.0  0.56717  0.72511  0.37786  1.0000
  N   N1        1.0  0.97932  0.31269  0.67920  1.0000
  N   N2        1.0  0.47044  0.18770  0.82124  1.0000
  N   N3        1.0  0.02069  0.68731  0.32079  1.0000
  N   N4        1.0  0.52956  0.81230  0.17877  1.0000
  O   O1        1.0  0.82834  0.33676  0.05822  1.0000
  O   O2        1.0  0.72417  0.16145  0.44145  1.0000
  O   O3        1.0  0.17165  0.66325  0.94176  1.0000
  O   O4        1.0  0.27585  0.83855  0.55857  1.0000
  O   O5        1.0  0.20650  0.66169  0.65173  1.0000
  O   O6        1.0  0.01844  0.83978  0.84836  1.0000
  O   O7        1.0  0.79354  0.33830  0.34826  1.0000
  O   O8        1.0  0.98158  0.16023  0.15165  1.0000
  O   O9        1.0  0.79035  0.19711  0.04687  1.0000
  O   O10       1.0  0.53537  0.30155  0.45421  1.0000
  O   O11       1.0  0.20966  0.80287  0.95312  1.0000
  O   O12       1.0  0.46460  0.69843  0.54578  1.0000
  O   O13       1.0  0.18042  0.61163  0.78109  1.0000
  O   O14       1.0  0.07472  0.88964  0.71896  1.0000
  O   O15       1.0  0.81961  0.38839  0.21890  1.0000
  O   O16       1.0  0.92530  0.11033  0.28103  1.0000
  O   O17       1.0  0.66985  0.25069  0.25056  1.0000
  O   O18       1.0  0.33017  0.74933  0.74944  1.0000
