data_image0
_chemical_formula_structural       Ba2H28C28N4O22
_chemical_formula_sum              "Ba2 H28 C28 N4 O22"
_cell_length_a       8.32541
_cell_length_b       8.29448
_cell_length_c       14.0214
_cell_angle_alpha    79.8391
_cell_angle_beta     84.6415
_cell_angle_gamma    69.9373

_space_group_name_H-M_alt    "P 1"
_space_group_IT_number       1

loop_
  _space_group_symop_operation_xyz
  'x, y, z'

loop_
  _atom_site_type_symbol
  _atom_site_label
  _atom_site_symmetry_multiplicity
  _atom_site_fract_x
  _atom_site_fract_y
  _atom_site_fract_z
  _atom_site_occupancy
  Ba  Ba1       1.0  0.39488  0.77262  0.53544  1.0000
  Ba  Ba2       1.0  0.60512  0.22738  0.46456  1.0000
  H   H1        1.0  0.51152  0.86678  0.97332  1.0000
  H   H2        1.0  0.48848  0.13322  0.02668  1.0000
  H   H3        1.0  0.77753  0.89728  0.02527  1.0000
  H   H4        1.0  0.22247  0.10273  0.97473  1.0000
  H   H5        1.0  0.02119  0.88672  0.90423  1.0000
  H   H6        1.0  0.97882  0.11329  0.09577  1.0000
  H   H7        1.0  0.99719  0.84436  0.73642  1.0000
  H   H8        1.0  0.00282  0.15564  0.26358  1.0000
  H   H9        1.0  0.62072  0.39864  0.97621  1.0000
  H   H10       1.0  0.37927  0.60137  0.02379  1.0000
  H   H11       1.0  0.90244  0.43083  0.99045  1.0000
  H   H12       1.0  0.09756  0.56917  0.00955  1.0000
  H   H13       1.0  0.10798  0.41101  0.84581  1.0000
  H   H14       1.0  0.89202  0.58899  0.15419  1.0000
  H   H15       1.0  0.02605  0.36247  0.69178  1.0000
  H   H16       1.0  0.97394  0.63752  0.30821  1.0000
  H   H17       1.0  0.74939  0.80525  0.40205  1.0000
  H   H18       1.0  0.25060  0.19476  0.59795  1.0000
  H   H19       1.0  0.03371  0.08871  0.63569  1.0000
  H   H20       1.0  0.96630  0.91128  0.36431  1.0000
  H   H21       1.0  0.22282  0.48159  0.60416  1.0000
  H   H22       1.0  0.77718  0.51841  0.39584  1.0000
  H   H23       1.0  0.78862  0.70041  0.50542  1.0000
  H   H24       1.0  0.21138  0.29959  0.49458  1.0000
  H   H25       1.0  0.17748  0.99573  0.71379  1.0000
  H   H26       1.0  0.82253  0.00427  0.28621  1.0000
  H   H27       1.0  0.06744  0.64401  0.62685  1.0000
  H   H28       1.0  0.93256  0.35599  0.37315  1.0000
  C   C1        1.0  0.74033  0.84105  0.75722  1.0000
  C   C2        1.0  0.25967  0.15896  0.24278  1.0000
  C   C3        1.0  0.60603  0.84845  0.82658  1.0000
  C   C4        1.0  0.39398  0.15155  0.17342  1.0000
  C   C5        1.0  0.61771  0.86801  0.92218  1.0000
  C   C6        1.0  0.38230  0.13199  0.07782  1.0000
  C   C7        1.0  0.76701  0.88290  0.95059  1.0000
  C   C8        1.0  0.23300  0.11711  0.04941  1.0000
  C   C9        1.0  0.90310  0.87564  0.88313  1.0000
  C   C10       1.0  0.09690  0.12436  0.11687  1.0000
  C   C11       1.0  0.89029  0.85220  0.78839  1.0000
  C   C12       1.0  0.10972  0.14780  0.21161  1.0000
  C   C13       1.0  0.72654  0.83740  0.65097  1.0000
  C   C14       1.0  0.27346  0.16260  0.34903  1.0000
  C   C15       1.0  0.77951  0.34953  0.74473  1.0000
  C   C16       1.0  0.22049  0.65046  0.25527  1.0000
  C   C17       1.0  0.66748  0.36220  0.82648  1.0000
  C   C18       1.0  0.33252  0.63780  0.17352  1.0000
  C   C19       1.0  0.71070  0.39098  0.91438  1.0000
  C   C20       1.0  0.28930  0.60902  0.08563  1.0000
  C   C21       1.0  0.86944  0.40794  0.92186  1.0000
  C   C22       1.0  0.13055  0.59207  0.07814  1.0000
  C   C23       1.0  0.98363  0.39627  0.84167  1.0000
  C   C24       1.0  0.01637  0.60373  0.15833  1.0000
  C   C25       1.0  0.93822  0.36705  0.75455  1.0000
  C   C26       1.0  0.06178  0.63295  0.24545  1.0000
  C   C27       1.0  0.73688  0.32780  0.64639  1.0000
  C   C28       1.0  0.26311  0.67220  0.35361  1.0000
  N   N1        1.0  0.50078  0.33998  0.82351  1.0000
  N   N2        1.0  0.49921  0.66002  0.17649  1.0000
  N   N3        1.0  0.44856  0.83114  0.80067  1.0000
  N   N4        1.0  0.55145  0.16886  0.19932  1.0000
  O   O1        1.0  0.59491  0.94453  0.60822  1.0000
  O   O2        1.0  0.40509  0.05547  0.39178  1.0000
  O   O3        1.0  0.84986  0.72943  0.61101  1.0000
  O   O4        1.0  0.15014  0.27058  0.38898  1.0000
  O   O5        1.0  0.45786  0.73175  0.74223  1.0000
  O   O6        1.0  0.54214  0.26825  0.25777  1.0000
  O   O7        1.0  0.31038  0.91652  0.83846  1.0000
  O   O8        1.0  0.68963  0.08348  0.16154  1.0000
  O   O9        1.0  0.61203  0.44302  0.60253  1.0000
  O   O10       1.0  0.38796  0.55698  0.39747  1.0000
  O   O11       1.0  0.83421  0.19465  0.61077  1.0000
  O   O12       1.0  0.16578  0.80535  0.38924  1.0000
  O   O13       1.0  0.48406  0.25063  0.76558  1.0000
  O   O14       1.0  0.51594  0.74936  0.23443  1.0000
  O   O15       1.0  0.38560  0.40936  0.88171  1.0000
  O   O16       1.0  0.61439  0.59066  0.11829  1.0000
  O   O17       1.0  0.72906  0.70549  0.44540  1.0000
  O   O18       1.0  0.27094  0.29451  0.55460  1.0000
  O   O19       1.0  0.16049  0.02546  0.64388  1.0000
  O   O20       1.0  0.83951  0.97453  0.35612  1.0000
  O   O21       1.0  0.19373  0.59427  0.62856  1.0000
  O   O22       1.0  0.80627  0.40572  0.37145  1.0000
