data_image0
_chemical_formula_structural       Ba2H28C28N4O22
_chemical_formula_sum              "Ba2 H28 C28 N4 O22"
_cell_length_a       8.2705
_cell_length_b       8.33805
_cell_length_c       13.8364
_cell_angle_alpha    80.6082
_cell_angle_beta     85.5234
_cell_angle_gamma    70.8825

_space_group_name_H-M_alt    "P 1"
_space_group_IT_number       1

loop_
  _space_group_symop_operation_xyz
  'x, y, z'

loop_
  _atom_site_type_symbol
  _atom_site_label
  _atom_site_symmetry_multiplicity
  _atom_site_fract_x
  _atom_site_fract_y
  _atom_site_fract_z
  _atom_site_occupancy
  Ba  Ba1       1.0  0.60188  0.22720  0.96347  1.0000
  Ba  Ba2       1.0  0.39812  0.77280  0.03653  1.0000
  H   H1        1.0  0.98268  0.06521  0.59867  1.0000
  H   H2        1.0  0.01732  0.93479  0.40133  1.0000
  H   H3        1.0  0.21674  0.07901  0.47313  1.0000
  H   H4        1.0  0.78326  0.92099  0.52687  1.0000
  H   H5        1.0  0.00507  0.11227  0.76635  1.0000
  H   H6        1.0  0.99493  0.88773  0.23365  1.0000
  H   H7        1.0  0.89625  0.61399  0.63478  1.0000
  H   H8        1.0  0.10375  0.38601  0.36522  1.0000
  H   H9        1.0  0.96964  0.66070  0.79553  1.0000
  H   H10       1.0  0.03036  0.33930  0.20447  1.0000
  H   H11       1.0  0.39692  0.61074  0.52008  1.0000
  H   H12       1.0  0.60308  0.38926  0.47992  1.0000
  H   H13       1.0  0.47071  0.14262  0.52263  1.0000
  H   H14       1.0  0.52929  0.85738  0.47737  1.0000
  H   H15       1.0  0.11234  0.58637  0.49550  1.0000
  H   H16       1.0  0.88766  0.41363  0.50450  1.0000
  H   H17       1.0  0.20412  0.31993  0.99720  1.0000
  H   H18       1.0  0.79588  0.68007  0.00280  1.0000
  H   H19       1.0  0.78521  0.43724  0.78516  1.0000
  H   H20       1.0  0.21479  0.56276  0.21484  1.0000
  H   H21       1.0  0.94295  0.35867  0.85691  1.0000
  H   H22       1.0  0.05706  0.64133  0.14309  1.0000
  H   H23       1.0  0.23735  0.40997  0.08640  1.0000
  H   H24       1.0  0.76265  0.59003  0.91360  1.0000
  H   H25       1.0  0.78093  0.87631  0.88688  1.0000
  H   H26       1.0  0.21907  0.12368  0.11312  1.0000
  H   H27       1.0  0.95378  0.91410  0.87933  1.0000
  H   H28       1.0  0.04622  0.08590  0.12067  1.0000
  C   C1        1.0  0.38101  0.15642  0.67145  1.0000
  C   C2        1.0  0.61899  0.84358  0.32855  1.0000
  C   C3        1.0  0.09576  0.09164  0.61790  1.0000
  C   C4        1.0  0.90424  0.90837  0.38210  1.0000
  C   C5        1.0  0.26243  0.16725  0.84934  1.0000
  C   C6        1.0  0.73757  0.83275  0.15067  1.0000
  C   C7        1.0  0.22586  0.09868  0.54815  1.0000
  C   C8        1.0  0.77414  0.90132  0.45185  1.0000
  C   C9        1.0  0.10781  0.11965  0.71337  1.0000
  C   C10       1.0  0.89219  0.88035  0.28663  1.0000
  C   C11       1.0  0.26718  0.67087  0.85358  1.0000
  C   C12       1.0  0.73282  0.32913  0.14642  1.0000
  C   C13       1.0  0.22458  0.65897  0.75136  1.0000
  C   C14       1.0  0.77542  0.34103  0.24864  1.0000
  C   C15       1.0  0.02288  0.62194  0.64451  1.0000
  C   C16       1.0  0.97711  0.37806  0.35548  1.0000
  C   C17       1.0  0.06345  0.64929  0.73522  1.0000
  C   C18       1.0  0.93656  0.35071  0.26478  1.0000
  C   C19       1.0  0.25141  0.15145  0.74285  1.0000
  C   C20       1.0  0.74859  0.84855  0.25715  1.0000
  C   C21       1.0  0.34188  0.64368  0.67177  1.0000
  C   C22       1.0  0.65812  0.35632  0.32823  1.0000
  C   C23       1.0  0.30348  0.61759  0.58031  1.0000
  C   C24       1.0  0.69652  0.38241  0.41969  1.0000
  C   C25       1.0  0.36852  0.13235  0.57514  1.0000
  C   C26       1.0  0.63148  0.86765  0.42486  1.0000
  C   C27       1.0  0.14303  0.60592  0.56688  1.0000
  C   C28       1.0  0.85697  0.39408  0.43312  1.0000
  N   N1        1.0  0.51088  0.65801  0.68209  1.0000
  N   N2        1.0  0.48912  0.34199  0.31791  1.0000
  N   N3        1.0  0.53404  0.19319  0.69332  1.0000
  N   N4        1.0  0.46596  0.80681  0.30668  1.0000
  O   O1        1.0  0.39859  0.55867  0.89278  1.0000
  O   O2        1.0  0.60141  0.44133  0.10722  1.0000
  O   O3        1.0  0.81403  0.40788  0.85422  1.0000
  O   O4        1.0  0.18597  0.59212  0.14578  1.0000
  O   O5        1.0  0.52362  0.27819  0.76102  1.0000
  O   O6        1.0  0.47638  0.72181  0.23898  1.0000
  O   O7        1.0  0.16630  0.79115  0.89624  1.0000
  O   O8        1.0  0.83370  0.20885  0.10376  1.0000
  O   O9        1.0  0.27290  0.30303  0.05616  1.0000
  O   O10       1.0  0.72710  0.69697  0.94384  1.0000
  O   O11       1.0  0.38793  0.06205  0.89716  1.0000
  O   O12       1.0  0.61207  0.93795  0.10284  1.0000
  O   O13       1.0  0.14214  0.28406  0.88457  1.0000
  O   O14       1.0  0.85786  0.71594  0.11543  1.0000
  O   O15       1.0  0.52498  0.75785  0.73551  1.0000
  O   O16       1.0  0.47502  0.24215  0.26449  1.0000
  O   O17       1.0  0.63350  0.56779  0.63533  1.0000
  O   O18       1.0  0.36650  0.43221  0.36467  1.0000
  O   O19       1.0  0.66519  0.14339  0.64180  1.0000
  O   O20       1.0  0.33481  0.85661  0.35820  1.0000
  O   O21       1.0  0.82868  0.97303  0.87313  1.0000
  O   O22       1.0  0.17132  0.02697  0.12687  1.0000
