data_image0
_chemical_formula_structural       Na2H24C12S2O17
_chemical_formula_sum              "Na2 H24 C12 S2 O17"
_cell_length_a       6.14227
_cell_length_b       9.64557
_cell_length_c       9.92774
_cell_angle_alpha    78.6934
_cell_angle_beta     76.1705
_cell_angle_gamma    71.9705

_space_group_name_H-M_alt    "P 1"
_space_group_IT_number       1

loop_
  _space_group_symop_operation_xyz
  'x, y, z'

loop_
  _atom_site_type_symbol
  _atom_site_label
  _atom_site_symmetry_multiplicity
  _atom_site_fract_x
  _atom_site_fract_y
  _atom_site_fract_z
  _atom_site_occupancy
  Na  Na1       1.0  0.61217  0.87588  0.35545  1.0000
  Na  Na2       1.0  0.38434  0.12430  0.64148  1.0000
  H   H1        1.0  0.20313  0.94129  0.23571  1.0000
  H   H2        1.0  0.81381  0.57811  0.32500  1.0000
  H   H3        1.0  0.26477  0.68914  0.06466  1.0000
  H   H4        1.0  0.18794  0.72180  0.37576  1.0000
  H   H5        1.0  0.62622  0.61499  0.15672  1.0000
  H   H6        1.0  0.42288  0.42241  0.40539  1.0000
  H   H7        1.0  0.39568  0.43186  0.09830  1.0000
  H   H8        1.0  0.25637  0.33400  0.24834  1.0000
  H   H9        1.0  0.70335  0.90615  0.04627  1.0000
  H   H10       1.0  0.90777  0.74324  0.98614  1.0000
  H   H11       1.0  0.99618  0.90873  0.96332  1.0000
  H   H12       1.0  0.94854  0.05651  0.75606  1.0000
  H   H13       1.0  0.26233  0.42122  0.68087  1.0000
  H   H14       1.0  0.63620  0.29947  0.94234  1.0000
  H   H15       1.0  0.81095  0.27846  0.62721  1.0000
  H   H16       1.0  0.97765  0.38548  0.84585  1.0000
  H   H17       1.0  0.76879  0.57106  0.59687  1.0000
  H   H18       1.0  0.54656  0.56044  0.90953  1.0000
  H   H19       1.0  0.40619  0.65962  0.76708  1.0000
  H   H20       1.0  0.30156  0.06184  0.96234  1.0000
  H   H21       1.0  0.19870  0.25164  0.98746  1.0000
  H   H22       1.0  0.44786  0.13492  0.05679  1.0000
  H   H23       1.0  0.17290  0.06140  0.42446  1.0000
  H   H24       1.0  0.17097  0.94950  0.56193  1.0000
  C   C1        1.0  0.15756  0.69425  0.17151  1.0000
  C   C2        1.0  0.29290  0.72282  0.26870  1.0000
  C   C3        1.0  0.52234  0.60192  0.26380  1.0000
  C   C4        1.0  0.48335  0.44885  0.29236  1.0000
  C   C5        1.0  0.31174  0.43451  0.20958  1.0000
  C   C6        1.0  0.88656  0.84254  0.03201  1.0000
  C   C7        1.0  0.60815  0.29809  0.83634  1.0000
  C   C8        1.0  0.84156  0.27434  0.73332  1.0000
  C   C9        1.0  0.94721  0.39662  0.73831  1.0000
  C   C10       1.0  0.77779  0.54775  0.70871  1.0000
  C   C11       1.0  0.53514  0.55915  0.80032  1.0000
  C   C12       1.0  0.35419  0.15796  0.96996  1.0000
  S   S1        1.0  0.76744  0.18039  0.31953  1.0000
  S   S2        1.0  0.81132  0.81954  0.66934  1.0000
  O   O1        1.0  0.10427  0.55535  0.22178  1.0000
  O   O2        1.0  0.94898  0.80400  0.16878  1.0000
  O   O3        1.0  0.34706  0.85998  0.22011  1.0000
  O   O4        1.0  0.64572  0.61771  0.36226  1.0000
  O   O5        1.0  0.71474  0.35189  0.24938  1.0000
  O   O6        1.0  0.64322  0.11229  0.25529  1.0000
  O   O7        1.0  0.68721  0.18116  0.47050  1.0000
  O   O8        1.0  0.02264  0.13069  0.27738  1.0000
  O   O9        1.0  0.45150  0.43783  0.79299  1.0000
  O   O10       1.0  0.50697  0.18713  0.83865  1.0000
  O   O11       1.0  0.99849  0.13758  0.77502  1.0000
  O   O12       1.0  0.16411  0.38142  0.64180  1.0000
  O   O13       1.0  0.88183  0.64953  0.74327  1.0000
  O   O14       1.0  0.57117  0.88490  0.73516  1.0000
  O   O15       1.0  0.84525  0.81376  0.51962  1.0000
  O   O16       1.0  0.98374  0.87563  0.70582  1.0000
  O   O17       1.0  0.26927  0.00555  0.49419  1.0000
