data_image0
_chemical_formula_structural       Cu2H40C32N16Cl4
_chemical_formula_sum              "Cu2 H40 C32 N16 Cl4"
_cell_length_a       7.25063
_cell_length_b       11.4735
_cell_length_c       12.7304
_cell_angle_alpha    109.946
_cell_angle_beta     89.9999
_cell_angle_gamma    90

_space_group_name_H-M_alt    "P 1"
_space_group_IT_number       1

loop_
  _space_group_symop_operation_xyz
  'x, y, z'

loop_
  _atom_site_type_symbol
  _atom_site_label
  _atom_site_symmetry_multiplicity
  _atom_site_fract_x
  _atom_site_fract_y
  _atom_site_fract_z
  _atom_site_occupancy
  Cu  Cu1       1.0  0.25392  0.82861  0.41673  1.0000
  Cu  Cu2       1.0  0.75392  0.17139  0.58327  1.0000
  H   H1        1.0  0.18666  0.93916  0.61492  1.0000
  H   H2        1.0  0.68666  0.06084  0.38508  1.0000
  H   H3        1.0  0.98389  0.89283  0.55551  1.0000
  H   H4        1.0  0.48389  0.10717  0.44449  1.0000
  H   H5        1.0  0.52328  0.83492  0.29035  1.0000
  H   H6        1.0  0.02329  0.16508  0.70965  1.0000
  H   H7        1.0  0.32076  0.84100  0.23047  1.0000
  H   H8        1.0  0.82077  0.15899  0.76953  1.0000
  H   H9        1.0  0.99138  0.63292  0.45445  1.0000
  H   H10       1.0  0.49137  0.36707  0.54555  1.0000
  H   H11       1.0  0.83105  0.70417  0.56370  1.0000
  H   H12       1.0  0.33105  0.29583  0.43631  1.0000
  H   H13       1.0  0.97730  0.58383  0.57320  1.0000
  H   H14       1.0  0.47729  0.41617  0.42680  1.0000
  H   H15       1.0  0.25385  0.71617  0.58689  1.0000
  H   H16       1.0  0.75386  0.28383  0.41311  1.0000
  H   H17       1.0  0.90802  0.95504  0.74487  1.0000
  H   H18       1.0  0.40803  0.04496  0.25513  1.0000
  H   H19       1.0  0.88418  0.02337  0.95171  1.0000
  H   H20       1.0  0.38420  0.97664  0.04829  1.0000
  H   H21       1.0  0.23304  0.72057  0.95367  1.0000
  H   H22       1.0  0.73305  0.27946  0.04635  1.0000
  H   H23       1.0  0.27122  0.65970  0.74804  1.0000
  H   H24       1.0  0.77123  0.34031  0.25198  1.0000
  H   H25       1.0  0.54858  0.49626  0.20486  1.0000
  H   H26       1.0  0.04859  0.50374  0.79514  1.0000
  H   H27       1.0  0.48370  0.60030  0.33912  1.0000
  H   H28       1.0  0.98371  0.39970  0.66088  1.0000
  H   H29       1.0  0.67791  0.63410  0.26947  1.0000
  H   H30       1.0  0.17792  0.36589  0.73053  1.0000
  H   H31       1.0  0.27398  0.62254  0.19394  1.0000
  H   H32       1.0  0.77398  0.37746  0.80606  1.0000
  H   H33       1.0  0.62695  0.82053  0.12418  1.0000
  H   H34       1.0  0.12693  0.17946  0.87581  1.0000
  H   H35       1.0  0.71580  0.79003  0.92948  1.0000
  H   H36       1.0  0.21578  0.20995  0.07051  1.0000
  H   H37       1.0  0.44809  0.43399  0.81812  1.0000
  H   H38       1.0  0.94807  0.56600  0.18188  1.0000
  H   H39       1.0  0.34793  0.46671  0.01275  1.0000
  H   H40       1.0  0.84791  0.53328  0.98725  1.0000
  C   C1        1.0  0.97021  0.66425  0.54521  1.0000
  C   C2        1.0  0.47020  0.33575  0.45480  1.0000
  C   C3        1.0  0.11674  0.75961  0.60562  1.0000
  C   C4        1.0  0.61673  0.24039  0.39438  1.0000
  C   C5        1.0  0.09378  0.80327  0.73173  1.0000
  C   C6        1.0  0.59378  0.19673  0.26828  1.0000
  C   C7        1.0  0.98406  0.90516  0.79022  1.0000
  C   C8        1.0  0.48406  0.09485  0.20978  1.0000
  C   C9        1.0  0.96764  0.94324  0.90624  1.0000
  C   C10       1.0  0.46765  0.05677  0.09376  1.0000
  C   C11       1.0  0.05766  0.87630  0.96416  1.0000
  C   C12       1.0  0.55767  0.12372  0.03585  1.0000
  C   C13       1.0  0.16473  0.77282  0.90780  1.0000
  C   C14       1.0  0.66476  0.22719  0.09222  1.0000
  C   C15       1.0  0.18367  0.73851  0.79217  1.0000
  C   C16       1.0  0.68367  0.26150  0.20784  1.0000
  C   C17       1.0  0.53856  0.59427  0.25715  1.0000
  C   C18       1.0  0.03857  0.40572  0.74285  1.0000
  C   C19       1.0  0.41317  0.66248  0.20076  1.0000
  C   C20       1.0  0.91317  0.33752  0.79924  1.0000
  C   C21       1.0  0.47737  0.64668  0.08302  1.0000
  C   C22       1.0  0.97736  0.35332  0.91697  1.0000
  C   C23       1.0  0.58342  0.73601  0.05824  1.0000
  C   C24       1.0  0.08341  0.26398  0.94175  1.0000
  C   C25       1.0  0.63645  0.71928  0.94854  1.0000
  C   C26       1.0  0.13644  0.28071  0.05145  1.0000
  C   C27       1.0  0.58530  0.61106  0.86308  1.0000
  C   C28       1.0  0.08529  0.38892  0.13691  1.0000
  C   C29       1.0  0.48351  0.51904  0.88572  1.0000
  C   C30       1.0  0.98351  0.48096  0.11428  1.0000
  C   C31       1.0  0.42972  0.53792  0.99542  1.0000
  C   C32       1.0  0.92971  0.46208  0.00457  1.0000
  N   N1        1.0  0.11715  0.86373  0.56139  1.0000
  N   N2        1.0  0.61715  0.13627  0.43862  1.0000
  N   N3        1.0  0.39437  0.79432  0.27229  1.0000
  N   N4        1.0  0.89438  0.20568  0.72770  1.0000
  N   N5        1.0  0.48857  0.81921  0.50112  1.0000
  N   N6        1.0  0.98859  0.18078  0.49887  1.0000
  N   N7        1.0  0.02400  0.76241  0.32389  1.0000
  N   N8        1.0  0.52400  0.23760  0.67611  1.0000
  N   N9        1.0  0.60382  0.89554  0.53975  1.0000
  N   N10       1.0  0.10384  0.10445  0.46024  1.0000
  N   N11       1.0  0.72391  0.96680  0.57981  1.0000
  N   N12       1.0  0.22393  0.03320  0.42018  1.0000
  N   N13       1.0  0.90289  0.83040  0.31783  1.0000
  N   N14       1.0  0.40289  0.16961  0.68217  1.0000
  N   N15       1.0  0.78090  0.89363  0.30819  1.0000
  N   N16       1.0  0.28090  0.10637  0.69180  1.0000
  Cl  Cl1       1.0  0.03022  0.92132  0.10821  1.0000
  Cl  Cl2       1.0  0.53023  0.07872  0.89180  1.0000
  Cl  Cl3       1.0  0.64717  0.59138  0.72628  1.0000
  Cl  Cl4       1.0  0.14717  0.40860  0.27370  1.0000
