data_image0
_chemical_formula_structural       Cu2H52C36N16
_chemical_formula_sum              "Cu2 H52 C36 N16"
_cell_length_a       7.24078
_cell_length_b       11.5627
_cell_length_c       12.7549
_cell_angle_alpha    110.427
_cell_angle_beta     90
_cell_angle_gamma    90

_space_group_name_H-M_alt    "P 1"
_space_group_IT_number       1

loop_
  _space_group_symop_operation_xyz
  'x, y, z'

loop_
  _atom_site_type_symbol
  _atom_site_label
  _atom_site_symmetry_multiplicity
  _atom_site_fract_x
  _atom_site_fract_y
  _atom_site_fract_z
  _atom_site_occupancy
  Cu  Cu1       1.0  0.74691  0.82873  0.42191  1.0000
  Cu  Cu2       1.0  0.24690  0.17127  0.57809  1.0000
  H   H1        1.0  0.82587  0.84344  0.23920  1.0000
  H   H2        1.0  0.32586  0.15656  0.76081  1.0000
  H   H3        1.0  0.47154  0.89424  0.55822  1.0000
  H   H4        1.0  0.97154  0.10575  0.44177  1.0000
  H   H5        1.0  0.67460  0.94190  0.61819  1.0000
  H   H6        1.0  0.17460  0.05809  0.38181  1.0000
  H   H7        1.0  0.02489  0.82851  0.29799  1.0000
  H   H8        1.0  0.52489  0.17149  0.70202  1.0000
  H   H9        1.0  0.97571  0.59881  0.34064  1.0000
  H   H10       1.0  0.47572  0.40119  0.65937  1.0000
  H   H11       1.0  0.16806  0.62626  0.26641  1.0000
  H   H12       1.0  0.66806  0.37374  0.73359  1.0000
  H   H13       1.0  0.02988  0.49277  0.20421  1.0000
  H   H14       1.0  0.52989  0.50723  0.79580  1.0000
  H   H15       1.0  0.76061  0.62601  0.19826  1.0000
  H   H16       1.0  0.26061  0.37400  0.80174  1.0000
  H   H17       1.0  0.11433  0.81940  0.12932  1.0000
  H   H18       1.0  0.61433  0.18060  0.87068  1.0000
  H   H19       1.0  0.20226  0.79152  0.93587  1.0000
  H   H20       1.0  0.70227  0.20849  0.06414  1.0000
  H   H21       1.0  0.21362  0.67442  0.74302  1.0000
  H   H22       1.0  0.71361  0.32559  0.25699  1.0000
  H   H23       1.0  0.00305  0.59613  0.69226  1.0000
  H   H24       1.0  0.50303  0.40388  0.30774  1.0000
  H   H25       1.0  0.19853  0.51152  0.70522  1.0000
  H   H26       1.0  0.69851  0.48849  0.29479  1.0000
  H   H27       1.0  0.92715  0.44037  0.81990  1.0000
  H   H28       1.0  0.42715  0.55963  0.18010  1.0000
  H   H29       1.0  0.82849  0.47043  0.01296  1.0000
  H   H30       1.0  0.32849  0.52957  0.98704  1.0000
  H   H31       1.0  0.48550  0.63506  0.45976  1.0000
  H   H32       1.0  0.98549  0.36492  0.54024  1.0000
  H   H33       1.0  0.32031  0.70625  0.56611  1.0000
  H   H34       1.0  0.82030  0.29374  0.43388  1.0000
  H   H35       1.0  0.46759  0.58915  0.57938  1.0000
  H   H36       1.0  0.96758  0.41084  0.42062  1.0000
  H   H37       1.0  0.74280  0.72315  0.59546  1.0000
  H   H38       1.0  0.24280  0.27684  0.40454  1.0000
  H   H39       1.0  0.40682  0.96771  0.74920  1.0000
  H   H40       1.0  0.90681  0.03229  0.25079  1.0000
  H   H41       1.0  0.37517  0.03876  0.95537  1.0000
  H   H42       1.0  0.87517  0.96124  0.04462  1.0000
  H   H43       1.0  0.56302  0.86377  0.13285  1.0000
  H   H44       1.0  0.06303  0.13623  0.86714  1.0000
  H   H45       1.0  0.35956  0.94416  0.12173  1.0000
  H   H46       1.0  0.85957  0.05584  0.87826  1.0000
  H   H47       1.0  0.57410  0.02053  0.14107  1.0000
  H   H48       1.0  0.07411  0.97947  0.85893  1.0000
  H   H49       1.0  0.69610  0.72840  0.96160  1.0000
  H   H50       1.0  0.19611  0.27161  0.03840  1.0000
  H   H51       1.0  0.73866  0.66302  0.75768  1.0000
  H   H52       1.0  0.23867  0.33698  0.24232  1.0000
  C   C1        1.0  0.02623  0.59050  0.25710  1.0000
  C   C2        1.0  0.52624  0.40950  0.74290  1.0000
  C   C3        1.0  0.90234  0.66201  0.20406  1.0000
  C   C4        1.0  0.40234  0.33799  0.79594  1.0000
  C   C5        1.0  0.96306  0.64763  0.08600  1.0000
  C   C6        1.0  0.46306  0.35237  0.91400  1.0000
  C   C7        1.0  0.06944  0.73639  0.06213  1.0000
  C   C8        1.0  0.56944  0.26361  0.93787  1.0000
  C   C9        1.0  0.12053  0.72049  0.95235  1.0000
  C   C10       1.0  0.62053  0.27951  0.04765  1.0000
  C   C11       1.0  0.06958  0.61476  0.86313  1.0000
  C   C12       1.0  0.56958  0.38524  0.13687  1.0000
  C   C13       1.0  0.12421  0.59871  0.74512  1.0000
  C   C14       1.0  0.62420  0.40130  0.25489  1.0000
  C   C15       1.0  0.96555  0.52482  0.88765  1.0000
  C   C16       1.0  0.46555  0.47518  0.11236  1.0000
  C   C17       1.0  0.91186  0.54112  0.99677  1.0000
  C   C18       1.0  0.41185  0.45888  0.00323  1.0000
  C   C19       1.0  0.46074  0.66787  0.55035  1.0000
  C   C20       1.0  0.96073  0.33212  0.44965  1.0000
  C   C21       1.0  0.60428  0.76495  0.61202  1.0000
  C   C22       1.0  0.10428  0.23504  0.38798  1.0000
  C   C23       1.0  0.57744  0.81091  0.73817  1.0000
  C   C24       1.0  0.07744  0.18909  0.26183  1.0000
  C   C25       1.0  0.47386  0.91624  0.79575  1.0000
  C   C26       1.0  0.97386  0.08376  0.20424  1.0000
  C   C27       1.0  0.45386  0.95542  0.91174  1.0000
  C   C28       1.0  0.95386  0.04459  0.08826  1.0000
  C   C29       1.0  0.53220  0.88912  0.97402  1.0000
  C   C30       1.0  0.03220  0.11089  0.02597  1.0000
  C   C31       1.0  0.50621  0.93126  0.09867  1.0000
  C   C32       1.0  0.00622  0.06874  0.90133  1.0000
  C   C33       1.0  0.63336  0.78263  0.91601  1.0000
  C   C34       1.0  0.13337  0.21738  0.08399  1.0000
  C   C35       1.0  0.65683  0.74520  0.80034  1.0000
  C   C36       1.0  0.15683  0.25480  0.19965  1.0000
  N   N1        1.0  0.89252  0.79275  0.27931  1.0000
  N   N2        1.0  0.39251  0.20725  0.72069  1.0000
  N   N3        1.0  0.60519  0.86591  0.56541  1.0000
  N   N4        1.0  0.10519  0.13409  0.43459  1.0000
  N   N5        1.0  0.97807  0.82210  0.51130  1.0000
  N   N6        1.0  0.47807  0.17790  0.48870  1.0000
  N   N7        1.0  0.52150  0.76103  0.32412  1.0000
  N   N8        1.0  0.02150  0.23897  0.67588  1.0000
  N   N9        1.0  0.09812  0.89650  0.54244  1.0000
  N   N10       1.0  0.59812  0.10351  0.45756  1.0000
  N   N11       1.0  0.22230  0.96677  0.57495  1.0000
  N   N12       1.0  0.72230  0.03323  0.42505  1.0000
  N   N13       1.0  0.39624  0.82646  0.31984  1.0000
  N   N14       1.0  0.89624  0.17353  0.68016  1.0000
  N   N15       1.0  0.27042  0.88789  0.31280  1.0000
  N   N16       1.0  0.77041  0.11211  0.68720  1.0000
