data_image0
_chemical_formula_structural       Cu2H40C32Br4N16
_chemical_formula_sum              "Cu2 H40 C32 Br4 N16"
_cell_length_a       7.26457
_cell_length_b       11.4444
_cell_length_c       12.9233
_cell_angle_alpha    110.184
_cell_angle_beta     90.0005
_cell_angle_gamma    89.9996

_space_group_name_H-M_alt    "P 1"
_space_group_IT_number       1

loop_
  _space_group_symop_operation_xyz
  'x, y, z'

loop_
  _atom_site_type_symbol
  _atom_site_label
  _atom_site_symmetry_multiplicity
  _atom_site_fract_x
  _atom_site_fract_y
  _atom_site_fract_z
  _atom_site_occupancy
  Cu  Cu1       1.0  0.55623  0.32739  0.41930  1.0000
  Cu  Cu2       1.0  0.05622  0.67263  0.58070  1.0000
  H   H1        1.0  0.28715  0.39207  0.55666  1.0000
  H   H2        1.0  0.78714  0.60794  0.44335  1.0000
  H   H3        1.0  0.48981  0.44000  0.61461  1.0000
  H   H4        1.0  0.98981  0.56000  0.38539  1.0000
  H   H5        1.0  0.82412  0.33374  0.29448  1.0000
  H   H6        1.0  0.32411  0.66626  0.70552  1.0000
  H   H7        1.0  0.62121  0.34095  0.23644  1.0000
  H   H8        1.0  0.12120  0.65905  0.76355  1.0000
  H   H9        1.0  0.30193  0.13057  0.45648  1.0000
  H   H10       1.0  0.80190  0.86943  0.54350  1.0000
  H   H11       1.0  0.13857  0.20176  0.56260  1.0000
  H   H12       1.0  0.63857  0.79823  0.43738  1.0000
  H   H13       1.0  0.28564  0.08232  0.57349  1.0000
  H   H14       1.0  0.78562  0.91769  0.42649  1.0000
  H   H15       1.0  0.55957  0.21781  0.58934  1.0000
  H   H16       1.0  0.05956  0.78220  0.41067  1.0000
  H   H17       1.0  0.21508  0.45833  0.74323  1.0000
  H   H18       1.0  0.71509  0.54167  0.25677  1.0000
  H   H19       1.0  0.18647  0.52723  0.94660  1.0000
  H   H20       1.0  0.68647  0.47276  0.05341  1.0000
  H   H21       1.0  0.52453  0.21897  0.95000  1.0000
  H   H22       1.0  0.02452  0.78103  0.04999  1.0000
  H   H23       1.0  0.56653  0.15749  0.74767  1.0000
  H   H24       1.0  0.06653  0.84251  0.25232  1.0000
  H   H25       1.0  0.79294  0.09928  0.33933  1.0000
  H   H26       1.0  0.29296  0.90073  0.66068  1.0000
  H   H27       1.0  0.85262  0.99499  0.20589  1.0000
  H   H28       1.0  0.35263  0.00501  0.79413  1.0000
  H   H29       1.0  0.98254  0.13341  0.26755  1.0000
  H   H30       1.0  0.48254  0.86659  0.73247  1.0000
  H   H31       1.0  0.57614  0.12038  0.19873  1.0000
  H   H32       1.0  0.07614  0.87963  0.80127  1.0000
  H   H33       1.0  0.91815  0.32422  0.13068  1.0000
  H   H34       1.0  0.41815  0.67578  0.86932  1.0000
  H   H35       1.0  0.00511  0.29775  0.93976  1.0000
  H   H36       1.0  0.50511  0.70224  0.06024  1.0000
  H   H37       1.0  0.74953  0.93550  0.82553  1.0000
  H   H38       1.0  0.24951  0.06449  0.17448  1.0000
  H   H39       1.0  0.65132  0.96491  0.01683  1.0000
  H   H40       1.0  0.15131  0.03508  0.98318  1.0000
  C   C1        1.0  0.27817  0.16261  0.54575  1.0000
  C   C2        1.0  0.77814  0.83740  0.45424  1.0000
  C   C3        1.0  0.42161  0.25996  0.60663  1.0000
  C   C4        1.0  0.92159  0.74004  0.39337  1.0000
  C   C5        1.0  0.39616  0.30420  0.73093  1.0000
  C   C6        1.0  0.89616  0.69581  0.26907  1.0000
  C   C7        1.0  0.28812  0.40749  0.78809  1.0000
  C   C8        1.0  0.78811  0.59251  0.21190  1.0000
  C   C9        1.0  0.26901  0.44596  0.90245  1.0000
  C   C10       1.0  0.76899  0.55404  0.09755  1.0000
  C   C11       1.0  0.35482  0.37777  0.95959  1.0000
  C   C12       1.0  0.85483  0.62222  0.04041  1.0000
  C   C13       1.0  0.45983  0.27259  0.90480  1.0000
  C   C14       1.0  0.95984  0.72739  0.09519  1.0000
  C   C15       1.0  0.48105  0.23791  0.79082  1.0000
  C   C16       1.0  0.98105  0.76210  0.20917  1.0000
  C   C17       1.0  0.84366  0.09332  0.25776  1.0000
  C   C18       1.0  0.34366  0.90669  0.74225  1.0000
  C   C19       1.0  0.71424  0.16144  0.20451  1.0000
  C   C20       1.0  0.21424  0.83857  0.79549  1.0000
  C   C21       1.0  0.77486  0.14741  0.08820  1.0000
  C   C22       1.0  0.27485  0.85259  0.91180  1.0000
  C   C23       1.0  0.87662  0.23929  0.06493  1.0000
  C   C24       1.0  0.37661  0.76070  0.93507  1.0000
  C   C25       1.0  0.92869  0.22486  0.95717  1.0000
  C   C26       1.0  0.42867  0.77512  0.04283  1.0000
  C   C27       1.0  0.88056  0.11588  0.87224  1.0000
  C   C28       1.0  0.38056  0.88410  0.12776  1.0000
  C   C29       1.0  0.78286  0.02116  0.89284  1.0000
  C   C30       1.0  0.28285  0.97883  0.10717  1.0000
  C   C31       1.0  0.72989  0.03817  0.00086  1.0000
  C   C32       1.0  0.22988  0.96182  0.99915  1.0000
  Br  Br1       1.0  0.31856  0.42738  0.11529  1.0000
  Br  Br2       1.0  0.81855  0.57262  0.88471  1.0000
  Br  Br3       1.0  0.94901  0.09770  0.72492  1.0000
  Br  Br4       1.0  0.44900  0.90228  0.27507  1.0000
  N   N1        1.0  0.42048  0.36365  0.56247  1.0000
  N   N2        1.0  0.92047  0.63636  0.43753  1.0000
  N   N3        1.0  0.69534  0.29334  0.27654  1.0000
  N   N4        1.0  0.19534  0.70667  0.72346  1.0000
  N   N5        1.0  0.79054  0.31860  0.50255  1.0000
  N   N6        1.0  0.29054  0.68141  0.49745  1.0000
  N   N7        1.0  0.32713  0.25960  0.32757  1.0000
  N   N8        1.0  0.82712  0.74041  0.67243  1.0000
  N   N9        1.0  0.90597  0.39518  0.54020  1.0000
  N   N10       1.0  0.40598  0.60482  0.45980  1.0000
  N   N11       1.0  0.02606  0.46673  0.57938  1.0000
  N   N12       1.0  0.52606  0.53327  0.42062  1.0000
  N   N13       1.0  0.20560  0.32753  0.32223  1.0000
  N   N14       1.0  0.70558  0.67247  0.67777  1.0000
  N   N15       1.0  0.08333  0.39067  0.31295  1.0000
  N   N16       1.0  0.58332  0.60934  0.68705  1.0000
