data_image0
_chemical_formula_structural       Zn4P4H24C12N4O20
_chemical_formula_sum              "Zn4 P4 H24 C12 N4 O20"
_cell_length_a       8.25825
_cell_length_b       8.81967
_cell_length_c       9.79534
_cell_angle_alpha    90.0004
_cell_angle_beta     90
_cell_angle_gamma    109.373

_space_group_name_H-M_alt    "P 1"
_space_group_IT_number       1

loop_
  _space_group_symop_operation_xyz
  'x, y, z'

loop_
  _atom_site_type_symbol
  _atom_site_label
  _atom_site_symmetry_multiplicity
  _atom_site_fract_x
  _atom_site_fract_y
  _atom_site_fract_z
  _atom_site_occupancy
  Zn  Zn1       1.0  0.65427  0.64274  0.81437  1.0000
  Zn  Zn2       1.0  0.65427  0.14274  0.68563  1.0000
  Zn  Zn3       1.0  0.34573  0.35726  0.18563  1.0000
  Zn  Zn4       1.0  0.34574  0.85726  0.31437  1.0000
  P   P1        1.0  0.42868  0.72157  0.04535  1.0000
  P   P2        1.0  0.42868  0.22157  0.45465  1.0000
  P   P3        1.0  0.57132  0.27843  0.95465  1.0000
  P   P4        1.0  0.57132  0.77843  0.54535  1.0000
  H   H1        1.0  0.10756  0.89579  0.03184  1.0000
  H   H2        1.0  0.10755  0.39579  0.46816  1.0000
  H   H3        1.0  0.89244  0.10421  0.96816  1.0000
  H   H4        1.0  0.89244  0.60421  0.53184  1.0000
  H   H5        1.0  0.14863  0.01510  0.89311  1.0000
  H   H6        1.0  0.14863  0.51510  0.60689  1.0000
  H   H7        1.0  0.85137  0.98490  0.10689  1.0000
  H   H8        1.0  0.85137  0.48490  0.39311  1.0000
  H   H9        1.0  0.31029  0.00036  0.98965  1.0000
  H   H10       1.0  0.31030  0.50035  0.51035  1.0000
  H   H11       1.0  0.68971  0.99965  0.01034  1.0000
  H   H12       1.0  0.68970  0.49965  0.48965  1.0000
  H   H13       1.0  0.21973  0.56157  0.88716  1.0000
  H   H14       1.0  0.21973  0.06157  0.61284  1.0000
  H   H15       1.0  0.78027  0.43843  0.11284  1.0000
  H   H16       1.0  0.78027  0.93843  0.38716  1.0000
  H   H17       1.0  0.12017  0.62349  0.02695  1.0000
  H   H18       1.0  0.12017  0.12349  0.47304  1.0000
  H   H19       1.0  0.87983  0.37651  0.97305  1.0000
  H   H20       1.0  0.87983  0.87651  0.52695  1.0000
  H   H21       1.0  0.31015  0.84494  0.79270  1.0000
  H   H22       1.0  0.31015  0.34493  0.70730  1.0000
  H   H23       1.0  0.68985  0.15507  0.20730  1.0000
  H   H24       1.0  0.68985  0.65507  0.29269  1.0000
  C   C1        1.0  0.22564  0.66465  0.95244  1.0000
  C   C2        1.0  0.22564  0.16465  0.54756  1.0000
  C   C3        1.0  0.77436  0.33535  0.04756  1.0000
  C   C4        1.0  0.77436  0.83535  0.45244  1.0000
  C   C5        1.0  0.20106  0.79848  0.86303  1.0000
  C   C6        1.0  0.20106  0.29848  0.63697  1.0000
  C   C7        1.0  0.79894  0.20152  0.13697  1.0000
  C   C8        1.0  0.79894  0.70152  0.36303  1.0000
  C   C9        1.0  0.03353  0.72710  0.78223  1.0000
  C   C10       1.0  0.03354  0.22709  0.71776  1.0000
  C   C11       1.0  0.96646  0.27292  0.21778  1.0000
  C   C12       1.0  0.96646  0.77291  0.28223  1.0000
  N   N1        1.0  0.19149  0.93512  0.94906  1.0000
  N   N2        1.0  0.19149  0.43512  0.55094  1.0000
  N   N3        1.0  0.80851  0.06488  0.05094  1.0000
  N   N4        1.0  0.80851  0.56488  0.44906  1.0000
  O   O1        1.0  0.42861  0.58057  0.13477  1.0000
  O   O2        1.0  0.42862  0.08058  0.36523  1.0000
  O   O3        1.0  0.57138  0.41942  0.86523  1.0000
  O   O4        1.0  0.57139  0.91943  0.63477  1.0000
  O   O5        1.0  0.57446  0.77293  0.94019  1.0000
  O   O6        1.0  0.57446  0.27293  0.55982  1.0000
  O   O7        1.0  0.42553  0.22707  0.05981  1.0000
  O   O8        1.0  0.42554  0.72707  0.44019  1.0000
  O   O9        1.0  0.43860  0.87171  0.13062  1.0000
  O   O10       1.0  0.43860  0.37171  0.36938  1.0000
  O   O11       1.0  0.56139  0.12829  0.86938  1.0000
  O   O12       1.0  0.56140  0.62829  0.63062  1.0000
  O   O13       1.0  0.90409  0.75464  0.83414  1.0000
  O   O14       1.0  0.90410  0.25464  0.66586  1.0000
  O   O15       1.0  0.09592  0.24536  0.16586  1.0000
  O   O16       1.0  0.09591  0.74536  0.33415  1.0000
  O   O17       1.0  0.03528  0.64518  0.67733  1.0000
  O   O18       1.0  0.03528  0.14518  0.82266  1.0000
  O   O19       1.0  0.96472  0.35481  0.32265  1.0000
  O   O20       1.0  0.96473  0.85480  0.17734  1.0000
