data_image0
_chemical_formula_structural       Zn4H48C48O16
_chemical_formula_sum              "Zn4 H48 C48 O16"
_cell_length_a       8.76896
_cell_length_b       9.25812
_cell_length_c       17.301
_cell_angle_alpha    83.7674
_cell_angle_beta     76.7476
_cell_angle_gamma    61.7329

_space_group_name_H-M_alt    "P 1"
_space_group_IT_number       1

loop_
  _space_group_symop_operation_xyz
  'x, y, z'

loop_
  _atom_site_type_symbol
  _atom_site_label
  _atom_site_symmetry_multiplicity
  _atom_site_fract_x
  _atom_site_fract_y
  _atom_site_fract_z
  _atom_site_occupancy
  Zn  Zn1       1.0  0.22230  0.87549  0.27369  1.0000
  Zn  Zn2       1.0  0.90234  0.87545  0.22634  1.0000
  Zn  Zn3       1.0  0.77770  0.12451  0.72631  1.0000
  Zn  Zn4       1.0  0.09765  0.12455  0.77366  1.0000
  H   H1        1.0  0.57308  0.40402  0.43070  1.0000
  H   H2        1.0  0.02283  0.40407  0.06926  1.0000
  H   H3        1.0  0.42693  0.59598  0.56930  1.0000
  H   H4        1.0  0.97718  0.59592  0.93074  1.0000
  H   H5        1.0  0.78499  0.36610  0.44072  1.0000
  H   H6        1.0  0.84874  0.36620  0.05929  1.0000
  H   H7        1.0  0.21502  0.63388  0.55927  1.0000
  H   H8        1.0  0.15126  0.63380  0.94071  1.0000
  H   H9        1.0  0.76268  0.22020  0.39276  1.0000
  H   H10       1.0  0.01704  0.22025  0.10720  1.0000
  H   H11       1.0  0.23732  0.77980  0.60724  1.0000
  H   H12       1.0  0.98295  0.77975  0.89280  1.0000
  H   H13       1.0  0.64725  0.65244  0.44305  1.0000
  H   H14       1.0  0.70037  0.65254  0.05696  1.0000
  H   H15       1.0  0.35275  0.34755  0.55695  1.0000
  H   H16       1.0  0.29964  0.34746  0.94304  1.0000
  H   H17       1.0  0.43793  0.69193  0.42725  1.0000
  H   H18       1.0  0.87020  0.69202  0.07279  1.0000
  H   H19       1.0  0.56208  0.30806  0.57275  1.0000
  H   H20       1.0  0.12980  0.30798  0.92721  1.0000
  H   H21       1.0  0.52097  0.83379  0.39360  1.0000
  H   H22       1.0  0.64532  0.83385  0.10645  1.0000
  H   H23       1.0  0.47904  0.16621  0.60640  1.0000
  H   H24       1.0  0.35469  0.16615  0.89355  1.0000
  H   H25       1.0  0.80480  0.89461  0.57488  1.0000
  H   H26       1.0  0.30064  0.89471  0.92525  1.0000
  H   H27       1.0  0.19519  0.10540  0.42512  1.0000
  H   H28       1.0  0.69936  0.10529  0.07475  1.0000
  H   H29       1.0  0.66855  0.90497  0.51110  1.0000
  H   H30       1.0  0.42688  0.90482  0.98891  1.0000
  H   H31       1.0  0.33144  0.09505  0.48890  1.0000
  H   H32       1.0  0.57313  0.09517  0.01109  1.0000
  H   H33       1.0  0.86605  0.91884  0.47102  1.0000
  H   H34       1.0  0.21550  0.91887  0.02913  1.0000
  H   H35       1.0  0.13395  0.08117  0.52898  1.0000
  H   H36       1.0  0.78450  0.08113  0.97087  1.0000
  H   H37       1.0  0.28915  0.43627  0.31625  1.0000
  H   H38       1.0  0.27455  0.43621  0.18372  1.0000
  H   H39       1.0  0.71084  0.56374  0.68375  1.0000
  H   H40       1.0  0.72546  0.56378  0.81628  1.0000
  H   H41       1.0  0.21475  0.28608  0.32175  1.0000
  H   H42       1.0  0.49909  0.28589  0.17818  1.0000
  H   H43       1.0  0.78524  0.71392  0.67825  1.0000
  H   H44       1.0  0.50091  0.71411  0.82182  1.0000
  H   H45       1.0  0.38641  0.25194  0.36898  1.0000
  H   H46       1.0  0.36143  0.25197  0.13095  1.0000
  H   H47       1.0  0.61358  0.74807  0.63102  1.0000
  H   H48       1.0  0.63857  0.74803  0.86906  1.0000
  C   C1        1.0  0.91345  0.17321  0.24999  1.0000
  C   C2        1.0  0.08655  0.82679  0.75001  1.0000
  C   C3        1.0  0.82192  0.35622  0.24999  1.0000
  C   C4        1.0  0.17809  0.64377  0.75001  1.0000
  C   C5        1.0  0.73036  0.43951  0.32279  1.0000
  C   C6        1.0  0.83016  0.43953  0.17720  1.0000
  C   C7        1.0  0.26964  0.56049  0.67721  1.0000
  C   C8        1.0  0.16984  0.56047  0.82280  1.0000
  C   C9        1.0  0.64744  0.61199  0.32290  1.0000
  C   C10       1.0  0.74064  0.61200  0.17711  1.0000
  C   C11       1.0  0.35257  0.38801  0.67710  1.0000
  C   C12       1.0  0.25936  0.38800  0.82289  1.0000
  C   C13       1.0  0.65262  0.69486  0.25001  1.0000
  C   C14       1.0  0.34738  0.30514  0.74999  1.0000
  C   C15       1.0  0.56090  0.87832  0.25002  1.0000
  C   C16       1.0  0.43911  0.12168  0.74998  1.0000
  C   C17       1.0  0.71265  0.35180  0.40028  1.0000
  C   C18       1.0  0.93548  0.35186  0.09970  1.0000
  C   C19       1.0  0.28735  0.64820  0.59972  1.0000
  C   C20       1.0  0.06452  0.64814  0.90030  1.0000
  C   C21       1.0  0.55851  0.70296  0.40054  1.0000
  C   C22       1.0  0.73860  0.70301  0.09949  1.0000
  C   C23       1.0  0.44150  0.29704  0.59946  1.0000
  C   C24       1.0  0.26140  0.29698  0.90051  1.0000
  C   C25       1.0  0.05576  0.70424  0.37079  1.0000
  C   C26       1.0  0.24012  0.70417  0.12925  1.0000
  C   C27       1.0  0.94423  0.29577  0.62921  1.0000
  C   C28       1.0  0.75987  0.29582  0.87075  1.0000
  C   C29       1.0  0.03132  0.59718  0.43891  1.0000
  C   C30       1.0  0.37159  0.59714  0.06111  1.0000
  C   C31       1.0  0.96867  0.40283  0.56109  1.0000
  C   C32       1.0  0.62842  0.40285  0.93889  1.0000
  C   C33       1.0  0.90553  0.67320  0.50773  1.0000
  C   C34       1.0  0.42140  0.67318  0.99232  1.0000
  C   C35       1.0  0.09447  0.32680  0.49227  1.0000
  C   C36       1.0  0.57860  0.32681  0.00768  1.0000
  C   C37       1.0  0.80725  0.85709  0.51630  1.0000
  C   C38       1.0  0.33590  0.85706  0.98378  1.0000
  C   C39       1.0  0.19274  0.14292  0.48370  1.0000
  C   C40       1.0  0.66410  0.14294  0.01622  1.0000
  C   C41       1.0  0.12728  0.42592  0.42989  1.0000
  C   C42       1.0  0.44674  0.42589  0.07009  1.0000
  C   C43       1.0  0.87272  0.57409  0.57011  1.0000
  C   C44       1.0  0.55326  0.57411  0.92991  1.0000
  C   C45       1.0  0.26023  0.34739  0.35537  1.0000
  C   C46       1.0  0.39227  0.34733  0.14458  1.0000
  C   C47       1.0  0.73976  0.65261  0.64463  1.0000
  C   C48       1.0  0.60773  0.65267  0.85542  1.0000
  O   O1        1.0  0.02545  0.09997  0.29481  1.0000
  O   O2        1.0  0.87477  0.09990  0.20517  1.0000
  O   O3        1.0  0.97455  0.90003  0.70518  1.0000
  O   O4        1.0  0.12524  0.90010  0.79483  1.0000
  O   O5        1.0  0.39268  0.95745  0.26690  1.0000
  O   O6        1.0  0.64996  0.95747  0.23315  1.0000
  O   O7        1.0  0.60732  0.04254  0.73310  1.0000
  O   O8        1.0  0.35004  0.04253  0.76685  1.0000
  O   O9        1.0  0.19181  0.72756  0.35888  1.0000
  O   O10       1.0  0.08076  0.72750  0.14115  1.0000
  O   O11       1.0  0.80819  0.27244  0.64112  1.0000
  O   O12       1.0  0.91924  0.27249  0.85885  1.0000
  O   O13       1.0  0.93583  0.76532  0.32980  1.0000
  O   O14       1.0  0.29899  0.76523  0.17025  1.0000
  O   O15       1.0  0.06415  0.23471  0.67021  1.0000
  O   O16       1.0  0.70101  0.23477  0.82975  1.0000
