data_image0
_chemical_formula_structural       Ag2P2H32C38S2N2O6F6
_chemical_formula_sum              "Ag2 P2 H32 C38 S2 N2 O6 F6"
_cell_length_a       8.5779
_cell_length_b       11.0907
_cell_length_c       11.3114
_cell_angle_alpha    88.0111
_cell_angle_beta     83.8144
_cell_angle_gamma    70.1657

_space_group_name_H-M_alt    "P 1"
_space_group_IT_number       1

loop_
  _space_group_symop_operation_xyz
  'x, y, z'

loop_
  _atom_site_type_symbol
  _atom_site_label
  _atom_site_symmetry_multiplicity
  _atom_site_fract_x
  _atom_site_fract_y
  _atom_site_fract_z
  _atom_site_occupancy
  Ag  Ag1       1.0  0.28432  0.55906  0.59812  1.0000
  Ag  Ag2       1.0  0.71568  0.44093  0.40188  1.0000
  P   P1        1.0  0.16583  0.76069  0.68538  1.0000
  P   P2        1.0  0.83418  0.23931  0.31462  1.0000
  H   H1        1.0  0.92404  0.94483  0.64041  1.0000
  H   H2        1.0  0.07596  0.05516  0.35959  1.0000
  H   H3        1.0  0.07569  0.89092  0.51340  1.0000
  H   H4        1.0  0.92431  0.10908  0.48660  1.0000
  H   H5        1.0  0.04326  0.75982  0.36820  1.0000
  H   H6        1.0  0.95674  0.24017  0.63180  1.0000
  H   H7        1.0  0.91233  0.60754  0.30358  1.0000
  H   H8        1.0  0.08768  0.39245  0.69642  1.0000
  H   H9        1.0  0.64912  0.61750  0.63457  1.0000
  H   H10       1.0  0.35088  0.38249  0.36543  1.0000
  H   H11       1.0  0.76395  0.77391  0.71124  1.0000
  H   H12       1.0  0.23605  0.22609  0.28876  1.0000
  H   H13       1.0  0.06537  0.56693  0.82255  1.0000
  H   H14       1.0  0.93463  0.43308  0.17745  1.0000
  H   H15       1.0  0.86763  0.58051  0.00492  1.0000
  H   H16       1.0  0.13236  0.41950  0.99508  1.0000
  H   H17       1.0  0.73900  0.78573  0.11484  1.0000
  H   H18       1.0  0.26099  0.21429  0.88515  1.0000
  H   H19       1.0  0.80097  0.98068  0.03978  1.0000
  H   H20       1.0  0.19903  0.01933  0.96021  1.0000
  H   H21       1.0  0.98859  0.96997  0.85519  1.0000
  H   H22       1.0  0.01141  0.03003  0.14481  1.0000
  H   H23       1.0  0.24577  0.98133  0.55900  1.0000
  H   H24       1.0  0.75422  0.01867  0.44101  1.0000
  H   H25       1.0  0.42600  0.10130  0.60849  1.0000
  H   H26       1.0  0.57400  0.89870  0.39150  1.0000
  H   H27       1.0  0.57952  0.04554  0.78696  1.0000
  H   H28       1.0  0.42048  0.95446  0.21303  1.0000
  H   H29       1.0  0.55497  0.86425  0.91728  1.0000
  H   H30       1.0  0.44504  0.13576  0.08272  1.0000
  H   H31       1.0  0.37440  0.74390  0.86924  1.0000
  H   H32       1.0  0.62561  0.25610  0.13076  1.0000
  C   C1        1.0  0.00728  0.86053  0.58949  1.0000
  C   C2        1.0  0.99272  0.13947  0.41051  1.0000
  C   C3        1.0  0.91690  0.77858  0.54623  1.0000
  C   C4        1.0  0.08310  0.22142  0.45377  1.0000
  C   C5        1.0  0.95550  0.73124  0.42967  1.0000
  C   C6        1.0  0.04450  0.26876  0.57033  1.0000
  C   C7        1.0  0.88394  0.64548  0.39382  1.0000
  C   C8        1.0  0.11606  0.35452  0.60618  1.0000
  C   C9        1.0  0.73635  0.65195  0.57806  1.0000
  C   C10       1.0  0.26365  0.34805  0.42194  1.0000
  C   C11       1.0  0.80155  0.73923  0.62040  1.0000
  C   C12       1.0  0.19845  0.26076  0.37960  1.0000
  C   C13       1.0  0.04013  0.76692  0.82725  1.0000
  C   C14       1.0  0.95987  0.23308  0.17275  1.0000
  C   C15       1.0  0.00649  0.65744  0.87063  1.0000
  C   C16       1.0  0.99350  0.34256  0.12937  1.0000
  C   C17       1.0  0.89729  0.66491  0.97334  1.0000
  C   C18       1.0  0.10270  0.33510  0.02666  1.0000
  C   C19       1.0  0.82453  0.78066  0.03503  1.0000
  C   C20       1.0  0.17546  0.21935  0.96497  1.0000
  C   C21       1.0  0.85917  0.88985  0.99263  1.0000
  C   C22       1.0  0.14083  0.11015  0.00736  1.0000
  C   C23       1.0  0.96502  0.88364  0.88878  1.0000
  C   C24       1.0  0.03498  0.11637  0.11122  1.0000
  C   C25       1.0  0.29453  0.85584  0.71235  1.0000
  C   C26       1.0  0.70546  0.14416  0.28766  1.0000
  C   C27       1.0  0.31200  0.95528  0.63808  1.0000
  C   C28       1.0  0.68800  0.04472  0.36192  1.0000
  C   C29       1.0  0.41461  0.02284  0.66549  1.0000
  C   C30       1.0  0.58539  0.97716  0.33451  1.0000
  C   C31       1.0  0.50083  0.99154  0.76630  1.0000
  C   C32       1.0  0.49917  0.00846  0.23369  1.0000
  C   C33       1.0  0.48667  0.89041  0.83906  1.0000
  C   C34       1.0  0.51333  0.10960  0.16094  1.0000
  C   C35       1.0  0.38515  0.82234  0.81202  1.0000
  C   C36       1.0  0.61486  0.17767  0.18798  1.0000
  C   C37       1.0  0.66333  0.37946  0.83597  1.0000
  C   C38       1.0  0.33667  0.62054  0.16403  1.0000
  S   S1        1.0  0.58877  0.31651  0.70996  1.0000
  S   S2        1.0  0.41123  0.68349  0.29004  1.0000
  N   N1        1.0  0.77817  0.60391  0.46689  1.0000
  N   N2        1.0  0.22183  0.39609  0.53311  1.0000
  O   O1        1.0  0.58081  0.41609  0.61839  1.0000
  O   O2        1.0  0.41919  0.58391  0.38161  1.0000
  O   O3        1.0  0.71776  0.19345  0.68074  1.0000
  O   O4        1.0  0.28224  0.80655  0.31926  1.0000
  O   O5        1.0  0.42743  0.31245  0.76019  1.0000
  O   O6        1.0  0.57257  0.68754  0.23981  1.0000
  F   F1        1.0  0.81262  0.39592  0.80471  1.0000
  F   F2        1.0  0.18739  0.60407  0.19530  1.0000
  F   F3        1.0  0.68216  0.29713  0.92930  1.0000
  F   F4        1.0  0.31783  0.70287  0.07070  1.0000
  F   F5        1.0  0.55231  0.49483  0.87292  1.0000
  F   F6        1.0  0.44769  0.50517  0.12708  1.0000
