data_image0
_chemical_formula_structural       Y4H48C60O36
_chemical_formula_sum              "Y4 H48 C60 O36"
_cell_length_a       10.0126
_cell_length_b       12.1748
_cell_length_c       13.787
_cell_angle_alpha    105.392
_cell_angle_beta     90
_cell_angle_gamma    90

_space_group_name_H-M_alt    "P 1"
_space_group_IT_number       1

loop_
  _space_group_symop_operation_xyz
  'x, y, z'

loop_
  _atom_site_type_symbol
  _atom_site_label
  _atom_site_symmetry_multiplicity
  _atom_site_fract_x
  _atom_site_fract_y
  _atom_site_fract_z
  _atom_site_occupancy
  Y   Y1        1.0  0.21097  0.94098  0.42264  1.0000
  Y   Y2        1.0  0.71097  0.55902  0.57737  1.0000
  Y   Y3        1.0  0.78903  0.05902  0.57737  1.0000
  Y   Y4        1.0  0.28903  0.44098  0.42264  1.0000
  H   H1        1.0  0.22799  0.57400  0.16559  1.0000
  H   H2        1.0  0.72799  0.92601  0.83441  1.0000
  H   H3        1.0  0.77201  0.42601  0.83441  1.0000
  H   H4        1.0  0.27201  0.07399  0.16559  1.0000
  H   H5        1.0  0.25684  0.45628  0.98903  1.0000
  H   H6        1.0  0.75684  0.04372  0.01097  1.0000
  H   H7        1.0  0.74316  0.54372  0.01097  1.0000
  H   H8        1.0  0.24316  0.95628  0.98903  1.0000
  H   H9        1.0  0.41871  0.74647  0.90588  1.0000
  H   H10       1.0  0.91871  0.75353  0.09412  1.0000
  H   H11       1.0  0.58129  0.25353  0.09412  1.0000
  H   H12       1.0  0.08129  0.24647  0.90588  1.0000
  H   H13       1.0  0.38637  0.86579  0.08368  1.0000
  H   H14       1.0  0.88637  0.63422  0.91631  1.0000
  H   H15       1.0  0.61363  0.13422  0.91631  1.0000
  H   H16       1.0  0.11363  0.36578  0.08369  1.0000
  H   H17       1.0  0.47978  0.34124  0.79562  1.0000
  H   H18       1.0  0.97978  0.15876  0.20438  1.0000
  H   H19       1.0  0.52022  0.65876  0.20438  1.0000
  H   H20       1.0  0.02022  0.84124  0.79562  1.0000
  H   H21       1.0  0.37553  0.15463  0.70196  1.0000
  H   H22       1.0  0.87553  0.34537  0.29804  1.0000
  H   H23       1.0  0.62447  0.84537  0.29804  1.0000
  H   H24       1.0  0.12447  0.65463  0.70196  1.0000
  H   H25       1.0  0.99511  0.32133  0.71000  1.0000
  H   H26       1.0  0.49511  0.17867  0.29000  1.0000
  H   H27       1.0  0.00489  0.67867  0.29000  1.0000
  H   H28       1.0  0.50489  0.82133  0.71000  1.0000
  H   H29       1.0  0.09954  0.50732  0.80051  1.0000
  H   H30       1.0  0.59954  0.99268  0.19949  1.0000
  H   H31       1.0  0.90046  0.49268  0.19949  1.0000
  H   H32       1.0  0.40046  0.00732  0.80051  1.0000
  H   H33       1.0  0.12637  0.72640  0.48348  1.0000
  H   H34       1.0  0.62637  0.77360  0.51652  1.0000
  H   H35       1.0  0.87363  0.27360  0.51652  1.0000
  H   H36       1.0  0.37363  0.22640  0.48348  1.0000
  H   H37       1.0  0.20122  0.81044  0.57348  1.0000
  H   H38       1.0  0.70122  0.68956  0.42652  1.0000
  H   H39       1.0  0.79878  0.18956  0.42652  1.0000
  H   H40       1.0  0.29878  0.31044  0.57348  1.0000
  H   H41       1.0  0.16367  0.16009  0.36098  1.0000
  H   H42       1.0  0.66367  0.33991  0.63902  1.0000
  H   H43       1.0  0.83633  0.83991  0.63902  1.0000
  H   H44       1.0  0.33633  0.66009  0.36098  1.0000
  H   H45       1.0  0.03051  0.13980  0.41877  1.0000
  H   H46       1.0  0.53052  0.36020  0.58123  1.0000
  H   H47       1.0  0.96948  0.86020  0.58123  1.0000
  H   H48       1.0  0.46948  0.63980  0.41877  1.0000
  C   C1        1.0  0.28385  0.79995  0.23863  1.0000
  C   C2        1.0  0.78385  0.70006  0.76137  1.0000
  C   C3        1.0  0.71615  0.20005  0.76137  1.0000
  C   C4        1.0  0.21615  0.29995  0.23863  1.0000
  C   C5        1.0  0.30289  0.72814  0.13486  1.0000
  C   C6        1.0  0.80289  0.77186  0.86514  1.0000
  C   C7        1.0  0.69711  0.27186  0.86514  1.0000
  C   C8        1.0  0.19711  0.22814  0.13486  1.0000
  C   C9        1.0  0.26725  0.61244  0.10839  1.0000
  C   C10       1.0  0.76725  0.88756  0.89161  1.0000
  C   C11       1.0  0.73275  0.38756  0.89161  1.0000
  C   C12       1.0  0.23275  0.11244  0.10839  1.0000
  C   C13       1.0  0.28337  0.54628  0.00991  1.0000
  C   C14       1.0  0.78337  0.95372  0.99008  1.0000
  C   C15       1.0  0.71663  0.45372  0.99008  1.0000
  C   C16       1.0  0.21663  0.04628  0.00991  1.0000
  C   C17       1.0  0.33692  0.59626  0.93791  1.0000
  C   C18       1.0  0.83692  0.90374  0.06209  1.0000
  C   C19       1.0  0.66308  0.40374  0.06209  1.0000
  C   C20       1.0  0.16308  0.09626  0.93791  1.0000
  C   C21       1.0  0.37581  0.71100  0.96361  1.0000
  C   C22       1.0  0.87581  0.78900  0.03639  1.0000
  C   C23       1.0  0.62420  0.28900  0.03639  1.0000
  C   C24       1.0  0.12419  0.21100  0.96361  1.0000
  C   C25       1.0  0.35773  0.77620  0.06163  1.0000
  C   C26       1.0  0.85773  0.72380  0.93837  1.0000
  C   C27       1.0  0.64227  0.22380  0.93837  1.0000
  C   C28       1.0  0.14227  0.27620  0.06163  1.0000
  C   C29       1.0  0.29551  0.43287  0.80125  1.0000
  C   C30       1.0  0.79551  0.06713  0.19875  1.0000
  C   C31       1.0  0.70449  0.56713  0.19875  1.0000
  C   C32       1.0  0.20449  0.93287  0.80125  1.0000
  C   C33       1.0  0.37413  0.33483  0.77635  1.0000
  C   C34       1.0  0.87413  0.16517  0.22365  1.0000
  C   C35       1.0  0.62587  0.66517  0.22365  1.0000
  C   C36       1.0  0.12587  0.83483  0.77635  1.0000
  C   C37       1.0  0.31593  0.23205  0.72502  1.0000
  C   C38       1.0  0.81593  0.26795  0.27498  1.0000
  C   C39       1.0  0.68407  0.76795  0.27498  1.0000
  C   C40       1.0  0.18407  0.73205  0.72502  1.0000
  C   C41       1.0  0.17987  0.22720  0.69992  1.0000
  C   C42       1.0  0.67988  0.27280  0.30007  1.0000
  C   C43       1.0  0.82013  0.77280  0.30008  1.0000
  C   C44       1.0  0.32013  0.72720  0.69993  1.0000
  C   C45       1.0  0.10089  0.32592  0.72967  1.0000
  C   C46       1.0  0.60089  0.17408  0.27033  1.0000
  C   C47       1.0  0.89911  0.67408  0.27033  1.0000
  C   C48       1.0  0.39911  0.82592  0.72967  1.0000
  C   C49       1.0  0.15870  0.42936  0.78015  1.0000
  C   C50       1.0  0.65870  0.07064  0.21985  1.0000
  C   C51       1.0  0.84130  0.57064  0.21985  1.0000
  C   C52       1.0  0.34130  0.92936  0.78015  1.0000
  C   C53       1.0  0.12195  0.11992  0.63493  1.0000
  C   C54       1.0  0.62195  0.38008  0.36508  1.0000
  C   C55       1.0  0.87805  0.88008  0.36508  1.0000
  C   C56       1.0  0.37805  0.61992  0.63493  1.0000
  C   C57       1.0  0.50376  0.94072  0.51074  1.0000
  C   C58       1.0  0.00375  0.55928  0.48926  1.0000
  C   C59       1.0  0.49625  0.05928  0.48927  1.0000
  C   C60       1.0  0.99625  0.44072  0.51074  1.0000
  O   O1        1.0  0.29720  0.90836  0.25810  1.0000
  O   O2        1.0  0.79720  0.59164  0.74190  1.0000
  O   O3        1.0  0.70280  0.09164  0.74190  1.0000
  O   O4        1.0  0.20280  0.40836  0.25810  1.0000
  O   O5        1.0  0.25137  0.75423  0.30971  1.0000
  O   O6        1.0  0.75137  0.74578  0.69028  1.0000
  O   O7        1.0  0.74863  0.24578  0.69028  1.0000
  O   O8        1.0  0.24863  0.25422  0.30971  1.0000
  O   O9        1.0  0.35951  0.53650  0.83996  1.0000
  O   O10       1.0  0.85951  0.96350  0.16004  1.0000
  O   O11       1.0  0.64049  0.46350  0.16004  1.0000
  O   O12       1.0  0.14049  0.03650  0.83996  1.0000
  O   O13       1.0  0.99617  0.11365  0.62442  1.0000
  O   O14       1.0  0.49616  0.38635  0.37559  1.0000
  O   O15       1.0  0.00384  0.88635  0.37559  1.0000
  O   O16       1.0  0.50384  0.61365  0.62442  1.0000
  O   O17       1.0  0.20200  0.04198  0.58953  1.0000
  O   O18       1.0  0.70200  0.45802  0.41047  1.0000
  O   O19       1.0  0.79800  0.95802  0.41047  1.0000
  O   O20       1.0  0.29800  0.54198  0.58953  1.0000
  O   O21       1.0  0.40643  0.87408  0.48297  1.0000
  O   O22       1.0  0.90644  0.62592  0.51702  1.0000
  O   O23       1.0  0.59356  0.12591  0.51703  1.0000
  O   O24       1.0  0.09356  0.37409  0.48297  1.0000
  O   O25       1.0  0.60874  0.91890  0.55403  1.0000
  O   O26       1.0  0.10874  0.58110  0.44597  1.0000
  O   O27       1.0  0.39126  0.08110  0.44597  1.0000
  O   O28       1.0  0.89126  0.41890  0.55403  1.0000
  O   O29       1.0  0.13717  0.80912  0.51972  1.0000
  O   O30       1.0  0.63717  0.69088  0.48028  1.0000
  O   O31       1.0  0.86283  0.19088  0.48028  1.0000
  O   O32       1.0  0.36283  0.30912  0.51972  1.0000
  O   O33       1.0  0.11664  0.10561  0.39164  1.0000
  O   O34       1.0  0.61664  0.39438  0.60836  1.0000
  O   O35       1.0  0.88336  0.89439  0.60836  1.0000
  O   O36       1.0  0.38336  0.60562  0.39164  1.0000
