data_image0
_chemical_formula_structural       Er4H48C60O36
_chemical_formula_sum              "Er4 H48 C60 O36"
_cell_length_a       9.96401
_cell_length_b       12.1478
_cell_length_c       13.753
_cell_angle_alpha    105.338
_cell_angle_beta     90
_cell_angle_gamma    90

_space_group_name_H-M_alt    "P 1"
_space_group_IT_number       1

loop_
  _space_group_symop_operation_xyz
  'x, y, z'

loop_
  _atom_site_type_symbol
  _atom_site_label
  _atom_site_symmetry_multiplicity
  _atom_site_fract_x
  _atom_site_fract_y
  _atom_site_fract_z
  _atom_site_occupancy
  Er  Er1       1.0  0.21184  0.05971  0.07704  1.0000
  Er  Er2       1.0  0.71184  0.44029  0.92296  1.0000
  Er  Er3       1.0  0.78816  0.94029  0.92296  1.0000
  Er  Er4       1.0  0.28816  0.55971  0.07704  1.0000
  H   H1        1.0  0.22570  0.42592  0.33408  1.0000
  H   H2        1.0  0.72570  0.07408  0.66592  1.0000
  H   H3        1.0  0.77430  0.57408  0.66592  1.0000
  H   H4        1.0  0.27430  0.92592  0.33408  1.0000
  H   H5        1.0  0.25479  0.54340  0.51103  1.0000
  H   H6        1.0  0.75479  0.95660  0.48897  1.0000
  H   H7        1.0  0.74521  0.45660  0.48897  1.0000
  H   H8        1.0  0.24521  0.04340  0.51103  1.0000
  H   H9        1.0  0.41815  0.25263  0.59392  1.0000
  H   H10       1.0  0.91815  0.24737  0.40608  1.0000
  H   H11       1.0  0.58185  0.74737  0.40608  1.0000
  H   H12       1.0  0.08185  0.75263  0.59392  1.0000
  H   H13       1.0  0.38494  0.13338  0.41591  1.0000
  H   H14       1.0  0.88494  0.36662  0.58409  1.0000
  H   H15       1.0  0.61506  0.86662  0.58409  1.0000
  H   H16       1.0  0.11506  0.63338  0.41591  1.0000
  H   H17       1.0  0.47989  0.65819  0.70440  1.0000
  H   H18       1.0  0.97989  0.84181  0.29561  1.0000
  H   H19       1.0  0.52011  0.34181  0.29560  1.0000
  H   H20       1.0  0.02011  0.15819  0.70440  1.0000
  H   H21       1.0  0.37617  0.84526  0.79861  1.0000
  H   H22       1.0  0.87617  0.65474  0.20139  1.0000
  H   H23       1.0  0.62383  0.15474  0.20139  1.0000
  H   H24       1.0  0.12383  0.34526  0.79861  1.0000
  H   H25       1.0  0.99328  0.67945  0.79011  1.0000
  H   H26       1.0  0.49328  0.82055  0.20989  1.0000
  H   H27       1.0  0.00672  0.32055  0.20989  1.0000
  H   H28       1.0  0.50672  0.17945  0.79011  1.0000
  H   H29       1.0  0.09718  0.49314  0.69880  1.0000
  H   H30       1.0  0.59718  0.00686  0.30120  1.0000
  H   H31       1.0  0.90282  0.50686  0.30120  1.0000
  H   H32       1.0  0.40282  0.99314  0.69880  1.0000
  H   H33       1.0  0.03198  0.86350  0.08368  1.0000
  H   H34       1.0  0.53198  0.63649  0.91632  1.0000
  H   H35       1.0  0.96802  0.13649  0.91632  1.0000
  H   H36       1.0  0.46802  0.36351  0.08368  1.0000
  H   H37       1.0  0.16694  0.84210  0.13972  1.0000
  H   H38       1.0  0.66694  0.65790  0.86028  1.0000
  H   H39       1.0  0.83306  0.15790  0.86028  1.0000
  H   H40       1.0  0.33306  0.34210  0.13972  1.0000
  H   H41       1.0  0.12626  0.27267  0.01745  1.0000
  H   H42       1.0  0.62626  0.22733  0.98255  1.0000
  H   H43       1.0  0.87374  0.72733  0.98255  1.0000
  H   H44       1.0  0.37374  0.77267  0.01745  1.0000
  H   H45       1.0  0.20473  0.19041  0.92834  1.0000
  H   H46       1.0  0.70473  0.30959  0.07166  1.0000
  H   H47       1.0  0.79527  0.80959  0.07166  1.0000
  H   H48       1.0  0.29527  0.69041  0.92834  1.0000
  C   C1        1.0  0.28191  0.19966  0.26067  1.0000
  C   C2        1.0  0.78191  0.30034  0.73933  1.0000
  C   C3        1.0  0.71809  0.80034  0.73933  1.0000
  C   C4        1.0  0.21809  0.69966  0.26067  1.0000
  C   C5        1.0  0.30094  0.27132  0.36469  1.0000
  C   C6        1.0  0.80094  0.22868  0.63531  1.0000
  C   C7        1.0  0.69906  0.72868  0.63531  1.0000
  C   C8        1.0  0.19906  0.77132  0.36469  1.0000
  C   C9        1.0  0.26509  0.38717  0.39128  1.0000
  C   C10       1.0  0.76509  0.11283  0.60872  1.0000
  C   C11       1.0  0.73491  0.61283  0.60872  1.0000
  C   C12       1.0  0.23491  0.88717  0.39128  1.0000
  C   C13       1.0  0.28140  0.45324  0.48999  1.0000
  C   C14       1.0  0.78141  0.04676  0.51001  1.0000
  C   C15       1.0  0.71859  0.54676  0.51001  1.0000
  C   C16       1.0  0.21859  0.95325  0.48999  1.0000
  C   C17       1.0  0.33553  0.40317  0.56204  1.0000
  C   C18       1.0  0.83553  0.09683  0.43796  1.0000
  C   C19       1.0  0.66447  0.59683  0.43796  1.0000
  C   C20       1.0  0.16447  0.90317  0.56204  1.0000
  C   C21       1.0  0.37468  0.28827  0.53622  1.0000
  C   C22       1.0  0.87468  0.21173  0.46378  1.0000
  C   C23       1.0  0.62531  0.71173  0.46378  1.0000
  C   C24       1.0  0.12532  0.78827  0.53622  1.0000
  C   C25       1.0  0.35618  0.22309  0.43799  1.0000
  C   C26       1.0  0.85618  0.27691  0.56201  1.0000
  C   C27       1.0  0.64382  0.77691  0.56201  1.0000
  C   C28       1.0  0.14382  0.72309  0.43799  1.0000
  C   C29       1.0  0.29449  0.56700  0.69866  1.0000
  C   C30       1.0  0.79449  0.93300  0.30134  1.0000
  C   C31       1.0  0.70551  0.43300  0.30134  1.0000
  C   C32       1.0  0.20551  0.06700  0.69866  1.0000
  C   C33       1.0  0.37381  0.66492  0.72373  1.0000
  C   C34       1.0  0.87381  0.83508  0.27628  1.0000
  C   C35       1.0  0.62619  0.33508  0.27628  1.0000
  C   C36       1.0  0.12619  0.16492  0.72372  1.0000
  C   C37       1.0  0.31578  0.76803  0.77526  1.0000
  C   C38       1.0  0.81578  0.73197  0.22474  1.0000
  C   C39       1.0  0.68422  0.23197  0.22474  1.0000
  C   C40       1.0  0.18422  0.26803  0.77526  1.0000
  C   C41       1.0  0.17914  0.77321  0.80045  1.0000
  C   C42       1.0  0.67913  0.72679  0.19955  1.0000
  C   C43       1.0  0.82086  0.22679  0.19955  1.0000
  C   C44       1.0  0.32086  0.27321  0.80045  1.0000
  C   C45       1.0  0.09942  0.67464  0.77027  1.0000
  C   C46       1.0  0.59942  0.82536  0.22973  1.0000
  C   C47       1.0  0.90058  0.32536  0.22973  1.0000
  C   C48       1.0  0.40058  0.17464  0.77027  1.0000
  C   C49       1.0  0.15703  0.57095  0.71954  1.0000
  C   C50       1.0  0.65702  0.92905  0.28046  1.0000
  C   C51       1.0  0.84297  0.42905  0.28046  1.0000
  C   C52       1.0  0.34297  0.07095  0.71954  1.0000
  C   C53       1.0  0.12114  0.88054  0.86596  1.0000
  C   C54       1.0  0.62114  0.61946  0.13405  1.0000
  C   C55       1.0  0.87886  0.11946  0.13405  1.0000
  C   C56       1.0  0.37886  0.38054  0.86595  1.0000
  C   C57       1.0  0.49630  0.94094  0.01118  1.0000
  C   C58       1.0  0.99630  0.55905  0.98882  1.0000
  C   C59       1.0  0.50370  0.05906  0.98882  1.0000
  C   C60       1.0  0.00370  0.44094  0.01118  1.0000
  O   O1        1.0  0.29455  0.09098  0.24104  1.0000
  O   O2        1.0  0.79455  0.40902  0.75896  1.0000
  O   O3        1.0  0.70545  0.90902  0.75896  1.0000
  O   O4        1.0  0.20545  0.59098  0.24104  1.0000
  O   O5        1.0  0.25023  0.24549  0.18918  1.0000
  O   O6        1.0  0.75024  0.25451  0.81082  1.0000
  O   O7        1.0  0.74977  0.75451  0.81082  1.0000
  O   O8        1.0  0.24977  0.74549  0.18917  1.0000
  O   O9        1.0  0.35842  0.46307  0.66006  1.0000
  O   O10       1.0  0.85842  0.03693  0.33994  1.0000
  O   O11       1.0  0.64159  0.53693  0.33994  1.0000
  O   O12       1.0  0.14158  0.96307  0.66006  1.0000
  O   O13       1.0  0.99476  0.88725  0.87623  1.0000
  O   O14       1.0  0.49476  0.61276  0.12377  1.0000
  O   O15       1.0  0.00524  0.11275  0.12377  1.0000
  O   O16       1.0  0.50524  0.38724  0.87623  1.0000
  O   O17       1.0  0.20173  0.95821  0.91193  1.0000
  O   O18       1.0  0.70173  0.54179  0.08807  1.0000
  O   O19       1.0  0.79826  0.04179  0.08807  1.0000
  O   O20       1.0  0.29826  0.45821  0.91193  1.0000
  O   O21       1.0  0.39100  0.91954  0.05491  1.0000
  O   O22       1.0  0.89100  0.58046  0.94509  1.0000
  O   O23       1.0  0.60900  0.08046  0.94509  1.0000
  O   O24       1.0  0.10900  0.41954  0.05491  1.0000
  O   O25       1.0  0.59419  0.87414  0.98351  1.0000
  O   O26       1.0  0.09419  0.62586  0.01649  1.0000
  O   O27       1.0  0.40581  0.12586  0.01649  1.0000
  O   O28       1.0  0.90581  0.37414  0.98351  1.0000
  O   O29       1.0  0.11947  0.89680  0.10912  1.0000
  O   O30       1.0  0.61947  0.60320  0.89088  1.0000
  O   O31       1.0  0.88053  0.10320  0.89088  1.0000
  O   O32       1.0  0.38053  0.39680  0.10912  1.0000
  O   O33       1.0  0.13844  0.19020  0.98066  1.0000
  O   O34       1.0  0.63844  0.30980  0.01934  1.0000
  O   O35       1.0  0.86156  0.80980  0.01934  1.0000
  O   O36       1.0  0.36156  0.69020  0.98066  1.0000
