data_image0
_chemical_formula_structural       Yb4H48C60O36
_chemical_formula_sum              "Yb4 H48 C60 O36"
_cell_length_a       9.91002
_cell_length_b       11.9239
_cell_length_c       13.5877
_cell_angle_alpha    103.725
_cell_angle_beta     89.9997
_cell_angle_gamma    90.0001

_space_group_name_H-M_alt    "P 1"
_space_group_IT_number       1

loop_
  _space_group_symop_operation_xyz
  'x, y, z'

loop_
  _atom_site_type_symbol
  _atom_site_label
  _atom_site_symmetry_multiplicity
  _atom_site_fract_x
  _atom_site_fract_y
  _atom_site_fract_z
  _atom_site_occupancy
  Yb  Yb1       1.0  0.21214  0.05840  0.07665  1.0000
  Yb  Yb2       1.0  0.71214  0.44160  0.92335  1.0000
  Yb  Yb3       1.0  0.78785  0.94160  0.92335  1.0000
  Yb  Yb4       1.0  0.28785  0.55840  0.07665  1.0000
  H   H1        1.0  0.22612  0.42667  0.32989  1.0000
  H   H2        1.0  0.72612  0.07333  0.67011  1.0000
  H   H3        1.0  0.77388  0.57333  0.67011  1.0000
  H   H4        1.0  0.27388  0.92667  0.32989  1.0000
  H   H5        1.0  0.25606  0.54326  0.50656  1.0000
  H   H6        1.0  0.75606  0.95674  0.49344  1.0000
  H   H7        1.0  0.74394  0.45674  0.49344  1.0000
  H   H8        1.0  0.24394  0.04325  0.50656  1.0000
  H   H9        1.0  0.42197  0.24774  0.59426  1.0000
  H   H10       1.0  0.92196  0.25226  0.40574  1.0000
  H   H11       1.0  0.57804  0.75227  0.40574  1.0000
  H   H12       1.0  0.07803  0.74773  0.59426  1.0000
  H   H13       1.0  0.38947  0.12936  0.41636  1.0000
  H   H14       1.0  0.88947  0.37064  0.58364  1.0000
  H   H15       1.0  0.61053  0.87064  0.58364  1.0000
  H   H16       1.0  0.11053  0.62936  0.41636  1.0000
  H   H17       1.0  0.48178  0.65739  0.70469  1.0000
  H   H18       1.0  0.98178  0.84261  0.29531  1.0000
  H   H19       1.0  0.51822  0.34261  0.29531  1.0000
  H   H20       1.0  0.01822  0.15739  0.70469  1.0000
  H   H21       1.0  0.37774  0.84440  0.79951  1.0000
  H   H22       1.0  0.87774  0.65560  0.20049  1.0000
  H   H23       1.0  0.62226  0.15560  0.20049  1.0000
  H   H24       1.0  0.12226  0.34439  0.79951  1.0000
  H   H25       1.0  0.99208  0.67649  0.78885  1.0000
  H   H26       1.0  0.49208  0.82352  0.21115  1.0000
  H   H27       1.0  0.00792  0.32351  0.21115  1.0000
  H   H28       1.0  0.50792  0.17648  0.78885  1.0000
  H   H29       1.0  0.09615  0.49003  0.69652  1.0000
  H   H30       1.0  0.59615  0.00998  0.30348  1.0000
  H   H31       1.0  0.90386  0.50998  0.30348  1.0000
  H   H32       1.0  0.40385  0.99002  0.69652  1.0000
  H   H33       1.0  0.03006  0.86238  0.08079  1.0000
  H   H34       1.0  0.53005  0.63762  0.91921  1.0000
  H   H35       1.0  0.96995  0.13762  0.91921  1.0000
  H   H36       1.0  0.46994  0.36238  0.08079  1.0000
  H   H37       1.0  0.16581  0.83882  0.13796  1.0000
  H   H38       1.0  0.66581  0.66118  0.86204  1.0000
  H   H39       1.0  0.83419  0.16118  0.86204  1.0000
  H   H40       1.0  0.33419  0.33882  0.13796  1.0000
  H   H41       1.0  0.12725  0.27196  0.01708  1.0000
  H   H42       1.0  0.62724  0.22804  0.98292  1.0000
  H   H43       1.0  0.87276  0.72804  0.98292  1.0000
  H   H44       1.0  0.37275  0.77196  0.01708  1.0000
  H   H45       1.0  0.20030  0.19067  0.92410  1.0000
  H   H46       1.0  0.70030  0.30933  0.07590  1.0000
  H   H47       1.0  0.79970  0.80933  0.07590  1.0000
  H   H48       1.0  0.29970  0.69067  0.92410  1.0000
  C   C1        1.0  0.28254  0.19740  0.25911  1.0000
  C   C2        1.0  0.78254  0.30260  0.74089  1.0000
  C   C3        1.0  0.71747  0.80260  0.74089  1.0000
  C   C4        1.0  0.21746  0.69740  0.25911  1.0000
  C   C5        1.0  0.30240  0.26915  0.36284  1.0000
  C   C6        1.0  0.80239  0.23085  0.63716  1.0000
  C   C7        1.0  0.69761  0.73085  0.63716  1.0000
  C   C8        1.0  0.19760  0.76915  0.36284  1.0000
  C   C9        1.0  0.26599  0.38635  0.38800  1.0000
  C   C10       1.0  0.76599  0.11365  0.61200  1.0000
  C   C11       1.0  0.73402  0.61365  0.61200  1.0000
  C   C12       1.0  0.23401  0.88635  0.38800  1.0000
  C   C13       1.0  0.28276  0.45210  0.48658  1.0000
  C   C14       1.0  0.78275  0.04790  0.51342  1.0000
  C   C15       1.0  0.71725  0.54790  0.51342  1.0000
  C   C16       1.0  0.21724  0.95210  0.48658  1.0000
  C   C17       1.0  0.33736  0.40058  0.56013  1.0000
  C   C18       1.0  0.83736  0.09942  0.43987  1.0000
  C   C19       1.0  0.66264  0.59942  0.43986  1.0000
  C   C20       1.0  0.16264  0.90058  0.56013  1.0000
  C   C21       1.0  0.37779  0.28459  0.53562  1.0000
  C   C22       1.0  0.87779  0.21541  0.46437  1.0000
  C   C23       1.0  0.62221  0.71541  0.46437  1.0000
  C   C24       1.0  0.12221  0.78459  0.53562  1.0000
  C   C25       1.0  0.35936  0.21978  0.43744  1.0000
  C   C26       1.0  0.85936  0.28022  0.56256  1.0000
  C   C27       1.0  0.64064  0.78022  0.56256  1.0000
  C   C28       1.0  0.14064  0.71978  0.43744  1.0000
  C   C29       1.0  0.29508  0.56478  0.69679  1.0000
  C   C30       1.0  0.79507  0.93522  0.30321  1.0000
  C   C31       1.0  0.70493  0.43522  0.30321  1.0000
  C   C32       1.0  0.20493  0.06478  0.69679  1.0000
  C   C33       1.0  0.37485  0.66361  0.72316  1.0000
  C   C34       1.0  0.87485  0.83639  0.27684  1.0000
  C   C35       1.0  0.62515  0.33639  0.27684  1.0000
  C   C36       1.0  0.12515  0.16361  0.72316  1.0000
  C   C37       1.0  0.31660  0.76681  0.77542  1.0000
  C   C38       1.0  0.81659  0.73319  0.22458  1.0000
  C   C39       1.0  0.68341  0.23320  0.22458  1.0000
  C   C40       1.0  0.18340  0.26680  0.77542  1.0000
  C   C41       1.0  0.17899  0.77165  0.80034  1.0000
  C   C42       1.0  0.67899  0.72835  0.19966  1.0000
  C   C43       1.0  0.82101  0.22836  0.19966  1.0000
  C   C44       1.0  0.32101  0.27164  0.80034  1.0000
  C   C45       1.0  0.09893  0.67222  0.76919  1.0000
  C   C46       1.0  0.59892  0.82778  0.23081  1.0000
  C   C47       1.0  0.90108  0.32778  0.23080  1.0000
  C   C48       1.0  0.40108  0.17222  0.76919  1.0000
  C   C49       1.0  0.15670  0.56838  0.71761  1.0000
  C   C50       1.0  0.65670  0.93163  0.28239  1.0000
  C   C51       1.0  0.84331  0.43163  0.28239  1.0000
  C   C52       1.0  0.34330  0.06837  0.71761  1.0000
  C   C53       1.0  0.12030  0.87909  0.86615  1.0000
  C   C54       1.0  0.62030  0.62092  0.13385  1.0000
  C   C55       1.0  0.87970  0.12092  0.13385  1.0000
  C   C56       1.0  0.37969  0.37908  0.86615  1.0000
  C   C57       1.0  0.49651  0.93999  0.01168  1.0000
  C   C58       1.0  0.99651  0.56001  0.98832  1.0000
  C   C59       1.0  0.50350  0.06001  0.98833  1.0000
  C   C60       1.0  0.00349  0.43999  0.01168  1.0000
  O   O1        1.0  0.29658  0.08749  0.24024  1.0000
  O   O2        1.0  0.79658  0.41251  0.75976  1.0000
  O   O3        1.0  0.70343  0.91251  0.75976  1.0000
  O   O4        1.0  0.20342  0.58749  0.24024  1.0000
  O   O5        1.0  0.24836  0.24443  0.18659  1.0000
  O   O6        1.0  0.74835  0.25557  0.81341  1.0000
  O   O7        1.0  0.75165  0.75557  0.81341  1.0000
  O   O8        1.0  0.25164  0.74443  0.18659  1.0000
  O   O9        1.0  0.35992  0.46027  0.65821  1.0000
  O   O10       1.0  0.85991  0.03973  0.34179  1.0000
  O   O11       1.0  0.64009  0.53973  0.34179  1.0000
  O   O12       1.0  0.14008  0.96027  0.65820  1.0000
  O   O13       1.0  0.99317  0.88590  0.87507  1.0000
  O   O14       1.0  0.49316  0.61411  0.12493  1.0000
  O   O15       1.0  0.00684  0.11411  0.12493  1.0000
  O   O16       1.0  0.50683  0.38589  0.87507  1.0000
  O   O17       1.0  0.20129  0.95618  0.91344  1.0000
  O   O18       1.0  0.70128  0.54382  0.08656  1.0000
  O   O19       1.0  0.79872  0.04382  0.08656  1.0000
  O   O20       1.0  0.29871  0.45618  0.91344  1.0000
  O   O21       1.0  0.39076  0.91732  0.05610  1.0000
  O   O22       1.0  0.89076  0.58268  0.94391  1.0000
  O   O23       1.0  0.60924  0.08267  0.94391  1.0000
  O   O24       1.0  0.10924  0.41733  0.05610  1.0000
  O   O25       1.0  0.59496  0.87291  0.98410  1.0000
  O   O26       1.0  0.09497  0.62710  0.01590  1.0000
  O   O27       1.0  0.40503  0.12710  0.01591  1.0000
  O   O28       1.0  0.90503  0.37291  0.98410  1.0000
  O   O29       1.0  0.11687  0.89635  0.10861  1.0000
  O   O30       1.0  0.61686  0.60365  0.89139  1.0000
  O   O31       1.0  0.88314  0.10365  0.89139  1.0000
  O   O32       1.0  0.38313  0.39635  0.10861  1.0000
  O   O33       1.0  0.13774  0.18904  0.97937  1.0000
  O   O34       1.0  0.63774  0.31096  0.02063  1.0000
  O   O35       1.0  0.86226  0.81096  0.02063  1.0000
  O   O36       1.0  0.36226  0.68904  0.97937  1.0000
