data_image0
_chemical_formula_structural       Cd2H32C46N8O16
_chemical_formula_sum              "Cd2 H32 C46 N8 O16"
_cell_length_a       7.09277
_cell_length_b       12.9521
_cell_length_c       13.8012
_cell_angle_alpha    112.451
_cell_angle_beta     102.627
_cell_angle_gamma    95.1426

_space_group_name_H-M_alt    "P 1"
_space_group_IT_number       1

loop_
  _space_group_symop_operation_xyz
  'x, y, z'

loop_
  _atom_site_type_symbol
  _atom_site_label
  _atom_site_symmetry_multiplicity
  _atom_site_fract_x
  _atom_site_fract_y
  _atom_site_fract_z
  _atom_site_occupancy
  Cd  Cd1       1.0  0.26789  0.57442  0.50578  1.0000
  Cd  Cd2       1.0  0.73210  0.42558  0.49422  1.0000
  H   H1        1.0  0.42278  0.49457  0.67192  1.0000
  H   H2        1.0  0.57722  0.50544  0.32808  1.0000
  H   H3        1.0  0.19307  0.51681  0.66966  1.0000
  H   H4        1.0  0.80694  0.48319  0.33035  1.0000
  H   H5        1.0  0.31074  0.84014  0.54181  1.0000
  H   H6        1.0  0.68926  0.15986  0.45819  1.0000
  H   H7        1.0  0.45733  0.03310  0.69105  1.0000
  H   H8        1.0  0.54268  0.96690  0.30894  1.0000
  H   H9        1.0  0.60037  0.04903  0.88206  1.0000
  H   H10       1.0  0.39963  0.95097  0.11793  1.0000
  H   H11       1.0  0.66333  0.95329  0.00729  1.0000
  H   H12       1.0  0.33667  0.04671  0.99270  1.0000
  H   H13       1.0  0.63342  0.77412  0.03615  1.0000
  H   H14       1.0  0.36657  0.22589  0.96385  1.0000
  H   H15       1.0  0.47738  0.58887  0.87906  1.0000
  H   H16       1.0  0.52262  0.41113  0.12094  1.0000
  H   H17       1.0  0.28294  0.74797  0.05536  1.0000
  H   H18       1.0  0.71706  0.25203  0.94464  1.0000
  H   H19       1.0  0.93710  0.66841  0.94232  1.0000
  H   H20       1.0  0.06290  0.33159  0.05768  1.0000
  H   H21       1.0  0.70536  0.56600  0.00479  1.0000
  H   H22       1.0  0.29465  0.43400  0.99521  1.0000
  H   H23       1.0  0.82307  0.54719  0.17983  1.0000
  H   H24       1.0  0.17693  0.45281  0.82017  1.0000
  H   H25       1.0  0.93636  0.96217  0.13847  1.0000
  H   H26       1.0  0.06364  0.03782  0.86153  1.0000
  H   H27       1.0  0.00624  0.88031  0.27730  1.0000
  H   H28       1.0  0.99375  0.11968  0.72269  1.0000
  H   H29       1.0  0.17073  0.01056  0.47222  1.0000
  H   H30       1.0  0.82928  0.98944  0.52778  1.0000
  H   H31       1.0  0.25262  0.21838  0.52845  1.0000
  H   H32       1.0  0.74739  0.78162  0.47155  1.0000
  C   C1        1.0  0.36840  0.85068  0.62588  1.0000
  C   C2        1.0  0.63160  0.14932  0.37411  1.0000
  C   C3        1.0  0.45230  0.95923  0.71044  1.0000
  C   C4        1.0  0.54770  0.04077  0.28955  1.0000
  C   C5        1.0  0.52892  0.96744  0.81435  1.0000
  C   C6        1.0  0.47108  0.03257  0.18565  1.0000
  C   C7        1.0  0.51670  0.86816  0.83488  1.0000
  C   C8        1.0  0.48328  0.13185  0.16512  1.0000
  C   C9        1.0  0.59190  0.87151  0.94014  1.0000
  C   C10       1.0  0.40810  0.12850  0.05986  1.0000
  C   C11       1.0  0.57581  0.77242  0.95545  1.0000
  C   C12       1.0  0.42418  0.22758  0.04455  1.0000
  C   C13       1.0  0.48650  0.66716  0.86647  1.0000
  C   C14       1.0  0.51349  0.33284  0.13354  1.0000
  C   C15       1.0  0.41194  0.65919  0.76199  1.0000
  C   C16       1.0  0.58805  0.34081  0.23801  1.0000
  C   C17       1.0  0.42565  0.76150  0.74458  1.0000
  C   C18       1.0  0.57435  0.23850  0.25542  1.0000
  C   C19       1.0  0.18388  0.61339  0.31675  1.0000
  C   C20       1.0  0.81613  0.38661  0.68325  1.0000
  C   C21       1.0  0.11662  0.63481  0.21608  1.0000
  C   C22       1.0  0.88338  0.36519  0.78392  1.0000
  C   C23       1.0  0.24236  0.69086  0.17845  1.0000
  C   C24       1.0  0.75764  0.30913  0.82155  1.0000
  C   C25       1.0  0.18074  0.70254  0.08075  1.0000
  C   C26       1.0  0.81926  0.29746  0.91925  1.0000
  C   C27       1.0  0.98593  0.65789  0.01797  1.0000
  C   C28       1.0  0.01407  0.34211  0.98203  1.0000
  C   C29       1.0  0.85744  0.60198  0.05368  1.0000
  C   C30       1.0  0.14256  0.39801  0.94632  1.0000
  C   C31       1.0  0.92222  0.59095  0.15153  1.0000
  C   C32       1.0  0.07778  0.40905  0.84847  1.0000
  C   C33       1.0  0.18261  0.33708  0.40765  1.0000
  C   C34       1.0  0.81738  0.66292  0.59235  1.0000
  C   C35       1.0  0.13844  0.20946  0.36688  1.0000
  C   C36       1.0  0.86156  0.79054  0.63312  1.0000
  C   C37       1.0  0.04968  0.13441  0.25764  1.0000
  C   C38       1.0  0.95032  0.86559  0.74236  1.0000
  C   C39       1.0  0.00164  0.01671  0.22454  1.0000
  C   C40       1.0  0.99836  0.98329  0.77546  1.0000
  C   C41       1.0  0.04319  0.97189  0.30203  1.0000
  C   C42       1.0  0.95681  0.02810  0.69796  1.0000
  C   C43       1.0  0.13407  0.04502  0.41121  1.0000
  C   C44       1.0  0.86594  0.95497  0.58879  1.0000
  C   C45       1.0  0.18114  0.16231  0.44329  1.0000
  C   C46       1.0  0.81886  0.83769  0.55671  1.0000
  N   N1        1.0  0.35685  0.75646  0.64229  1.0000
  N   N2        1.0  0.64315  0.24354  0.35771  1.0000
  N   N3        1.0  0.33059  0.55139  0.67139  1.0000
  N   N4        1.0  0.66940  0.44861  0.32861  1.0000
  N   N5        1.0  0.00964  0.17949  0.17437  1.0000
  N   N6        1.0  0.99036  0.82051  0.82563  1.0000
  N   N7        1.0  0.44333  0.74795  0.24589  1.0000
  N   N8        1.0  0.55667  0.25205  0.75411  1.0000
  O   O1        1.0  0.06070  0.61675  0.37256  1.0000
  O   O2        1.0  0.93931  0.38325  0.62744  1.0000
  O   O3        1.0  0.35363  0.59096  0.33996  1.0000
  O   O4        1.0  0.64638  0.40903  0.66004  1.0000
  O   O5        1.0  0.04067  0.38986  0.41492  1.0000
  O   O6        1.0  0.95932  0.61013  0.58507  1.0000
  O   O7        1.0  0.09082  0.27863  0.19927  1.0000
  O   O8        1.0  0.90918  0.72136  0.80073  1.0000
  O   O9        1.0  0.89809  0.11659  0.08261  1.0000
  O   O10       1.0  0.10191  0.88341  0.91739  1.0000
  O   O11       1.0  0.36082  0.38725  0.43990  1.0000
  O   O12       1.0  0.63918  0.61275  0.56010  1.0000
  O   O13       1.0  0.57849  0.73382  0.20080  1.0000
  O   O14       1.0  0.42151  0.26618  0.79920  1.0000
  O   O15       1.0  0.46524  0.81182  0.34292  1.0000
  O   O16       1.0  0.53477  0.18818  0.65708  1.0000
