data_image0
_chemical_formula_structural       Cd2H22C38N6O8
_chemical_formula_sum              "Cd2 H22 C38 N6 O8"
_cell_length_a       7.74186
_cell_length_b       10.5148
_cell_length_c       11.1255
_cell_angle_alpha    106.937
_cell_angle_beta     98.351
_cell_angle_gamma    109.754

_space_group_name_H-M_alt    "P 1"
_space_group_IT_number       1

loop_
  _space_group_symop_operation_xyz
  'x, y, z'

loop_
  _atom_site_type_symbol
  _atom_site_label
  _atom_site_symmetry_multiplicity
  _atom_site_fract_x
  _atom_site_fract_y
  _atom_site_fract_z
  _atom_site_occupancy
  Cd  Cd1       1.0  0.41957  0.08590  0.14609  1.0000
  Cd  Cd2       1.0  0.58043  0.91410  0.85391  1.0000
  H   H1        1.0  0.47462  0.30987  0.98733  1.0000
  H   H2        1.0  0.52538  0.69012  0.01267  1.0000
  H   H3        1.0  0.28061  0.42635  0.88977  1.0000
  H   H4        1.0  0.71939  0.57365  0.11023  1.0000
  H   H5        1.0  0.96286  0.38922  0.93106  1.0000
  H   H6        1.0  0.03713  0.61078  0.06894  1.0000
  H   H7        1.0  0.54114  0.43928  0.29604  1.0000
  H   H8        1.0  0.45886  0.56072  0.70395  1.0000
  H   H9        1.0  0.75540  0.64276  0.50755  1.0000
  H   H10       1.0  0.24459  0.35724  0.49245  1.0000
  H   H11       1.0  0.93760  0.58561  0.67183  1.0000
  H   H12       1.0  0.06240  0.41439  0.32817  1.0000
  H   H13       1.0  0.01343  0.40156  0.73804  1.0000
  H   H14       1.0  0.98658  0.59844  0.26196  1.0000
  H   H15       1.0  0.95954  0.13933  0.69269  1.0000
  H   H16       1.0  0.04046  0.86068  0.30731  1.0000
  H   H17       1.0  0.80730  0.88555  0.54481  1.0000
  H   H18       1.0  0.19270  0.11445  0.45520  1.0000
  H   H19       1.0  0.57974  0.69669  0.32892  1.0000
  H   H20       1.0  0.42026  0.30331  0.67109  1.0000
  H   H21       1.0  0.41567  0.77861  0.17503  1.0000
  H   H22       1.0  0.58432  0.22139  0.82497  1.0000
  C   C1        1.0  0.33347  0.29733  0.99965  1.0000
  C   C2        1.0  0.66653  0.70267  0.00035  1.0000
  C   C3        1.0  0.22736  0.36143  0.94727  1.0000
  C   C4        1.0  0.77264  0.63857  0.05274  1.0000
  C   C5        1.0  0.05089  0.34207  0.97185  1.0000
  C   C6        1.0  0.94911  0.65793  0.02815  1.0000
  C   C7        1.0  0.98579  0.26324  0.04973  1.0000
  C   C8        1.0  0.01421  0.73676  0.95027  1.0000
  C   C9        1.0  0.10202  0.20241  0.09959  1.0000
  C   C10       1.0  0.89798  0.79759  0.90041  1.0000
  C   C11       1.0  0.79738  0.25341  0.07715  1.0000
  C   C12       1.0  0.20262  0.74658  0.92285  1.0000
  C   C13       1.0  0.05428  0.12499  0.19494  1.0000
  C   C14       1.0  0.94572  0.87501  0.80506  1.0000
  C   C15       1.0  0.61904  0.41852  0.37288  1.0000
  C   C16       1.0  0.38096  0.58148  0.62712  1.0000
  C   C17       1.0  0.73802  0.53125  0.49029  1.0000
  C   C18       1.0  0.26198  0.46875  0.50971  1.0000
  C   C19       1.0  0.83807  0.49911  0.58228  1.0000
  C   C20       1.0  0.16193  0.50090  0.41772  1.0000
  C   C21       1.0  0.81542  0.35408  0.55735  1.0000
  C   C22       1.0  0.18458  0.64593  0.44264  1.0000
  C   C23       1.0  0.91559  0.31407  0.64844  1.0000
  C   C24       1.0  0.08441  0.68593  0.35156  1.0000
  C   C25       1.0  0.88900  0.17259  0.62267  1.0000
  C   C26       1.0  0.11100  0.82741  0.37733  1.0000
  C   C27       1.0  0.76213  0.06118  0.50251  1.0000
  C   C28       1.0  0.23787  0.93882  0.49749  1.0000
  C   C29       1.0  0.73208  0.91408  0.47288  1.0000
  C   C30       1.0  0.26792  0.08592  0.52712  1.0000
  C   C31       1.0  0.60788  0.81142  0.35526  1.0000
  C   C32       1.0  0.39211  0.18858  0.64474  1.0000
  C   C33       1.0  0.51549  0.85667  0.26827  1.0000
  C   C34       1.0  0.48451  0.14333  0.73173  1.0000
  C   C35       1.0  0.66305  0.09699  0.40825  1.0000
  C   C36       1.0  0.33695  0.90301  0.59174  1.0000
  C   C37       1.0  0.69003  0.24682  0.43665  1.0000
  C   C38       1.0  0.30997  0.75318  0.56335  1.0000
  N   N1        1.0  0.27016  0.21889  0.07202  1.0000
  N   N2        1.0  0.72984  0.78110  0.92798  1.0000
  N   N3        1.0  0.59631  0.28134  0.34711  1.0000
  N   N4        1.0  0.40369  0.71866  0.65289  1.0000
  N   N5        1.0  0.54290  0.99463  0.29328  1.0000
  N   N6        1.0  0.45710  0.00537  0.70671  1.0000
  O   O1        1.0  0.13270  0.03702  0.20272  1.0000
  O   O2        1.0  0.86730  0.96298  0.79729  1.0000
  O   O3        1.0  0.94734  0.15802  0.26092  1.0000
  O   O4        1.0  0.05266  0.84197  0.73908  1.0000
  O   O5        1.0  0.65734  0.12676  0.03190  1.0000
  O   O6        1.0  0.34266  0.87324  0.96810  1.0000
  O   O7        1.0  0.78343  0.36952  0.13378  1.0000
  O   O8        1.0  0.21657  0.63048  0.86622  1.0000
