data_image0
_chemical_formula_structural       Hg2H18C18S2N4O4
_chemical_formula_sum              "Hg2 H18 C18 S2 N4 O4"
_cell_length_a       8.03304
_cell_length_b       9.13149
_cell_length_c       9.21947
_cell_angle_alpha    117.07
_cell_angle_beta     107.422
_cell_angle_gamma    96.7669

_space_group_name_H-M_alt    "P 1"
_space_group_IT_number       1

loop_
  _space_group_symop_operation_xyz
  'x, y, z'

loop_
  _atom_site_type_symbol
  _atom_site_label
  _atom_site_symmetry_multiplicity
  _atom_site_fract_x
  _atom_site_fract_y
  _atom_site_fract_z
  _atom_site_occupancy
  Hg  Hg1       1.0  0.32734  0.78490  0.24815  1.0000
  Hg  Hg2       1.0  0.67266  0.21509  0.75185  1.0000
  H   H1        1.0  0.50926  0.62689  0.99310  1.0000
  H   H2        1.0  0.49074  0.37311  0.00690  1.0000
  H   H3        1.0  0.72340  0.69978  0.87827  1.0000
  H   H4        1.0  0.27659  0.30022  0.12172  1.0000
  H   H5        1.0  0.80194  0.23805  0.23590  1.0000
  H   H6        1.0  0.19806  0.76196  0.76411  1.0000
  H   H7        1.0  0.57961  0.14113  0.34028  1.0000
  H   H8        1.0  0.42039  0.85887  0.65972  1.0000
  H   H9        1.0  0.95118  0.16805  0.03613  1.0000
  H   H10       1.0  0.04882  0.83195  0.96388  1.0000
  H   H11       1.0  0.84186  0.96621  0.83393  1.0000
  H   H12       1.0  0.15814  0.03380  0.16608  1.0000
  H   H13       1.0  0.72172  0.46559  0.38926  1.0000
  H   H14       1.0  0.27828  0.53441  0.61074  1.0000
  H   H15       1.0  0.73120  0.58670  0.60881  1.0000
  H   H16       1.0  0.26881  0.41329  0.39118  1.0000
  H   H17       1.0  0.88845  0.67286  0.54631  1.0000
  H   H18       1.0  0.11155  0.32714  0.45369  1.0000
  C   C1        1.0  0.57923  0.76119  0.04670  1.0000
  C   C2        1.0  0.42076  0.23881  0.95330  1.0000
  C   C3        1.0  0.70015  0.80430  0.98252  1.0000
  C   C4        1.0  0.29984  0.19570  0.01748  1.0000
  C   C5        1.0  0.78468  0.97802  0.04922  1.0000
  C   C6        1.0  0.21532  0.02198  0.95078  1.0000
  C   C7        1.0  0.74192  0.10110  0.18111  1.0000
  C   C8        1.0  0.25808  0.89890  0.81889  1.0000
  C   C9        1.0  0.61923  0.04971  0.24015  1.0000
  C   C10       1.0  0.38077  0.95029  0.75985  1.0000
  C   C11       1.0  0.91324  0.02795  0.97930  1.0000
  C   C12       1.0  0.08676  0.97206  0.02071  1.0000
  C   C13       1.0  0.84237  0.45851  0.07867  1.0000
  C   C14       1.0  0.15762  0.54148  0.92132  1.0000
  C   C15       1.0  0.61494  0.68332  0.44066  1.0000
  C   C16       1.0  0.38506  0.31668  0.55934  1.0000
  C   C17       1.0  0.74752  0.59562  0.49865  1.0000
  C   C18       1.0  0.25248  0.40437  0.50135  1.0000
  S   S1        1.0  0.06557  0.80176  0.33018  1.0000
  S   S2        1.0  0.93443  0.19823  0.66981  1.0000
  N   N1        1.0  0.53943  0.88189  0.17318  1.0000
  N   N2        1.0  0.46058  0.11811  0.82683  1.0000
  N   N3        1.0  0.93827  0.60122  0.18481  1.0000
  N   N4        1.0  0.06174  0.39878  0.81518  1.0000
  O   O1        1.0  0.63771  0.84068  0.54552  1.0000
  O   O2        1.0  0.36230  0.15932  0.45449  1.0000
  O   O3        1.0  0.48429  0.58979  0.28599  1.0000
  O   O4        1.0  0.51572  0.41021  0.71401  1.0000
