data_image0
_chemical_formula_structural       CoH48C38N4O4
_chemical_formula_sum              "Co1 H48 C38 N4 O4"
_cell_length_a       8.3282
_cell_length_b       11.0318
_cell_length_c       11.5392
_cell_angle_alpha    103.561
_cell_angle_beta     97.3533
_cell_angle_gamma    98.2281

_space_group_name_H-M_alt    "P 1"
_space_group_IT_number       1

loop_
  _space_group_symop_operation_xyz
  'x, y, z'

loop_
  _atom_site_type_symbol
  _atom_site_label
  _atom_site_symmetry_multiplicity
  _atom_site_fract_x
  _atom_site_fract_y
  _atom_site_fract_z
  _atom_site_occupancy
  Co  Co1       1.0  0.49978  0.99975  0.50001  1.0000
  H   H1        1.0  0.84740  0.07898  0.51517  1.0000
  H   H2        1.0  0.15257  0.92105  0.48484  1.0000
  H   H3        1.0  0.03569  0.27888  0.51511  1.0000
  H   H4        1.0  0.96432  0.72117  0.48493  1.0000
  H   H5        1.0  0.60265  0.44218  0.44837  1.0000
  H   H6        1.0  0.39737  0.55786  0.55167  1.0000
  H   H7        1.0  0.43164  0.23359  0.44969  1.0000
  H   H8        1.0  0.56841  0.76640  0.55031  1.0000
  H   H9        1.0  0.82057  0.04389  0.85477  1.0000
  H   H10       1.0  0.17945  0.95613  0.14523  1.0000
  H   H11       1.0  0.49938  0.28605  0.01264  1.0000
  H   H12       1.0  0.50061  0.71393  0.98736  1.0000
  H   H13       1.0  0.55153  0.20027  0.16631  1.0000
  H   H14       1.0  0.44847  0.79974  0.83370  1.0000
  H   H15       1.0  0.72475  0.16428  0.25007  1.0000
  H   H16       1.0  0.27524  0.83571  0.74993  1.0000
  H   H17       1.0  0.60417  0.04756  0.12374  1.0000
  H   H18       1.0  0.39582  0.95245  0.87628  1.0000
  H   H19       1.0  0.91800  0.37114  0.06769  1.0000
  H   H20       1.0  0.08201  0.62884  0.93228  1.0000
  H   H21       1.0  0.90441  0.35853  0.21755  1.0000
  H   H22       1.0  0.09562  0.64144  0.78242  1.0000
  H   H23       1.0  0.73534  0.39257  0.12800  1.0000
  H   H24       1.0  0.26469  0.60743  0.87199  1.0000
  H   H25       1.0  0.87424  0.02167  0.04633  1.0000
  H   H26       1.0  0.12575  0.97832  0.95367  1.0000
  H   H27       1.0  0.98176  0.14561  0.17180  1.0000
  H   H28       1.0  0.01824  0.85437  0.82820  1.0000
  H   H29       1.0  0.00241  0.15403  0.02234  1.0000
  H   H30       1.0  0.99759  0.84595  0.97765  1.0000
  H   H31       1.0  0.23193  0.28777  0.99554  1.0000
  H   H32       1.0  0.76806  0.71221  0.00445  1.0000
  H   H33       1.0  0.13583  0.38628  0.91776  1.0000
  H   H34       1.0  0.86415  0.61371  0.08224  1.0000
  H   H35       1.0  0.35004  0.42633  0.97416  1.0000
  H   H36       1.0  0.64994  0.57366  0.02584  1.0000
  H   H37       1.0  0.13303  0.11157  0.66386  1.0000
  H   H38       1.0  0.86697  0.88843  0.33613  1.0000
  H   H39       1.0  0.01229  0.20748  0.75001  1.0000
  H   H40       1.0  0.98772  0.79251  0.24998  1.0000
  H   H41       1.0  0.10996  0.09792  0.81129  1.0000
  H   H42       1.0  0.89004  0.90207  0.18869  1.0000
  H   H43       1.0  0.40672  0.43392  0.76350  1.0000
  H   H44       1.0  0.59329  0.56608  0.23652  1.0000
  H   H45       1.0  0.19000  0.40289  0.71404  1.0000
  H   H46       1.0  0.81001  0.59712  0.28596  1.0000
  H   H47       1.0  0.31587  0.30605  0.63595  1.0000
  H   H48       1.0  0.68414  0.69395  0.36406  1.0000
  C   C1        1.0  0.80025  0.16217  0.50068  1.0000
  C   C2        1.0  0.19972  0.83786  0.49932  1.0000
  C   C3        1.0  0.90280  0.27235  0.50090  1.0000
  C   C4        1.0  0.09722  0.72771  0.49915  1.0000
  C   C5        1.0  0.83266  0.37774  0.48530  1.0000
  C   C6        1.0  0.16734  0.62229  0.51473  1.0000
  C   C7        1.0  0.66004  0.36356  0.46453  1.0000
  C   C8        1.0  0.33999  0.63648  0.53552  1.0000
  C   C9        1.0  0.56552  0.24975  0.46498  1.0000
  C   C10       1.0  0.43453  0.75025  0.53501  1.0000
  C   C11       1.0  0.47537  0.12847  0.72035  1.0000
  C   C12       1.0  0.52455  0.87144  0.27965  1.0000
  C   C13       1.0  0.61802  0.07090  0.73454  1.0000
  C   C14       1.0  0.38189  0.92901  0.26547  1.0000
  C   C15       1.0  0.71456  0.09074  0.84871  1.0000
  C   C16       1.0  0.28546  0.90926  0.15130  1.0000
  C   C17       1.0  0.67190  0.16875  0.94895  1.0000
  C   C18       1.0  0.32809  0.83124  0.05103  1.0000
  C   C19       1.0  0.53077  0.22550  0.93293  1.0000
  C   C20       1.0  0.46922  0.77449  0.06706  1.0000
  C   C21       1.0  0.42960  0.20777  0.82237  1.0000
  C   C22       1.0  0.57040  0.79223  0.17763  1.0000
  C   C23       1.0  0.76925  0.19448  0.07630  1.0000
  C   C24       1.0  0.23075  0.80550  0.92369  1.0000
  C   C25       1.0  0.65503  0.14904  0.15875  1.0000
  C   C26       1.0  0.34498  0.85096  0.84126  1.0000
  C   C27       1.0  0.83532  0.33777  0.12520  1.0000
  C   C28       1.0  0.16470  0.66221  0.87478  1.0000
  C   C29       1.0  0.91521  0.12471  0.07871  1.0000
  C   C30       1.0  0.08478  0.87528  0.92128  1.0000
  C   C31       1.0  0.27713  0.26911  0.80937  1.0000
  C   C32       1.0  0.72286  0.73089  0.19063  1.0000
  C   C33       1.0  0.24834  0.34661  0.93162  1.0000
  C   C34       1.0  0.75165  0.65337  0.06837  1.0000
  C   C35       1.0  0.12373  0.16507  0.75492  1.0000
  C   C36       1.0  0.87628  0.83493  0.24507  1.0000
  C   C37       1.0  0.29873  0.35831  0.72547  1.0000
  C   C38       1.0  0.70128  0.64170  0.27453  1.0000
  N   N1        1.0  0.63480  0.15161  0.48501  1.0000
  N   N2        1.0  0.36524  0.84841  0.51491  1.0000
  N   N3        1.0  0.92138  0.49661  0.48979  1.0000
  N   N4        1.0  0.07860  0.50348  0.51023  1.0000
  O   O1        1.0  0.39337  0.10168  0.60816  1.0000
  O   O2        1.0  0.60675  0.89847  0.39182  1.0000
  O   O3        1.0  0.65168  0.99840  0.63454  1.0000
  O   O4        1.0  0.34840  0.00170  0.36545  1.0000
