data_image0
_chemical_formula_structural       CoH50C40N2O4
_chemical_formula_sum              "Co1 H50 C40 N2 O4"
_cell_length_a       8.3963
_cell_length_b       11.1095
_cell_length_c       11.58
_cell_angle_alpha    104.519
_cell_angle_beta     97.9797
_cell_angle_gamma    96.1348

_space_group_name_H-M_alt    "P 1"
_space_group_IT_number       1

loop_
  _space_group_symop_operation_xyz
  'x, y, z'

loop_
  _atom_site_type_symbol
  _atom_site_label
  _atom_site_symmetry_multiplicity
  _atom_site_fract_x
  _atom_site_fract_y
  _atom_site_fract_z
  _atom_site_occupancy
  Co  Co1       1.0  1.00000  0.50000  1.00000  1.0000
  H   H1        1.0  0.65929  0.42823  0.98397  1.0000
  H   H2        1.0  0.34071  0.57177  0.01604  1.0000
  H   H3        1.0  0.47692  0.23755  0.98565  1.0000
  H   H4        1.0  0.52308  0.76246  0.01436  1.0000
  H   H5        1.0  0.90790  0.06435  0.04697  1.0000
  H   H6        1.0  0.09210  0.93565  0.95302  1.0000
  H   H7        1.0  0.07222  0.26736  0.04582  1.0000
  H   H8        1.0  0.92778  0.73264  0.95418  1.0000
  H   H9        1.0  0.65355  0.93905  0.02336  1.0000
  H   H10       1.0  0.34646  0.06095  0.97664  1.0000
  H   H11       1.0  0.01097  0.21798  0.48442  1.0000
  H   H12       1.0  0.98903  0.78202  0.51558  1.0000
  H   H13       1.0  0.68153  0.45634  0.64390  1.0000
  H   H14       1.0  0.31847  0.54366  0.35610  1.0000
  H   H15       1.0  0.16206  0.07576  0.52429  1.0000
  H   H16       1.0  0.83794  0.92424  0.47571  1.0000
  H   H17       1.0  0.37376  0.11521  0.58112  1.0000
  H   H18       1.0  0.62624  0.88479  0.41888  1.0000
  H   H19       1.0  0.27388  0.21187  0.50276  1.0000
  H   H20       1.0  0.72613  0.78814  0.49724  1.0000
  H   H21       1.0  0.20018  0.20078  0.86332  1.0000
  H   H22       1.0  0.79982  0.79922  0.13668  1.0000
  H   H23       1.0  0.32530  0.10154  0.78164  1.0000
  H   H24       1.0  0.67470  0.89846  0.21835  1.0000
  H   H25       1.0  0.11029  0.07259  0.73646  1.0000
  H   H26       1.0  0.88972  0.92741  0.26354  1.0000
  H   H27       1.0  0.38536  0.40307  0.68537  1.0000
  H   H28       1.0  0.61464  0.59693  0.31463  1.0000
  H   H29       1.0  0.49158  0.29741  0.74717  1.0000
  H   H30       1.0  0.50841  0.70259  0.25282  1.0000
  H   H31       1.0  0.36761  0.39267  0.83350  1.0000
  H   H32       1.0  0.63239  0.60734  0.16650  1.0000
  H   H33       1.0  0.89790  0.45648  0.37921  1.0000
  H   H34       1.0  0.10210  0.54352  0.62079  1.0000
  H   H35       1.0  0.78339  0.34297  0.24948  1.0000
  H   H36       1.0  0.21661  0.65703  0.75051  1.0000
  H   H37       1.0  0.95601  0.30524  0.33335  1.0000
  H   H38       1.0  0.04399  0.69477  0.66665  1.0000
  H   H39       1.0  0.78121  0.11293  0.36446  1.0000
  H   H40       1.0  0.21880  0.88707  0.63554  1.0000
  H   H41       1.0  0.61248  0.14797  0.27445  1.0000
  H   H42       1.0  0.38752  0.85202  0.72555  1.0000
  H   H43       1.0  0.59800  0.13233  0.42232  1.0000
  H   H44       1.0  0.40201  0.86767  0.57768  1.0000
  H   H45       1.0  0.50479  0.34752  0.47238  1.0000
  H   H46       1.0  0.49522  0.65247  0.52762  1.0000
  H   H47       1.0  0.52659  0.35969  0.32500  1.0000
  H   H48       1.0  0.47341  0.64031  0.67500  1.0000
  H   H49       1.0  0.62728  0.48025  0.45434  1.0000
  H   H50       1.0  0.37272  0.51975  0.54566  1.0000
  C   C1        1.0  0.70713  0.34489  0.99804  1.0000
  C   C2        1.0  0.29287  0.65511  0.00197  1.0000
  C   C3        1.0  0.60773  0.23752  0.99850  1.0000
  C   C4        1.0  0.39227  0.76249  0.00150  1.0000
  C   C5        1.0  0.67677  0.13100  0.01315  1.0000
  C   C6        1.0  0.32323  0.86900  0.98685  1.0000
  C   C7        1.0  0.84762  0.14259  0.03167  1.0000
  C   C8        1.0  0.15238  0.85740  0.96833  1.0000
  C   C9        1.0  0.94000  0.25354  0.03131  1.0000
  C   C10       1.0  0.06000  0.74646  0.96869  1.0000
  C   C11       1.0  0.58213  0.01246  0.00954  1.0000
  C   C12       1.0  0.41787  0.98753  0.99046  1.0000
  C   C13       1.0  0.88411  0.42933  0.76443  1.0000
  C   C14       1.0  0.11588  0.57067  0.23557  1.0000
  C   C15       1.0  0.02715  0.37160  0.77855  1.0000
  C   C16       1.0  0.97284  0.62840  0.22145  1.0000
  C   C17       1.0  0.07538  0.29375  0.67601  1.0000
  C   C18       1.0  0.92462  0.70625  0.32399  1.0000
  C   C19       1.0  0.97624  0.27684  0.56445  1.0000
  C   C20       1.0  0.02375  0.72316  0.43555  1.0000
  C   C21       1.0  0.83415  0.33294  0.54859  1.0000
  C   C22       1.0  0.16585  0.66706  0.45141  1.0000
  C   C23       1.0  0.78878  0.40971  0.64985  1.0000
  C   C24       1.0  0.21121  0.59028  0.35015  1.0000
  C   C25       1.0  0.23029  0.23378  0.68889  1.0000
  C   C26       1.0  0.76971  0.76622  0.31111  1.0000
  C   C27       1.0  0.26043  0.15475  0.56681  1.0000
  C   C28       1.0  0.73957  0.84526  0.43319  1.0000
  C   C29       1.0  0.21574  0.14696  0.77320  1.0000
  C   C30       1.0  0.78426  0.85305  0.22679  1.0000
  C   C31       1.0  0.37783  0.33800  0.74248  1.0000
  C   C32       1.0  0.62217  0.66200  0.25752  1.0000
  C   C33       1.0  0.73894  0.30907  0.42052  1.0000
  C   C34       1.0  0.26106  0.69092  0.57947  1.0000
  C   C35       1.0  0.85108  0.35606  0.34116  1.0000
  C   C36       1.0  0.14892  0.64394  0.65883  1.0000
  C   C37       1.0  0.67945  0.16722  0.36741  1.0000
  C   C38       1.0  0.32055  0.83278  0.63259  1.0000
  C   C39       1.0  0.59093  0.37825  0.41854  1.0000
  C   C40       1.0  0.40907  0.62175  0.58145  1.0000
  N   N1        1.0  0.87023  0.35213  0.01266  1.0000
  N   N2        1.0  0.12977  0.64787  0.98734  1.0000
  O   O1        1.0  0.10896  0.39740  0.89155  1.0000
  O   O2        1.0  0.89103  0.60260  0.10845  1.0000
  O   O3        1.0  0.84848  0.50278  0.86490  1.0000
  O   O4        1.0  0.15151  0.49722  0.13510  1.0000
