data_image0
_chemical_formula_structural       CuH8C6Br2N2
_chemical_formula_sum              "Cu1 H8 C6 Br2 N2"
_cell_length_a       6.04216
_cell_length_b       6.04293
_cell_length_c       6.62787
_cell_angle_alpha    77.4893
_cell_angle_beta     77.4784
_cell_angle_gamma    84.0366

_space_group_name_H-M_alt    "P 1"
_space_group_IT_number       1

loop_
  _space_group_symop_operation_xyz
  'x, y, z'

loop_
  _atom_site_type_symbol
  _atom_site_label
  _atom_site_symmetry_multiplicity
  _atom_site_fract_x
  _atom_site_fract_y
  _atom_site_fract_z
  _atom_site_occupancy
  Cu  Cu1       1.0  0.49996  0.50004  0.50001  1.0000
  H   H1        1.0  0.74114  0.74058  0.71153  1.0000
  H   H2        1.0  0.25876  0.25939  0.28853  1.0000
  H   H3        1.0  0.11325  0.11396  0.03755  1.0000
  H   H4        1.0  0.88672  0.88599  0.96248  1.0000
  H   H5        1.0  0.31413  0.09616  0.79851  1.0000
  H   H6        1.0  0.90368  0.68551  0.20178  1.0000
  H   H7        1.0  0.68581  0.90377  0.20150  1.0000
  H   H8        1.0  0.09632  0.31451  0.79823  1.0000
  C   C1        1.0  0.63344  0.63313  0.84166  1.0000
  C   C2        1.0  0.36654  0.36681  0.15838  1.0000
  C   C3        1.0  0.36189  0.36186  0.94974  1.0000
  C   C4        1.0  0.63818  0.63804  0.05024  1.0000
  C   C5        1.0  0.21273  0.21296  0.89455  1.0000
  C   C6        1.0  0.78724  0.78697  0.10546  1.0000
  Br  Br1       1.0  0.19618  0.80377  0.50017  1.0000
  Br  Br2       1.0  0.80398  0.19653  0.49968  1.0000
  N   N1        1.0  0.49821  0.49803  0.79377  1.0000
  N   N2        1.0  0.50184  0.50200  0.20622  1.0000
