data_image0
_chemical_formula_structural       Cu8H56C56I8N16O4
_chemical_formula_sum              "Cu8 H56 C56 I8 N16 O4"
_cell_length_a       4.20629
_cell_length_b       18.8859
_cell_length_c       21.4131
_cell_angle_alpha    105.511
_cell_angle_beta     90
_cell_angle_gamma    90

_space_group_name_H-M_alt    "P 1"
_space_group_IT_number       1

loop_
  _space_group_symop_operation_xyz
  'x, y, z'

loop_
  _atom_site_type_symbol
  _atom_site_label
  _atom_site_symmetry_multiplicity
  _atom_site_fract_x
  _atom_site_fract_y
  _atom_site_fract_z
  _atom_site_occupancy
  Cu  Cu1       1.0  0.02439  0.94233  0.29534  1.0000
  Cu  Cu2       1.0  0.52439  0.55767  0.70466  1.0000
  Cu  Cu3       1.0  0.97561  0.05768  0.70466  1.0000
  Cu  Cu4       1.0  0.47562  0.44232  0.29534  1.0000
  Cu  Cu5       1.0  0.47347  0.01405  0.18392  1.0000
  Cu  Cu6       1.0  0.97347  0.48595  0.81608  1.0000
  Cu  Cu7       1.0  0.52653  0.98595  0.81608  1.0000
  Cu  Cu8       1.0  0.02653  0.51405  0.18392  1.0000
  H   H1        1.0  0.10454  0.96162  0.42459  1.0000
  H   H2        1.0  0.60455  0.53838  0.57541  1.0000
  H   H3        1.0  0.89546  0.03838  0.57541  1.0000
  H   H4        1.0  0.39546  0.46162  0.42459  1.0000
  H   H5        1.0  0.36049  0.96263  0.53041  1.0000
  H   H6        1.0  0.86049  0.53737  0.46959  1.0000
  H   H7        1.0  0.63951  0.03737  0.46959  1.0000
  H   H8        1.0  0.13951  0.46263  0.53041  1.0000
  H   H9        1.0  0.63508  0.85220  0.54419  1.0000
  H   H10       1.0  0.13508  0.64780  0.45581  1.0000
  H   H11       1.0  0.36492  0.14780  0.45581  1.0000
  H   H12       1.0  0.86492  0.35220  0.54419  1.0000
  H   H13       1.0  0.63127  0.73604  0.45490  1.0000
  H   H14       1.0  0.13128  0.76396  0.54510  1.0000
  H   H15       1.0  0.36872  0.26396  0.54510  1.0000
  H   H16       1.0  0.86872  0.23604  0.45490  1.0000
  H   H17       1.0  0.43579  0.66579  0.34511  1.0000
  H   H18       1.0  0.93579  0.83421  0.65488  1.0000
  H   H19       1.0  0.56421  0.33421  0.65488  1.0000
  H   H20       1.0  0.06420  0.16579  0.34512  1.0000
  H   H21       1.0  0.11953  0.66654  0.24675  1.0000
  H   H22       1.0  0.61953  0.83346  0.75325  1.0000
  H   H23       1.0  0.88047  0.33346  0.75325  1.0000
  H   H24       1.0  0.38047  0.16654  0.24675  1.0000
  H   H25       1.0  0.80609  0.72959  0.18743  1.0000
  H   H26       1.0  0.30610  0.77041  0.81257  1.0000
  H   H27       1.0  0.19391  0.27041  0.81257  1.0000
  H   H28       1.0  0.69391  0.22959  0.18744  1.0000
  H   H29       1.0  0.64788  0.81811  0.22818  1.0000
  H   H30       1.0  0.14789  0.68189  0.77183  1.0000
  H   H31       1.0  0.35212  0.18189  0.77183  1.0000
  H   H32       1.0  0.85212  0.31811  0.22818  1.0000
  H   H33       1.0  0.19168  0.73586  0.09199  1.0000
  H   H34       1.0  0.69168  0.76414  0.90801  1.0000
  H   H35       1.0  0.80832  0.26414  0.90801  1.0000
  H   H36       1.0  0.30832  0.23586  0.09199  1.0000
  H   H37       1.0  0.71382  0.80394  0.03294  1.0000
  H   H38       1.0  0.21382  0.69606  0.96706  1.0000
  H   H39       1.0  0.28618  0.19606  0.96706  1.0000
  H   H40       1.0  0.78618  0.30394  0.03294  1.0000
  H   H41       1.0  0.80534  0.89460  0.07883  1.0000
  H   H42       1.0  0.30535  0.60540  0.92117  1.0000
  H   H43       1.0  0.19465  0.10541  0.92117  1.0000
  H   H44       1.0  0.69465  0.39459  0.07883  1.0000
  H   H45       1.0  0.31545  0.93966  0.03077  1.0000
  H   H46       1.0  0.81545  0.56034  0.96923  1.0000
  H   H47       1.0  0.68455  0.06034  0.96923  1.0000
  H   H48       1.0  0.18455  0.43966  0.03077  1.0000
  H   H49       1.0  0.64285  0.90774  0.97805  1.0000
  H   H50       1.0  0.14285  0.59226  0.02195  1.0000
  H   H51       1.0  0.35715  0.09226  0.02195  1.0000
  H   H52       1.0  0.85715  0.40774  0.97805  1.0000
  H   H53       1.0  0.16993  0.85794  0.93222  1.0000
  H   H54       1.0  0.66993  0.64206  0.06778  1.0000
  H   H55       1.0  0.83007  0.14206  0.06778  1.0000
  H   H56       1.0  0.33007  0.35794  0.93222  1.0000
  C   C1        1.0  0.21974  0.91278  0.43212  1.0000
  C   C2        1.0  0.71975  0.58721  0.56788  1.0000
  C   C3        1.0  0.78025  0.08722  0.56788  1.0000
  C   C4        1.0  0.28026  0.41279  0.43212  1.0000
  C   C5        1.0  0.36359  0.91314  0.49009  1.0000
  C   C6        1.0  0.86360  0.58686  0.50991  1.0000
  C   C7        1.0  0.63641  0.08686  0.50991  1.0000
  C   C8        1.0  0.13641  0.41314  0.49009  1.0000
  C   C9        1.0  0.51800  0.84971  0.49823  1.0000
  C   C10       1.0  0.01800  0.65029  0.50177  1.0000
  C   C11       1.0  0.48201  0.15029  0.50177  1.0000
  C   C12       1.0  0.98200  0.34971  0.49823  1.0000
  C   C13       1.0  0.51634  0.78557  0.44897  1.0000
  C   C14       1.0  0.01634  0.71443  0.55103  1.0000
  C   C15       1.0  0.48365  0.21443  0.55103  1.0000
  C   C16       1.0  0.98366  0.28557  0.44897  1.0000
  C   C17       1.0  0.35781  0.78233  0.38988  1.0000
  C   C18       1.0  0.85782  0.71766  0.61012  1.0000
  C   C19       1.0  0.64218  0.21767  0.61012  1.0000
  C   C20       1.0  0.14218  0.28234  0.38988  1.0000
  C   C21       1.0  0.21388  0.84766  0.38079  1.0000
  C   C22       1.0  0.71389  0.65234  0.61921  1.0000
  C   C23       1.0  0.78612  0.15234  0.61921  1.0000
  C   C24       1.0  0.28612  0.34766  0.38079  1.0000
  C   C25       1.0  0.32796  0.71647  0.33988  1.0000
  C   C26       1.0  0.82796  0.78353  0.66012  1.0000
  C   C27       1.0  0.67204  0.28353  0.66012  1.0000
  C   C28       1.0  0.17204  0.21647  0.33988  1.0000
  C   C29       1.0  0.15724  0.71691  0.28510  1.0000
  C   C30       1.0  0.65724  0.78309  0.71490  1.0000
  C   C31       1.0  0.84276  0.28309  0.71490  1.0000
  C   C32       1.0  0.34276  0.21691  0.28510  1.0000
  C   C33       1.0  0.03524  0.78377  0.27816  1.0000
  C   C34       1.0  0.53525  0.71623  0.72184  1.0000
  C   C35       1.0  0.96476  0.21623  0.72184  1.0000
  C   C36       1.0  0.46476  0.28377  0.27816  1.0000
  C   C37       1.0  0.86579  0.78527  0.21623  1.0000
  C   C38       1.0  0.36580  0.71473  0.78377  1.0000
  C   C39       1.0  0.13420  0.21474  0.78377  1.0000
  C   C40       1.0  0.63420  0.28526  0.21623  1.0000
  C   C41       1.0  0.22267  0.79220  0.12038  1.0000
  C   C42       1.0  0.72267  0.70780  0.87962  1.0000
  C   C43       1.0  0.77732  0.20780  0.87962  1.0000
  C   C44       1.0  0.27733  0.29220  0.12038  1.0000
  C   C45       1.0  0.39449  0.85081  0.11015  1.0000
  C   C46       1.0  0.89449  0.64919  0.88985  1.0000
  C   C47       1.0  0.60551  0.14920  0.88985  1.0000
  C   C48       1.0  0.10551  0.35080  0.11015  1.0000
  C   C49       1.0  0.61006  0.85760  0.05692  1.0000
  C   C50       1.0  0.11006  0.64240  0.94308  1.0000
  C   C51       1.0  0.38993  0.14240  0.94308  1.0000
  C   C52       1.0  0.88993  0.35759  0.05692  1.0000
  C   C53       1.0  0.45460  0.89032  0.00663  1.0000
  C   C54       1.0  0.95460  0.60968  0.99337  1.0000
  C   C55       1.0  0.54540  0.10968  0.99337  1.0000
  C   C56       1.0  0.04540  0.39032  0.00663  1.0000
  I   I1        1.0  0.53972  0.02756  0.31670  1.0000
  I   I2        1.0  0.03972  0.47244  0.68330  1.0000
  I   I3        1.0  0.46028  0.97245  0.68331  1.0000
  I   I4        1.0  0.96029  0.52755  0.31669  1.0000
  I   I5        1.0  0.95515  0.07511  0.14954  1.0000
  I   I6        1.0  0.45515  0.42489  0.85046  1.0000
  I   I7        1.0  0.04485  0.92489  0.85046  1.0000
  I   I8        1.0  0.54485  0.57511  0.14954  1.0000
  N   N1        1.0  0.06729  0.84792  0.32338  1.0000
  N   N2        1.0  0.56730  0.65208  0.67662  1.0000
  N   N3        1.0  0.93271  0.15208  0.67662  1.0000
  N   N4        1.0  0.43271  0.34792  0.32338  1.0000
  N   N5        1.0  0.06245  0.82013  0.17669  1.0000
  N   N6        1.0  0.56246  0.67987  0.82331  1.0000
  N   N7        1.0  0.93755  0.17987  0.82331  1.0000
  N   N8        1.0  0.43755  0.32013  0.17669  1.0000
  N   N9        1.0  0.12892  0.89170  0.20122  1.0000
  N   N10       1.0  0.62892  0.60830  0.79878  1.0000
  N   N11       1.0  0.87109  0.10830  0.79878  1.0000
  N   N12       1.0  0.37108  0.39170  0.20122  1.0000
  N   N13       1.0  0.33319  0.91034  0.16141  1.0000
  N   N14       1.0  0.83319  0.58966  0.83859  1.0000
  N   N15       1.0  0.66681  0.08967  0.83859  1.0000
  N   N16       1.0  0.16681  0.41033  0.16141  1.0000
  O   O1        1.0  0.25672  0.83548  0.96522  1.0000
  O   O2        1.0  0.75672  0.66452  0.03478  1.0000
  O   O3        1.0  0.74328  0.16452  0.03478  1.0000
  O   O4        1.0  0.24328  0.33548  0.96522  1.0000
