data_image0
_chemical_formula_structural       K2H48C36Cl8O17
_chemical_formula_sum              "K2 H48 C36 Cl8 O17"
_cell_length_a       10.3896
_cell_length_b       11.5359
_cell_length_c       11.638
_cell_angle_alpha    77.4079
_cell_angle_beta     64.2631
_cell_angle_gamma    69.7005

_space_group_name_H-M_alt    "P 1"
_space_group_IT_number       1

loop_
  _space_group_symop_operation_xyz
  'x, y, z'

loop_
  _atom_site_type_symbol
  _atom_site_label
  _atom_site_symmetry_multiplicity
  _atom_site_fract_x
  _atom_site_fract_y
  _atom_site_fract_z
  _atom_site_occupancy
  K   K1        1.0  0.15291  0.82595  0.83818  1.0000
  K   K2        1.0  0.84709  0.17405  0.16182  1.0000
  H   H1        1.0  0.95071  0.14008  0.71914  1.0000
  H   H2        1.0  0.04929  0.85992  0.28086  1.0000
  H   H3        1.0  0.98519  0.12828  0.55636  1.0000
  H   H4        1.0  0.01482  0.87172  0.44364  1.0000
  H   H5        1.0  0.25714  0.00994  0.52453  1.0000
  H   H6        1.0  0.74286  0.99006  0.47547  1.0000
  H   H7        1.0  0.19818  0.17176  0.54782  1.0000
  H   H8        1.0  0.80182  0.82824  0.45218  1.0000
  H   H9        1.0  0.39715  0.12683  0.62335  1.0000
  H   H10       1.0  0.60285  0.87317  0.37665  1.0000
  H   H11       1.0  0.44546  0.96424  0.60896  1.0000
  H   H12       1.0  0.55454  0.03576  0.39104  1.0000
  H   H13       1.0  0.50748  0.02792  0.77304  1.0000
  H   H14       1.0  0.49252  0.97208  0.22696  1.0000
  H   H15       1.0  0.31053  0.07504  0.86682  1.0000
  H   H16       1.0  0.68947  0.92496  0.13319  1.0000
  H   H17       1.0  0.31669  0.93348  0.02918  1.0000
  H   H18       1.0  0.68331  0.06652  0.97082  1.0000
  H   H19       1.0  0.51529  0.86674  0.96127  1.0000
  H   H20       1.0  0.48471  0.13326  0.03873  1.0000
  H   H21       1.0  0.46920  0.66518  0.95384  1.0000
  H   H22       1.0  0.53080  0.33482  0.04616  1.0000
  H   H23       1.0  0.41169  0.71178  0.11003  1.0000
  H   H24       1.0  0.58831  0.28822  0.88997  1.0000
  H   H25       1.0  0.21816  0.61437  0.21422  1.0000
  H   H26       1.0  0.78185  0.38563  0.78578  1.0000
  H   H27       1.0  0.27618  0.54693  0.06873  1.0000
  H   H28       1.0  0.72382  0.45307  0.93127  1.0000
  H   H29       1.0  0.00911  0.56515  0.21822  1.0000
  H   H30       1.0  0.99089  0.43485  0.78178  1.0000
  H   H31       1.0  0.96947  0.73120  0.19862  1.0000
  H   H32       1.0  0.03053  0.26880  0.80138  1.0000
  H   H33       1.0  0.79634  0.72660  0.12200  1.0000
  H   H34       1.0  0.20366  0.27340  0.87800  1.0000
  H   H35       1.0  0.85611  0.56358  0.10336  1.0000
  H   H36       1.0  0.14389  0.43642  0.89664  1.0000
  H   H37       1.0  0.95037  0.61432  0.86284  1.0000
  H   H38       1.0  0.04963  0.38568  0.13716  1.0000
  H   H39       1.0  0.75219  0.66212  0.94946  1.0000
  H   H40       1.0  0.24781  0.33788  0.05054  1.0000
  H   H41       1.0  0.74120  0.82236  0.76720  1.0000
  H   H42       1.0  0.25880  0.17764  0.23280  1.0000
  H   H43       1.0  0.94039  0.76103  0.69412  1.0000
  H   H44       1.0  0.05961  0.23897  0.30588  1.0000
  H   H45       1.0  0.82552  0.98794  0.62619  1.0000
  H   H46       1.0  0.17448  0.01206  0.37381  1.0000
  H   H47       1.0  0.78345  0.02367  0.78279  1.0000
  H   H48       1.0  0.21655  0.97633  0.21721  1.0000
  C   C1        1.0  0.27372  0.53321  0.63790  1.0000
  C   C2        1.0  0.72628  0.46679  0.36210  1.0000
  C   C3        1.0  0.25146  0.49835  0.53472  1.0000
  C   C4        1.0  0.74854  0.50164  0.46527  1.0000
  C   C5        1.0  0.34622  0.39712  0.46746  1.0000
  C   C6        1.0  0.65378  0.60288  0.53254  1.0000
  C   C7        1.0  0.48004  0.31875  0.49083  1.0000
  C   C8        1.0  0.51996  0.68125  0.50917  1.0000
  C   C9        1.0  0.49536  0.34803  0.60034  1.0000
  C   C10       1.0  0.50464  0.65197  0.39966  1.0000
  C   C11       1.0  0.40015  0.44945  0.66774  1.0000
  C   C12       1.0  0.59985  0.55055  0.33226  1.0000
  C   C13       1.0  0.02221  0.08438  0.63559  1.0000
  C   C14       1.0  0.97779  0.91562  0.36441  1.0000
  C   C15       1.0  0.18299  0.08020  0.59459  1.0000
  C   C16       1.0  0.81701  0.91980  0.40541  1.0000
  C   C17       1.0  0.37183  0.03939  0.67296  1.0000
  C   C18       1.0  0.62818  0.96061  0.32704  1.0000
  C   C19       1.0  0.39983  0.01214  0.79416  1.0000
  C   C20       1.0  0.60017  0.98787  0.20584  1.0000
  C   C21       1.0  0.40779  0.86256  0.96643  1.0000
  C   C22       1.0  0.59221  0.13744  0.03357  1.0000
  C   C23       1.0  0.38877  0.73582  0.02235  1.0000
  C   C24       1.0  0.61123  0.26418  0.97765  1.0000
  C   C25       1.0  0.20297  0.62944  0.12320  1.0000
  C   C26       1.0  0.79704  0.37056  0.87680  1.0000
  C   C27       1.0  0.04191  0.64437  0.15201  1.0000
  C   C28       1.0  0.95809  0.35563  0.84799  1.0000
  C   C29       1.0  0.87765  0.65311  0.05766  1.0000
  C   C30       1.0  0.12235  0.34689  0.94234  1.0000
  C   C31       1.0  0.85827  0.67844  0.93252  1.0000
  C   C32       1.0  0.14173  0.32156  0.06748  1.0000
  C   C33       1.0  0.84850  0.82897  0.75975  1.0000
  C   C34       1.0  0.15150  0.17103  0.24025  1.0000
  C   C35       1.0  0.85988  0.95845  0.70814  1.0000
  C   C36       1.0  0.14012  0.04155  0.29186  1.0000
  Cl  Cl1       1.0  0.09715  0.59005  0.50698  1.0000
  Cl  Cl2       1.0  0.90285  0.40995  0.49302  1.0000
  Cl  Cl3       1.0  0.31629  0.35321  0.35205  1.0000
  Cl  Cl4       1.0  0.68372  0.64679  0.64795  1.0000
  Cl  Cl5       1.0  0.63631  0.24524  0.64088  1.0000
  Cl  Cl6       1.0  0.36369  0.75477  0.35912  1.0000
  Cl  Cl7       1.0  0.41786  0.48374  0.79518  1.0000
  Cl  Cl8       1.0  0.58214  0.51626  0.20482  1.0000
  O   O1        1.0  0.18647  0.62493  0.69961  1.0000
  O   O2        1.0  0.81353  0.37507  0.30038  1.0000
  O   O3        1.0  0.57158  0.23108  0.42491  1.0000
  O   O4        1.0  0.42842  0.76891  0.57509  1.0000
  O   O5        1.0  1.00000  1.00000  0.00000  1.0000
  O   O6        1.0  0.00948  0.96082  0.66884  1.0000
  O   O7        1.0  0.99052  0.03918  0.33116  1.0000
  O   O8        1.0  0.21928  0.05007  0.70445  1.0000
  O   O9        1.0  0.78072  0.94993  0.29555  1.0000
  O   O10       1.0  0.40383  0.88661  0.84252  1.0000
  O   O11       1.0  0.59617  0.11339  0.15748  1.0000
  O   O12       1.0  0.23968  0.73857  0.05130  1.0000
  O   O13       1.0  0.76032  0.26143  0.94870  1.0000
  O   O14       1.0  0.02611  0.64778  0.03523  1.0000
  O   O15       1.0  0.97389  0.35222  0.96477  1.0000
  O   O16       1.0  0.85616  0.80343  0.88295  1.0000
  O   O17       1.0  0.14384  0.19657  0.11705  1.0000
