data_image0
_chemical_formula_structural       Cu4H48C52N16O24
_chemical_formula_sum              "Cu4 H48 C52 N16 O24"
_cell_length_a       10.1596
_cell_length_b       11.7351
_cell_length_c       14.3523
_cell_angle_alpha    70.2865
_cell_angle_beta     69.2776
_cell_angle_gamma    64.3512

_space_group_name_H-M_alt    "P 1"
_space_group_IT_number       1

loop_
  _space_group_symop_operation_xyz
  'x, y, z'

loop_
  _atom_site_type_symbol
  _atom_site_label
  _atom_site_symmetry_multiplicity
  _atom_site_fract_x
  _atom_site_fract_y
  _atom_site_fract_z
  _atom_site_occupancy
  Cu  Cu1       1.0  0.12045  0.65133  0.98042  1.0000
  Cu  Cu2       1.0  0.75220  0.84886  0.51954  1.0000
  Cu  Cu3       1.0  0.87955  0.34866  0.01958  1.0000
  Cu  Cu4       1.0  0.24779  0.15114  0.48046  1.0000
  H   H1        1.0  0.64105  0.66726  0.82117  1.0000
  H   H2        1.0  0.12940  0.83254  0.67880  1.0000
  H   H3        1.0  0.35894  0.33274  0.17883  1.0000
  H   H4        1.0  0.87061  0.16746  0.32119  1.0000
  H   H5        1.0  0.48224  0.62630  0.90885  1.0000
  H   H6        1.0  0.01732  0.87372  0.59107  1.0000
  H   H7        1.0  0.51775  0.37371  0.09115  1.0000
  H   H8        1.0  0.98269  0.12628  0.40892  1.0000
  H   H9        1.0  0.52838  0.74895  0.92311  1.0000
  H   H10       1.0  0.20023  0.75085  0.57688  1.0000
  H   H11       1.0  0.47162  0.25105  0.07690  1.0000
  H   H12       1.0  0.79978  0.24914  0.42312  1.0000
  H   H13       1.0  0.01000  0.96915  0.90944  1.0000
  H   H14       1.0  0.88883  0.53055  0.59044  1.0000
  H   H15       1.0  0.98999  0.03085  0.09057  1.0000
  H   H16       1.0  0.11118  0.46945  0.40955  1.0000
  H   H17       1.0  0.96116  0.00418  0.79255  1.0000
  H   H18       1.0  0.75809  0.49540  0.70724  1.0000
  H   H19       1.0  0.03883  0.99582  0.20746  1.0000
  H   H20       1.0  0.24191  0.50460  0.29275  1.0000
  H   H21       1.0  0.00798  0.11891  0.81862  1.0000
  H   H22       1.0  0.94578  0.38077  0.68125  1.0000
  H   H23       1.0  0.99201  0.88110  0.18139  1.0000
  H   H24       1.0  0.05423  0.61923  0.31874  1.0000
  H   H25       1.0  0.78529  0.54791  0.41869  1.0000
  H   H26       1.0  0.75181  0.95200  0.08172  1.0000
  H   H27       1.0  0.21471  0.45209  0.58131  1.0000
  H   H28       1.0  0.24819  0.04800  0.91828  1.0000
  H   H29       1.0  0.72953  0.55214  0.31100  1.0000
  H   H30       1.0  0.59266  0.94753  0.18940  1.0000
  H   H31       1.0  0.27047  0.44786  0.68900  1.0000
  H   H32       1.0  0.40734  0.05248  0.81060  1.0000
  H   H33       1.0  0.65425  0.47395  0.43630  1.0000
  H   H34       1.0  0.56442  0.02591  0.06415  1.0000
  H   H35       1.0  0.34576  0.52605  0.56370  1.0000
  H   H36       1.0  0.43559  0.97409  0.93585  1.0000
  H   H37       1.0  0.10609  0.93581  0.38005  1.0000
  H   H38       1.0  0.42220  0.56418  0.11969  1.0000
  H   H39       1.0  0.89390  0.06419  0.61995  1.0000
  H   H40       1.0  0.57780  0.43582  0.88032  1.0000
  H   H41       1.0  0.14114  0.76642  0.41147  1.0000
  H   H42       1.0  0.31931  0.73358  0.08827  1.0000
  H   H43       1.0  0.85887  0.23357  0.58853  1.0000
  H   H44       1.0  0.68070  0.26642  0.91173  1.0000
  H   H45       1.0  0.21658  0.84287  0.28407  1.0000
  H   H46       1.0  0.34366  0.65708  0.21569  1.0000
  H   H47       1.0  0.78342  0.15713  0.71593  1.0000
  H   H48       1.0  0.65634  0.34293  0.78431  1.0000
  C   C1        1.0  0.28030  0.85150  0.84372  1.0000
  C   C2        1.0  0.97513  0.64848  0.65627  1.0000
  C   C3        1.0  0.71969  0.14850  0.15628  1.0000
  C   C4        1.0  0.02488  0.35153  0.34373  1.0000
  C   C5        1.0  0.24781  0.99202  0.67774  1.0000
  C   C6        1.0  0.91779  0.50764  0.82219  1.0000
  C   C7        1.0  0.75217  0.00798  0.32226  1.0000
  C   C8        1.0  0.08221  0.49236  0.17780  1.0000
  C   C9        1.0  0.40099  0.93015  0.63512  1.0000
  C   C10       1.0  0.96625  0.56971  0.86484  1.0000
  C   C11       1.0  0.59899  0.06985  0.36489  1.0000
  C   C12       1.0  0.03376  0.43030  0.13516  1.0000
  C   C13       1.0  0.49865  0.83922  0.69684  1.0000
  C   C14       1.0  0.03449  0.66077  0.80310  1.0000
  C   C15       1.0  0.50134  0.16077  0.30316  1.0000
  C   C16       1.0  0.96551  0.33924  0.19690  1.0000
  C   C17       1.0  0.52726  0.70400  0.86795  1.0000
  C   C18       1.0  0.09903  0.79590  0.63202  1.0000
  C   C19       1.0  0.47273  0.29601  0.13206  1.0000
  C   C20       1.0  0.90098  0.20410  0.36798  1.0000
  C   C21       1.0  0.03216  0.01552  0.82849  1.0000
  C   C22       1.0  0.87638  0.48415  0.67138  1.0000
  C   C23       1.0  0.96783  0.98448  0.17151  1.0000
  C   C24       1.0  0.12363  0.51585  0.32862  1.0000
  C   C25       1.0  0.46360  0.95714  0.52308  1.0000
  C   C26       1.0  0.94388  0.54286  0.97688  1.0000
  C   C27       1.0  0.53639  0.04286  0.47693  1.0000
  C   C28       1.0  0.05613  0.45713  0.02311  1.0000
  C   C29       1.0  0.46177  0.87381  0.46606  1.0000
  C   C30       1.0  0.80176  0.62629  0.03386  1.0000
  C   C31       1.0  0.53822  0.12619  0.53394  1.0000
  C   C32       1.0  0.19825  0.37372  0.96614  1.0000
  C   C33       1.0  0.33271  0.90785  0.43265  1.0000
  C   C34       1.0  0.67337  0.59218  0.06724  1.0000
  C   C35       1.0  0.66728  0.09215  0.56735  1.0000
  C   C36       1.0  0.32663  0.40783  0.93276  1.0000
  C   C37       1.0  0.43935  0.69995  0.38391  1.0000
  C   C38       1.0  0.52336  0.80000  0.11609  1.0000
  C   C39       1.0  0.56065  0.30005  0.61609  1.0000
  C   C40       1.0  0.47665  0.20001  0.88391  1.0000
  C   C41       1.0  0.58637  0.75964  0.45083  1.0000
  C   C42       1.0  0.79694  0.74041  0.04922  1.0000
  C   C43       1.0  0.41362  0.24036  0.54917  1.0000
  C   C44       1.0  0.20307  0.25959  0.95079  1.0000
  C   C45       1.0  0.69332  0.55466  0.39221  1.0000
  C   C46       1.0  0.64019  0.94514  0.10819  1.0000
  C   C47       1.0  0.30668  0.44534  0.60779  1.0000
  C   C48       1.0  0.35981  0.05486  0.89181  1.0000
  C   C49       1.0  0.18789  0.84209  0.36519  1.0000
  C   C50       1.0  0.39537  0.65789  0.13457  1.0000
  C   C51       1.0  0.81211  0.15791  0.63480  1.0000
  C   C52       1.0  0.60463  0.34211  0.86543  1.0000
  N   N1        1.0  0.19161  0.95168  0.78214  1.0000
  N   N2        1.0  0.92544  0.54807  0.71780  1.0000
  N   N3        1.0  0.80838  0.04833  0.21787  1.0000
  N   N4        1.0  0.07456  0.45193  0.28219  1.0000
  N   N5        1.0  0.43301  0.80107  0.79997  1.0000
  N   N6        1.0  0.03369  0.69894  0.69999  1.0000
  N   N7        1.0  0.56698  0.19894  0.20004  1.0000
  N   N8        1.0  0.96631  0.30106  0.30001  1.0000
  N   N9        1.0  0.57121  0.67700  0.40787  1.0000
  N   N10       1.0  0.65621  0.82288  0.09234  1.0000
  N   N11       1.0  0.42878  0.32300  0.59213  1.0000
  N   N12       1.0  0.34380  0.17711  0.90766  1.0000
  N   N13       1.0  0.32421  0.81851  0.39338  1.0000
  N   N14       1.0  0.53628  0.68146  0.10650  1.0000
  N   N15       1.0  0.67578  0.18149  0.60661  1.0000
  N   N16       1.0  0.46372  0.31855  0.89350  1.0000
  O   O1        1.0  0.22776  0.81040  0.93558  1.0000
  O   O2        1.0  0.97311  0.68965  0.56446  1.0000
  O   O3        1.0  0.77223  0.18961  0.06443  1.0000
  O   O4        1.0  0.02689  0.31035  0.43554  1.0000
  O   O5        1.0  0.64168  0.78899  0.66576  1.0000
  O   O6        1.0  0.09601  0.71114  0.83421  1.0000
  O   O7        1.0  0.35831  0.21101  0.33424  1.0000
  O   O8        1.0  0.90397  0.28887  0.16579  1.0000
  O   O9        1.0  0.15501  0.08350  0.62741  1.0000
  O   O10       1.0  0.86642  0.41598  0.87251  1.0000
  O   O11       1.0  0.84498  0.91650  0.37260  1.0000
  O   O12       1.0  0.13359  0.58402  0.12749  1.0000
  O   O13       1.0  0.71134  0.72578  0.47329  1.0000
  O   O14       1.0  0.91043  0.77435  0.02678  1.0000
  O   O15       1.0  0.28866  0.27422  0.52672  1.0000
  O   O16       1.0  0.08958  0.22564  0.97323  1.0000
  O   O17       1.0  0.42681  0.61781  0.35514  1.0000
  O   O18       1.0  0.39988  0.88209  0.14483  1.0000
  O   O19       1.0  0.57320  0.38219  0.64486  1.0000
  O   O20       1.0  0.60013  0.11791  0.85517  1.0000
  O   O21       1.0  0.22140  0.01561  0.43824  1.0000
  O   O22       1.0  0.67552  0.48439  0.06156  1.0000
  O   O23       1.0  0.77860  0.98438  0.56176  1.0000
  O   O24       1.0  0.32447  0.51561  0.93843  1.0000
