data_image0
_chemical_formula_structural       CuH26C26N4O4
_chemical_formula_sum              "Cu1 H26 C26 N4 O4"
_cell_length_a       6.86569
_cell_length_b       9.59825
_cell_length_c       10.9858
_cell_angle_alpha    79.7337
_cell_angle_beta     73.0643
_cell_angle_gamma    68.1605

_space_group_name_H-M_alt    "P 1"
_space_group_IT_number       1

loop_
  _space_group_symop_operation_xyz
  'x, y, z'

loop_
  _atom_site_type_symbol
  _atom_site_label
  _atom_site_symmetry_multiplicity
  _atom_site_fract_x
  _atom_site_fract_y
  _atom_site_fract_z
  _atom_site_occupancy
  Cu  Cu1       1.0  0.49999  0.50000  0.00000  1.0000
  H   H1        1.0  0.21363  0.31396  0.06747  1.0000
  H   H2        1.0  0.78635  0.68605  0.93254  1.0000
  H   H3        1.0  0.76645  0.33759  0.65151  1.0000
  H   H4        1.0  0.23355  0.66243  0.34849  1.0000
  H   H5        1.0  0.93217  0.16903  0.71658  1.0000
  H   H6        1.0  0.06780  0.83099  0.28341  1.0000
  H   H7        1.0  0.86050  0.34248  0.78469  1.0000
  H   H8        1.0  0.13948  0.65752  0.21531  1.0000
  H   H9        1.0  0.03783  0.13621  0.03796  1.0000
  H   H10       1.0  0.96216  0.86378  0.96204  1.0000
  H   H11       1.0  0.25040  0.96234  0.99370  1.0000
  H   H12       1.0  0.74961  0.03765  0.00628  1.0000
  H   H13       1.0  0.11206  0.08109  0.88040  1.0000
  H   H14       1.0  0.88793  0.91892  0.11959  1.0000
  H   H15       1.0  0.49036  0.96195  0.74426  1.0000
  H   H16       1.0  0.50965  0.03805  0.25574  1.0000
  H   H17       1.0  0.75682  0.95611  0.71813  1.0000
  H   H18       1.0  0.24317  0.04390  0.28188  1.0000
  H   H19       1.0  0.28722  0.29111  0.64504  1.0000
  H   H20       1.0  0.71281  0.70890  0.35497  1.0000
  H   H21       1.0  0.28527  0.41278  0.42509  1.0000
  H   H22       1.0  0.71475  0.58723  0.57492  1.0000
  H   H23       1.0  0.89630  0.07818  0.27893  1.0000
  H   H24       1.0  0.10371  0.92181  0.72108  1.0000
  H   H25       1.0  0.88126  0.94173  0.49605  1.0000
  H   H26       1.0  0.11875  0.05827  0.50396  1.0000
  C   C1        1.0  0.33416  0.16037  0.92235  1.0000
  C   C2        1.0  0.66583  0.83963  0.07764  1.0000
  C   C3        1.0  0.51484  0.14249  0.81926  1.0000
  C   C4        1.0  0.48516  0.85751  0.18073  1.0000
  C   C5        1.0  0.60642  0.24885  0.82856  1.0000
  C   C6        1.0  0.39357  0.75115  0.17143  1.0000
  C   C7        1.0  0.80216  0.27632  0.74143  1.0000
  C   C8        1.0  0.19783  0.72369  0.25856  1.0000
  C   C9        1.0  0.17504  0.08056  0.96157  1.0000
  C   C10       1.0  0.82495  0.91944  0.03842  1.0000
  C   C11       1.0  0.59130  0.03395  0.71921  1.0000
  C   C12       1.0  0.40873  0.96605  0.28079  1.0000
  C   C13       1.0  0.58686  0.10923  0.58602  1.0000
  C   C14       1.0  0.41316  0.89076  0.41398  1.0000
  C   C15       1.0  0.41890  0.24177  0.56440  1.0000
  C   C16       1.0  0.58114  0.75823  0.43561  1.0000
  C   C17       1.0  0.41874  0.31156  0.44167  1.0000
  C   C18       1.0  0.58127  0.68845  0.55834  1.0000
  C   C19       1.0  0.59370  0.25462  0.33854  1.0000
  C   C20       1.0  0.40630  0.74537  0.66146  1.0000
  C   C21       1.0  0.76091  0.12177  0.35978  1.0000
  C   C22       1.0  0.23909  0.87823  0.64022  1.0000
  C   C23       1.0  0.75370  0.04757  0.48115  1.0000
  C   C24       1.0  0.24633  0.95242  0.51885  1.0000
  C   C25       1.0  0.60799  0.33231  0.20678  1.0000
  C   C26       1.0  0.39200  0.66769  0.79323  1.0000
  N   N1        1.0  0.48884  0.32593  0.93226  1.0000
  N   N2        1.0  0.51114  0.67407  0.06773  1.0000
  N   N3        1.0  0.32556  0.27054  0.98761  1.0000
  N   N4        1.0  0.67441  0.72946  0.01238  1.0000
  O   O1        1.0  0.42463  0.40486  0.17661  1.0000
  O   O2        1.0  0.57536  0.59512  0.82340  1.0000
  O   O3        1.0  0.78917  0.32436  0.13256  1.0000
  O   O4        1.0  0.21085  0.67564  0.86744  1.0000
