data_image0
_chemical_formula_structural       H48Pb4C32O12
_chemical_formula_sum              "H48 Pb4 C32 O12"
_cell_length_a       10.0651
_cell_length_b       10.3627
_cell_length_c       10.5562
_cell_angle_alpha    89.9998
_cell_angle_beta     106.771
_cell_angle_gamma    90.0003

_space_group_name_H-M_alt    "P 1"
_space_group_IT_number       1

loop_
  _space_group_symop_operation_xyz
  'x, y, z'

loop_
  _atom_site_type_symbol
  _atom_site_label
  _atom_site_symmetry_multiplicity
  _atom_site_fract_x
  _atom_site_fract_y
  _atom_site_fract_z
  _atom_site_occupancy
  H   H1        1.0  0.73184  0.90797  0.99504  1.0000
  H   H2        1.0  0.76816  0.40797  0.50496  1.0000
  H   H3        1.0  0.26816  0.09202  0.00496  1.0000
  H   H4        1.0  0.23184  0.59203  0.49504  1.0000
  H   H5        1.0  0.90313  0.97507  0.02296  1.0000
  H   H6        1.0  0.59687  0.47507  0.47704  1.0000
  H   H7        1.0  0.09687  0.02491  0.97704  1.0000
  H   H8        1.0  0.40313  0.52492  0.52296  1.0000
  H   H9        1.0  0.87180  0.85094  0.13140  1.0000
  H   H10       1.0  0.62820  0.35094  0.36860  1.0000
  H   H11       1.0  0.12820  0.14906  0.86861  1.0000
  H   H12       1.0  0.37180  0.64907  0.63140  1.0000
  H   H13       1.0  0.04714  0.12991  0.34872  1.0000
  H   H14       1.0  0.45286  0.62992  0.15128  1.0000
  H   H15       1.0  0.95287  0.87009  0.65126  1.0000
  H   H16       1.0  0.54713  0.37009  0.84875  1.0000
  H   H17       1.0  0.93895  0.26753  0.35464  1.0000
  H   H18       1.0  0.56105  0.76754  0.14536  1.0000
  H   H19       1.0  0.06106  0.73247  0.64535  1.0000
  H   H20       1.0  0.43894  0.23247  0.85466  1.0000
  H   H21       1.0  0.93571  0.12694  0.45565  1.0000
  H   H22       1.0  0.56429  0.62695  0.04435  1.0000
  H   H23       1.0  0.06431  0.87306  0.54434  1.0000
  H   H24       1.0  0.43569  0.37307  0.95566  1.0000
  H   H25       1.0  0.53817  0.19924  0.22780  1.0000
  H   H26       1.0  0.96182  0.69925  0.27220  1.0000
  H   H27       1.0  0.46184  0.80076  0.77220  1.0000
  H   H28       1.0  0.03817  0.30076  0.72780  1.0000
  H   H29       1.0  0.51390  0.15816  0.05689  1.0000
  H   H30       1.0  0.98609  0.65817  0.44311  1.0000
  H   H31       1.0  0.48610  0.84185  0.94312  1.0000
  H   H32       1.0  0.01390  0.34185  0.55688  1.0000
  H   H33       1.0  0.50508  0.03399  0.17529  1.0000
  H   H34       1.0  0.99491  0.53400  0.32471  1.0000
  H   H35       1.0  0.49493  0.96601  0.82471  1.0000
  H   H36       1.0  0.00508  0.46602  0.67528  1.0000
  H   H37       1.0  0.81809  0.34818  0.79269  1.0000
  H   H38       1.0  0.68190  0.84817  0.70730  1.0000
  H   H39       1.0  0.18190  0.65182  0.20731  1.0000
  H   H40       1.0  0.31810  0.15182  0.29270  1.0000
  H   H41       1.0  0.82133  0.59559  0.69381  1.0000
  H   H42       1.0  0.67866  0.09559  0.80618  1.0000
  H   H43       1.0  0.17866  0.40441  0.30619  1.0000
  H   H44       1.0  0.32133  0.90441  0.19381  1.0000
  H   H45       1.0  0.81918  0.75245  0.90367  1.0000
  H   H46       1.0  0.68082  0.25244  0.59633  1.0000
  H   H47       1.0  0.18082  0.24755  0.09634  1.0000
  H   H48       1.0  0.31918  0.74755  0.40366  1.0000
  Pb  Pb1       1.0  0.77719  0.08547  0.19826  1.0000
  Pb  Pb2       1.0  0.72280  0.58548  0.30174  1.0000
  Pb  Pb3       1.0  0.22282  0.91453  0.80173  1.0000
  Pb  Pb4       1.0  0.27719  0.41453  0.69827  1.0000
  C   C1        1.0  0.82862  0.93410  0.06949  1.0000
  C   C2        1.0  0.67137  0.43411  0.43051  1.0000
  C   C3        1.0  0.17138  0.06589  0.93051  1.0000
  C   C4        1.0  0.32862  0.56589  0.56949  1.0000
  C   C5        1.0  0.94913  0.16267  0.36275  1.0000
  C   C6        1.0  0.55086  0.66268  0.13725  1.0000
  C   C7        1.0  0.05088  0.83733  0.63724  1.0000
  C   C8        1.0  0.44913  0.33733  0.86277  1.0000
  C   C9        1.0  0.55228  0.12514  0.15927  1.0000
  C   C10       1.0  0.94772  0.62515  0.34073  1.0000
  C   C11       1.0  0.44773  0.87486  0.84074  1.0000
  C   C12       1.0  0.05227  0.37487  0.65926  1.0000
  C   C13       1.0  0.79039  0.35520  0.06636  1.0000
  C   C14       1.0  0.70961  0.85520  0.43364  1.0000
  C   C15       1.0  0.20961  0.64479  0.93364  1.0000
  C   C16       1.0  0.29040  0.14479  0.56637  1.0000
  C   C17       1.0  0.80645  0.45160  0.96922  1.0000
  C   C18       1.0  0.69355  0.95160  0.53077  1.0000
  C   C19       1.0  0.19355  0.54839  0.03078  1.0000
  C   C20       1.0  0.30646  0.04840  0.46922  1.0000
  C   C21       1.0  0.81462  0.43930  0.84202  1.0000
  C   C22       1.0  0.68538  0.93930  0.65798  1.0000
  C   C23       1.0  0.18538  0.56070  0.15798  1.0000
  C   C24       1.0  0.31462  0.06070  0.34202  1.0000
  C   C25       1.0  0.81817  0.56667  0.79176  1.0000
  C   C26       1.0  0.68183  0.06667  0.70824  1.0000
  C   C27       1.0  0.18182  0.43333  0.20825  1.0000
  C   C28       1.0  0.31817  0.93333  0.29175  1.0000
  C   C29       1.0  0.81404  0.64859  0.89225  1.0000
  C   C30       1.0  0.68596  0.14859  0.60774  1.0000
  C   C31       1.0  0.18596  0.35140  0.10775  1.0000
  C   C32       1.0  0.31404  0.85141  0.39225  1.0000
  O   O1        1.0  0.80538  0.23721  0.03561  1.0000
  O   O2        1.0  0.69462  0.73721  0.46439  1.0000
  O   O3        1.0  0.19462  0.76278  0.96439  1.0000
  O   O4        1.0  0.30539  0.26278  0.53562  1.0000
  O   O5        1.0  0.73880  0.88944  0.32943  1.0000
  O   O6        1.0  0.76120  0.38945  0.17057  1.0000
  O   O7        1.0  0.26121  0.11055  0.67057  1.0000
  O   O8        1.0  0.23880  0.61055  0.82943  1.0000
  O   O9        1.0  0.80581  0.58083  0.00074  1.0000
  O   O10       1.0  0.69420  0.08083  0.49926  1.0000
  O   O11       1.0  0.19419  0.41916  0.99927  1.0000
  O   O12       1.0  0.30581  0.91916  0.50073  1.0000
