data_image0
_chemical_formula_structural       Li4H8C4N28O4
_chemical_formula_sum              "Li4 H8 C4 N28 O4"
_cell_length_a       4.67603
_cell_length_b       8.97839
_cell_length_c       12.73
_cell_angle_alpha    95.5205
_cell_angle_beta     90
_cell_angle_gamma    89.9996

_space_group_name_H-M_alt    "P 1"
_space_group_IT_number       1

loop_
  _space_group_symop_operation_xyz
  'x, y, z'

loop_
  _atom_site_type_symbol
  _atom_site_label
  _atom_site_symmetry_multiplicity
  _atom_site_fract_x
  _atom_site_fract_y
  _atom_site_fract_z
  _atom_site_occupancy
  Li  Li1       1.0  0.49175  0.00197  0.15300  1.0000
  Li  Li2       1.0  0.99175  0.99803  0.34700  1.0000
  Li  Li3       1.0  0.50825  0.99803  0.84700  1.0000
  Li  Li4       1.0  0.00825  0.00197  0.65300  1.0000
  H   H1        1.0  0.35622  0.17877  0.31299  1.0000
  H   H2        1.0  0.85623  0.82123  0.18701  1.0000
  H   H3        1.0  0.64378  0.82123  0.68701  1.0000
  H   H4        1.0  0.14378  0.17877  0.81299  1.0000
  H   H5        1.0  0.11970  0.18023  0.21705  1.0000
  H   H6        1.0  0.61970  0.81977  0.28295  1.0000
  H   H7        1.0  0.88030  0.81977  0.78295  1.0000
  H   H8        1.0  0.38030  0.18023  0.71705  1.0000
  C   C1        1.0  0.05370  0.28539  0.02202  1.0000
  C   C2        1.0  0.55370  0.71461  0.47797  1.0000
  C   C3        1.0  0.94630  0.71461  0.97798  1.0000
  C   C4        1.0  0.44630  0.28539  0.52203  1.0000
  N   N1        1.0  0.92747  0.22877  0.10446  1.0000
  N   N2        1.0  0.42746  0.77123  0.39554  1.0000
  N   N3        1.0  0.07253  0.77123  0.89554  1.0000
  N   N4        1.0  0.57254  0.22877  0.60446  1.0000
  N   N5        1.0  0.94965  0.22392  0.92943  1.0000
  N   N6        1.0  0.44965  0.77608  0.57057  1.0000
  N   N7        1.0  0.05035  0.77608  0.07057  1.0000
  N   N8        1.0  0.55035  0.22392  0.42943  1.0000
  N   N9        1.0  0.75152  0.12578  0.95624  1.0000
  N   N10       1.0  0.25152  0.87422  0.54376  1.0000
  N   N11       1.0  0.24848  0.87422  0.04376  1.0000
  N   N12       1.0  0.74848  0.12578  0.45624  1.0000
  N   N13       1.0  0.43673  0.52374  0.18399  1.0000
  N   N14       1.0  0.93674  0.47626  0.31601  1.0000
  N   N15       1.0  0.56327  0.47626  0.81601  1.0000
  N   N16       1.0  0.06326  0.52374  0.68399  1.0000
  N   N17       1.0  0.34234  0.45453  0.11231  1.0000
  N   N18       1.0  0.84234  0.54547  0.38769  1.0000
  N   N19       1.0  0.65765  0.54547  0.88769  1.0000
  N   N20       1.0  0.15766  0.45453  0.61231  1.0000
  N   N21       1.0  0.73825  0.12863  0.06011  1.0000
  N   N22       1.0  0.23824  0.87137  0.43989  1.0000
  N   N23       1.0  0.26175  0.87137  0.93989  1.0000
  N   N24       1.0  0.76176  0.12863  0.56011  1.0000
  N   N25       1.0  0.26703  0.39266  0.02548  1.0000
  N   N26       1.0  0.76702  0.60734  0.47452  1.0000
  N   N27       1.0  0.73297  0.60734  0.97452  1.0000
  N   N28       1.0  0.23298  0.39266  0.52548  1.0000
  O   O1        1.0  0.24173  0.11552  0.25867  1.0000
  O   O2        1.0  0.74173  0.88449  0.24134  1.0000
  O   O3        1.0  0.75827  0.88449  0.74133  1.0000
  O   O4        1.0  0.25827  0.11551  0.75866  1.0000
