data_image0
_chemical_formula_structural       Fe4H32Pt4C48S4N24
_chemical_formula_sum              "Fe4 H32 Pt4 C48 S4 N24"
_cell_length_a       9.77787
_cell_length_b       9.76347
_cell_length_c       16.2225
_cell_angle_alpha    108.545
_cell_angle_beta     108.517
_cell_angle_gamma    91.2564

_space_group_name_H-M_alt    "P 1"
_space_group_IT_number       1

loop_
  _space_group_symop_operation_xyz
  'x, y, z'

loop_
  _atom_site_type_symbol
  _atom_site_label
  _atom_site_symmetry_multiplicity
  _atom_site_fract_x
  _atom_site_fract_y
  _atom_site_fract_z
  _atom_site_occupancy
  Fe  Fe1       1.0  0.00000  0.50000  1.00000  1.0000
  Fe  Fe2       1.0  0.50000  0.00000  1.00000  1.0000
  Fe  Fe3       1.0  0.25034  0.74970  0.49999  1.0000
  Fe  Fe4       1.0  0.74966  0.25030  0.50001  1.0000
  H   H1        1.0  0.31173  0.50497  0.00131  1.0000
  H   H2        1.0  0.68827  0.49503  0.99869  1.0000
  H   H3        1.0  0.50543  0.31215  0.00126  1.0000
  H   H4        1.0  0.49457  0.68785  0.99875  1.0000
  H   H5        1.0  0.01619  0.80394  0.00206  1.0000
  H   H6        1.0  0.98381  0.19606  0.99794  1.0000
  H   H7        1.0  0.80356  0.01576  0.00202  1.0000
  H   H8        1.0  0.19644  0.98424  0.99797  1.0000
  H   H9        1.0  0.53616  0.74600  0.46805  1.0000
  H   H10       1.0  0.92943  0.71782  0.46558  1.0000
  H   H11       1.0  0.28256  0.07101  0.53442  1.0000
  H   H12       1.0  0.25349  0.46347  0.53191  1.0000
  H   H13       1.0  0.46384  0.25399  0.53196  1.0000
  H   H14       1.0  0.07057  0.28218  0.53442  1.0000
  H   H15       1.0  0.71744  0.92899  0.46558  1.0000
  H   H16       1.0  0.74651  0.53653  0.46809  1.0000
  H   H17       1.0  0.20832  0.71963  0.25980  1.0000
  H   H18       1.0  0.04545  0.53105  0.24550  1.0000
  H   H19       1.0  0.46881  0.95436  0.75452  1.0000
  H   H20       1.0  0.28045  0.79190  0.74018  1.0000
  H   H21       1.0  0.79168  0.28036  0.74019  1.0000
  H   H22       1.0  0.95455  0.46895  0.75450  1.0000
  H   H23       1.0  0.53119  0.04563  0.24548  1.0000
  H   H24       1.0  0.71955  0.20810  0.25983  1.0000
  H   H25       1.0  0.44525  0.60576  0.24532  1.0000
  H   H26       1.0  0.79630  0.63387  0.23715  1.0000
  H   H27       1.0  0.36644  0.20404  0.76288  1.0000
  H   H28       1.0  0.39387  0.55450  0.75467  1.0000
  H   H29       1.0  0.55476  0.39423  0.75467  1.0000
  H   H30       1.0  0.20370  0.36613  0.76285  1.0000
  H   H31       1.0  0.63356  0.79595  0.23712  1.0000
  H   H32       1.0  0.60614  0.44551  0.24534  1.0000
  Pt  Pt1       1.0  0.35201  0.35193  0.24907  1.0000
  Pt  Pt2       1.0  0.89750  0.89759  0.25105  1.0000
  Pt  Pt3       1.0  0.10250  0.10241  0.74895  1.0000
  Pt  Pt4       1.0  0.64798  0.64807  0.75093  1.0000
  C   C1        1.0  0.21080  0.40584  0.15026  1.0000
  C   C2        1.0  0.94188  0.74640  0.15191  1.0000
  C   C3        1.0  0.25391  0.05842  0.84813  1.0000
  C   C4        1.0  0.59384  0.78900  0.84972  1.0000
  C   C5        1.0  0.78920  0.59416  0.84974  1.0000
  C   C6        1.0  0.05812  0.25360  0.84809  1.0000
  C   C7        1.0  0.74609  0.94157  0.15186  1.0000
  C   C8        1.0  0.40615  0.21099  0.15028  1.0000
  C   C9        1.0  0.30912  0.50388  0.34838  1.0000
  C   C10       1.0  0.03784  0.84295  0.34984  1.0000
  C   C11       1.0  0.15746  0.96237  0.65019  1.0000
  C   C12       1.0  0.49583  0.69061  0.65159  1.0000
  C   C13       1.0  0.69087  0.49612  0.65161  1.0000
  C   C14       1.0  0.96215  0.15705  0.65016  1.0000
  C   C15       1.0  0.84254  0.03763  0.34981  1.0000
  C   C16       1.0  0.50417  0.30939  0.34841  1.0000
  C   C17       1.0  0.28604  0.61266  0.00082  1.0000
  C   C18       1.0  0.71396  0.38734  0.99918  1.0000
  C   C19       1.0  0.61293  0.28628  0.00077  1.0000
  C   C20       1.0  0.38707  0.71372  0.99923  1.0000
  C   C21       1.0  0.12300  0.77693  0.00109  1.0000
  C   C22       1.0  0.87700  0.22307  0.99891  1.0000
  C   C23       1.0  0.77673  0.12276  0.00105  1.0000
  C   C24       1.0  0.22327  0.87724  0.99894  1.0000
  C   C25       1.0  0.51972  0.85983  0.48259  1.0000
  C   C26       1.0  0.96153  0.62049  0.48124  1.0000
  C   C27       1.0  0.37972  0.03871  0.51876  1.0000
  C   C28       1.0  0.13989  0.48007  0.51738  1.0000
  C   C29       1.0  0.48028  0.14017  0.51741  1.0000
  C   C30       1.0  0.03847  0.37951  0.51875  1.0000
  C   C31       1.0  0.62028  0.96128  0.48124  1.0000
  C   C32       1.0  0.86011  0.51993  0.48262  1.0000
  C   C33       1.0  0.30259  0.77225  0.25519  1.0000
  C   C34       1.0  0.94898  0.47748  0.24706  1.0000
  C   C35       1.0  0.52241  0.05090  0.75294  1.0000
  C   C36       1.0  0.22779  0.69757  0.74479  1.0000
  C   C37       1.0  0.69742  0.22774  0.74481  1.0000
  C   C38       1.0  0.05102  0.52252  0.75294  1.0000
  C   C39       1.0  0.47759  0.94910  0.24706  1.0000
  C   C40       1.0  0.77221  0.30244  0.25522  1.0000
  C   C41       1.0  0.42726  0.71613  0.24747  1.0000
  C   C42       1.0  0.81777  0.52782  0.24276  1.0000
  C   C43       1.0  0.47231  0.18238  0.75727  1.0000
  C   C44       1.0  0.28369  0.57265  0.75251  1.0000
  C   C45       1.0  0.57274  0.28387  0.75253  1.0000
  C   C46       1.0  0.18223  0.47218  0.75724  1.0000
  C   C47       1.0  0.52770  0.81762  0.24273  1.0000
  C   C48       1.0  0.71631  0.42736  0.24750  1.0000
  S   S1        1.0  0.30823  0.94879  0.25701  1.0000
  S   S2        1.0  0.94847  0.30788  0.25701  1.0000
  S   S3        1.0  0.69178  0.05121  0.74299  1.0000
  S   S4        1.0  0.05153  0.69212  0.74300  1.0000
  N   N1        1.0  0.13560  0.44389  0.09181  1.0000
  N   N2        1.0  0.95967  0.65053  0.09267  1.0000
  N   N3        1.0  0.34967  0.04063  0.90734  1.0000
  N   N4        1.0  0.55577  0.86416  0.90820  1.0000
  N   N5        1.0  0.86440  0.55611  0.90819  1.0000
  N   N6        1.0  0.04034  0.34947  0.90733  1.0000
  N   N7        1.0  0.65033  0.95937  0.09266  1.0000
  N   N8        1.0  0.44423  0.13585  0.09180  1.0000
  N   N9        1.0  0.29257  0.60058  0.40768  1.0000
  N   N10       1.0  0.11244  0.80398  0.40804  1.0000
  N   N11       1.0  0.19641  0.88783  0.59194  1.0000
  N   N12       1.0  0.39925  0.70715  0.59231  1.0000
  N   N13       1.0  0.70743  0.39942  0.59232  1.0000
  N   N14       1.0  0.88756  0.19602  0.59196  1.0000
  N   N15       1.0  0.80359  0.11217  0.40806  1.0000
  N   N16       1.0  0.60075  0.29285  0.40769  1.0000
  N   N17       1.0  0.15217  0.64256  0.00175  1.0000
  N   N18       1.0  0.84783  0.35744  0.99825  1.0000
  N   N19       1.0  0.64260  0.15218  0.00172  1.0000
  N   N20       1.0  0.35740  0.84782  0.99828  1.0000
  N   N21       1.0  0.39771  0.89681  0.50134  1.0000
  N   N22       1.0  0.10317  0.60229  0.49864  1.0000
  N   N23       1.0  0.60229  0.10319  0.49866  1.0000
  N   N24       1.0  0.89683  0.39771  0.50136  1.0000
