data_image0
_chemical_formula_structural       Al4H12C16O20
_chemical_formula_sum              "Al4 H12 C16 O20"
_cell_length_a       6.68951
_cell_length_b       11.0942
_cell_length_c       13.1676
_cell_angle_alpha    89.9999
_cell_angle_beta     90.0003
_cell_angle_gamma    101.399

_space_group_name_H-M_alt    "P 1"
_space_group_IT_number       1

loop_
  _space_group_symop_operation_xyz
  'x, y, z'

loop_
  _atom_site_type_symbol
  _atom_site_label
  _atom_site_symmetry_multiplicity
  _atom_site_fract_x
  _atom_site_fract_y
  _atom_site_fract_z
  _atom_site_occupancy
  Al  Al1       1.0  0.50000  0.00001  0.49999  1.0000
  Al  Al2       1.0  0.99999  0.49999  0.00000  1.0000
  Al  Al3       1.0  0.00002  0.00001  0.50000  1.0000
  Al  Al4       1.0  0.49999  0.49999  1.00000  1.0000
  H   H1        1.0  0.51652  0.74652  0.75924  1.0000
  H   H2        1.0  0.98350  0.75348  0.25924  1.0000
  H   H3        1.0  0.48349  0.25348  0.24076  1.0000
  H   H4        1.0  0.01651  0.24654  0.74075  1.0000
  H   H5        1.0  0.98225  0.76139  0.74632  1.0000
  H   H6        1.0  0.51778  0.73861  0.24632  1.0000
  H   H7        1.0  0.01776  0.23861  0.25368  1.0000
  H   H8        1.0  0.48224  0.26138  0.75368  1.0000
  H   H9        1.0  0.19847  0.84038  0.48077  1.0000
  H   H10       1.0  0.30154  0.65962  0.98077  1.0000
  H   H11       1.0  0.80152  0.15961  0.51924  1.0000
  H   H12       1.0  0.69849  0.34039  0.01923  1.0000
  C   C1        1.0  0.70030  0.85662  0.64078  1.0000
  C   C2        1.0  0.79970  0.64337  0.14078  1.0000
  C   C3        1.0  0.29969  0.14337  0.35923  1.0000
  C   C4        1.0  0.20031  0.35664  0.85922  1.0000
  C   C5        1.0  0.67177  0.77384  0.73045  1.0000
  C   C6        1.0  0.82819  0.72615  0.23044  1.0000
  C   C7        1.0  0.32821  0.22615  0.26956  1.0000
  C   C8        1.0  0.17176  0.27384  0.76955  1.0000
  C   C9        1.0  0.82681  0.73359  0.77483  1.0000
  C   C10       1.0  0.67316  0.76642  0.27482  1.0000
  C   C11       1.0  0.17319  0.26642  0.22518  1.0000
  C   C12       1.0  0.32680  0.23358  0.72517  1.0000
  C   C13       1.0  0.79560  0.64895  0.86317  1.0000
  C   C14       1.0  0.70439  0.85105  0.36318  1.0000
  C   C15       1.0  0.20441  0.35104  0.13682  1.0000
  C   C16       1.0  0.29560  0.14895  0.63683  1.0000
  O   O1        1.0  0.87756  0.88363  0.60165  1.0000
  O   O2        1.0  0.62246  0.61638  0.10165  1.0000
  O   O3        1.0  0.12245  0.11637  0.39835  1.0000
  O   O4        1.0  0.37757  0.38362  0.89835  1.0000
  O   O5        1.0  0.54064  0.89235  0.61010  1.0000
  O   O6        1.0  0.95935  0.60764  0.11009  1.0000
  O   O7        1.0  0.45936  0.10765  0.38991  1.0000
  O   O8        1.0  0.04065  0.39237  0.88990  1.0000
  O   O9        1.0  0.95583  0.62063  0.90114  1.0000
  O   O10       1.0  0.54415  0.87938  0.40113  1.0000
  O   O11       1.0  0.04417  0.37939  0.09886  1.0000
  O   O12       1.0  0.45582  0.12061  0.59887  1.0000
  O   O13       1.0  0.61382  0.61098  0.89437  1.0000
  O   O14       1.0  0.88618  0.88903  0.39437  1.0000
  O   O15       1.0  0.38618  0.38903  0.10563  1.0000
  O   O16       1.0  0.11382  0.11097  0.60563  1.0000
  O   O17       1.0  0.22598  0.92610  0.50054  1.0000
  O   O18       1.0  0.27402  0.57390  0.00054  1.0000
  O   O19       1.0  0.77398  0.07389  0.49946  1.0000
  O   O20       1.0  0.72602  0.42611  0.99946  1.0000
