data_image0
_chemical_formula_structural       Co4H36C40N12O8
_chemical_formula_sum              "Co4 H36 C40 N12 O8"
_cell_length_a       4.83251
_cell_length_b       9.69996
_cell_length_c       22.3378
_cell_angle_alpha    89.9999
_cell_angle_beta     90
_cell_angle_gamma    99.9109

_space_group_name_H-M_alt    "P 1"
_space_group_IT_number       1

loop_
  _space_group_symop_operation_xyz
  'x, y, z'

loop_
  _atom_site_type_symbol
  _atom_site_label
  _atom_site_symmetry_multiplicity
  _atom_site_fract_x
  _atom_site_fract_y
  _atom_site_fract_z
  _atom_site_occupancy
  Co  Co1       1.0  0.92295  0.16630  0.68463  1.0000
  Co  Co2       1.0  0.07704  0.33370  0.18463  1.0000
  Co  Co3       1.0  0.07704  0.83370  0.31537  1.0000
  Co  Co4       1.0  0.92295  0.66630  0.81537  1.0000
  H   H1        1.0  0.42374  0.31030  0.78287  1.0000
  H   H2        1.0  0.57626  0.18970  0.28287  1.0000
  H   H3        1.0  0.57626  0.68970  0.21713  1.0000
  H   H4        1.0  0.42374  0.81030  0.71713  1.0000
  H   H5        1.0  0.76480  0.30013  0.86477  1.0000
  H   H6        1.0  0.23521  0.19987  0.36478  1.0000
  H   H7        1.0  0.23521  0.69987  0.13522  1.0000
  H   H8        1.0  0.76480  0.80013  0.63523  1.0000
  H   H9        1.0  0.75530  0.08542  0.92531  1.0000
  H   H10       1.0  0.24470  0.41458  0.42531  1.0000
  H   H11       1.0  0.24470  0.91458  0.07469  1.0000
  H   H12       1.0  0.75530  0.58542  0.57469  1.0000
  H   H13       1.0  0.41295  0.86830  0.90309  1.0000
  H   H14       1.0  0.58705  0.63170  0.40309  1.0000
  H   H15       1.0  0.58705  0.13170  0.09691  1.0000
  H   H16       1.0  0.41295  0.36830  0.59691  1.0000
  H   H17       1.0  0.69633  0.99523  0.57895  1.0000
  H   H18       1.0  0.30367  0.50477  0.07895  1.0000
  H   H19       1.0  0.30367  0.00477  0.42105  1.0000
  H   H20       1.0  0.69633  0.49523  0.92105  1.0000
  H   H21       1.0  0.38905  0.19222  0.50786  1.0000
  H   H22       1.0  0.61095  0.30778  0.00786  1.0000
  H   H23       1.0  0.61096  0.80778  0.49214  1.0000
  H   H24       1.0  0.38904  0.69222  0.99214  1.0000
  H   H25       1.0  0.73220  0.23294  0.53846  1.0000
  H   H26       1.0  0.26780  0.26707  0.03846  1.0000
  H   H27       1.0  0.26780  0.76706  0.46154  1.0000
  H   H28       1.0  0.73220  0.73293  0.96154  1.0000
  H   H29       1.0  0.25622  0.82055  0.57098  1.0000
  H   H30       1.0  0.74378  0.67945  0.07098  1.0000
  H   H31       1.0  0.74378  0.17945  0.42902  1.0000
  H   H32       1.0  0.25622  0.32055  0.92902  1.0000
  H   H33       1.0  0.09896  0.93857  0.52757  1.0000
  H   H34       1.0  0.90104  0.56143  0.02757  1.0000
  H   H35       1.0  0.90104  0.06143  0.47243  1.0000
  H   H36       1.0  0.09896  0.43857  0.97243  1.0000
  C   C1        1.0  0.22279  0.09347  0.79736  1.0000
  C   C2        1.0  0.77721  0.40654  0.29736  1.0000
  C   C3        1.0  0.77721  0.90654  0.20264  1.0000
  C   C4        1.0  0.22279  0.59346  0.70265  1.0000
  C   C5        1.0  0.41493  0.21585  0.80953  1.0000
  C   C6        1.0  0.58508  0.28415  0.30953  1.0000
  C   C7        1.0  0.58507  0.78415  0.19047  1.0000
  C   C8        1.0  0.41493  0.71585  0.69047  1.0000
  C   C9        1.0  0.60506  0.20884  0.85548  1.0000
  C   C10       1.0  0.39494  0.29116  0.35548  1.0000
  C   C11       1.0  0.39494  0.79116  0.14452  1.0000
  C   C12       1.0  0.60506  0.70884  0.64452  1.0000
  C   C13       1.0  0.60157  0.08542  0.88955  1.0000
  C   C14       1.0  0.39843  0.41458  0.38955  1.0000
  C   C15       1.0  0.39843  0.91458  0.11045  1.0000
  C   C16       1.0  0.60157  0.58542  0.61045  1.0000
  C   C17       1.0  0.41272  0.96376  0.87754  1.0000
  C   C18       1.0  0.58728  0.53624  0.37754  1.0000
  C   C19       1.0  0.58728  0.03624  0.12246  1.0000
  C   C20       1.0  0.41272  0.46376  0.62246  1.0000
  C   C21       1.0  0.22478  0.96854  0.82995  1.0000
  C   C22       1.0  0.77523  0.53146  0.32995  1.0000
  C   C23       1.0  0.77522  0.03146  0.17005  1.0000
  C   C24       1.0  0.22478  0.46854  0.67005  1.0000
  C   C25       1.0  0.37696  0.08833  0.61954  1.0000
  C   C26       1.0  0.62303  0.41167  0.11954  1.0000
  C   C27       1.0  0.62303  0.91167  0.38046  1.0000
  C   C28       1.0  0.37697  0.58833  0.88046  1.0000
  C   C29       1.0  0.50075  0.02932  0.56510  1.0000
  C   C30       1.0  0.49925  0.47068  0.06510  1.0000
  C   C31       1.0  0.49925  0.97069  0.43490  1.0000
  C   C32       1.0  0.50075  0.52931  0.93490  1.0000
  C   C33       1.0  0.57838  0.14804  0.51883  1.0000
  C   C34       1.0  0.42162  0.35196  0.01883  1.0000
  C   C35       1.0  0.42162  0.85196  0.48117  1.0000
  C   C36       1.0  0.57838  0.64804  0.98117  1.0000
  C   C37       1.0  0.29986  0.90553  0.53794  1.0000
  C   C38       1.0  0.70014  0.59447  0.03794  1.0000
  C   C39       1.0  0.70014  0.09447  0.46206  1.0000
  C   C40       1.0  0.29986  0.40553  0.96206  1.0000
  N   N1        1.0  0.01703  0.06180  0.75450  1.0000
  N   N2        1.0  0.98298  0.43820  0.25450  1.0000
  N   N3        1.0  0.98298  0.93820  0.24550  1.0000
  N   N4        1.0  0.01702  0.56180  0.74550  1.0000
  N   N5        1.0  0.90174  0.92760  0.75944  1.0000
  N   N6        1.0  0.09826  0.57240  0.25944  1.0000
  N   N7        1.0  0.09826  0.07240  0.24056  1.0000
  N   N8        1.0  0.90174  0.42760  0.74056  1.0000
  N   N9        1.0  0.02281  0.86861  0.80426  1.0000
  N   N10       1.0  0.97718  0.63139  0.30426  1.0000
  N   N11       1.0  0.97718  0.13139  0.19574  1.0000
  N   N12       1.0  0.02281  0.36861  0.69574  1.0000
  O   O1        1.0  0.11625  0.09888  0.61686  1.0000
  O   O2        1.0  0.88375  0.40112  0.11686  1.0000
  O   O3        1.0  0.88375  0.90111  0.38314  1.0000
  O   O4        1.0  0.11625  0.59889  0.88314  1.0000
  O   O5        1.0  0.52462  0.13184  0.66521  1.0000
  O   O6        1.0  0.47538  0.36816  0.16521  1.0000
  O   O7        1.0  0.47538  0.86816  0.33479  1.0000
  O   O8        1.0  0.52462  0.63184  0.83479  1.0000
