data_image0
_chemical_formula_structural       Sm2H18C22O17
_chemical_formula_sum              "Sm2 H18 C22 O17"
_cell_length_a       6.00084
_cell_length_b       8.83935
_cell_length_c       12.3298
_cell_angle_alpha    104.785
_cell_angle_beta     91.7129
_cell_angle_gamma    104.891

_space_group_name_H-M_alt    "P 1"
_space_group_IT_number       1

loop_
  _space_group_symop_operation_xyz
  'x, y, z'

loop_
  _atom_site_type_symbol
  _atom_site_label
  _atom_site_symmetry_multiplicity
  _atom_site_fract_x
  _atom_site_fract_y
  _atom_site_fract_z
  _atom_site_occupancy
  Sm  Sm1       1.0  0.73522  0.29140  0.39713  1.0000
  Sm  Sm2       1.0  0.25777  0.70168  0.59005  1.0000
  H   H1        1.0  0.91454  0.83990  0.34093  1.0000
  H   H2        1.0  0.07186  0.15816  0.65405  1.0000
  H   H3        1.0  0.16844  0.78171  0.29555  1.0000
  H   H4        1.0  0.82079  0.21754  0.70270  1.0000
  H   H5        1.0  0.22347  0.56373  0.18439  1.0000
  H   H6        1.0  0.77366  0.43752  0.81098  1.0000
  H   H7        1.0  0.68174  0.62682  0.97532  1.0000
  H   H8        1.0  0.31584  0.37483  0.01996  1.0000
  H   H9        1.0  0.10595  0.15934  0.10823  1.0000
  H   H10       1.0  0.89404  0.85049  0.88988  1.0000
  H   H11       1.0  0.01146  0.97458  0.14908  1.0000
  H   H12       1.0  0.99048  0.02992  0.84313  1.0000
  H   H13       1.0  0.56959  0.82639  0.11784  1.0000
  H   H14       1.0  0.42750  0.17255  0.87586  1.0000
  H   H15       1.0  0.70333  0.29527  0.05423  1.0000
  H   H16       1.0  0.29355  0.70369  0.93952  1.0000
  H   H17       1.0  0.47576  0.42555  0.56211  1.0000
  H   H18       1.0  0.66869  0.58807  0.55918  1.0000
  C   C1        1.0  0.89579  0.59201  0.32884  1.0000
  C   C2        1.0  0.09002  0.40549  0.66480  1.0000
  C   C3        1.0  0.97755  0.74245  0.28736  1.0000
  C   C4        1.0  0.01143  0.25649  0.70827  1.0000
  C   C5        1.0  0.94513  0.60977  0.09053  1.0000
  C   C6        1.0  0.05223  0.39186  0.90468  1.0000
  C   C7        1.0  0.12317  0.53769  0.10345  1.0000
  C   C8        1.0  0.87457  0.46411  0.89178  1.0000
  C   C9        1.0  0.82177  0.57205  0.98466  1.0000
  C   C10       1.0  0.17604  0.42980  0.01049  1.0000
  C   C11       1.0  0.18446  0.18456  0.28378  1.0000
  C   C12       1.0  0.80813  0.81468  0.71481  1.0000
  C   C13       1.0  0.02825  0.10610  0.17466  1.0000
  C   C14       1.0  0.97059  0.89801  0.82082  1.0000
  C   C15       1.0  0.65003  0.06639  0.09355  1.0000
  C   C16       1.0  0.34693  0.93260  0.90024  1.0000
  C   C17       1.0  0.53725  0.90057  0.06403  1.0000
  C   C18       1.0  0.46016  0.09831  0.92955  1.0000
  C   C19       1.0  0.38404  0.83280  0.96593  1.0000
  C   C20       1.0  0.61335  0.16608  0.02766  1.0000
  C   C21       1.0  0.42716  0.05244  0.53636  1.0000
  C   C22       1.0  0.56356  0.94596  0.46068  1.0000
  O   O1        1.0  0.00412  0.58848  0.41978  1.0000
  O   O2        1.0  0.97475  0.41171  0.57733  1.0000
  O   O3        1.0  0.72767  0.47513  0.27694  1.0000
  O   O4        1.0  0.26774  0.51884  0.71242  1.0000
  O   O5        1.0  0.88121  0.71996  0.17578  1.0000
  O   O6        1.0  0.11445  0.28096  0.81895  1.0000
  O   O7        1.0  0.10907  0.26772  0.36642  1.0000
  O   O8        1.0  0.88090  0.72333  0.63371  1.0000
  O   O9        1.0  0.60850  0.83518  0.71204  1.0000
  O   O10       1.0  0.38403  0.16116  0.28424  1.0000
  O   O11       1.0  0.80504  0.13564  0.19165  1.0000
  O   O12       1.0  0.18988  0.86334  0.80276  1.0000
  O   O13       1.0  0.47822  0.20107  0.53758  1.0000
  O   O14       1.0  0.51663  0.79807  0.46102  1.0000
  O   O15       1.0  0.71089  0.01569  0.40506  1.0000
  O   O16       1.0  0.27773  0.98159  0.59077  1.0000
  O   O17       1.0  0.52388  0.50276  0.51651  1.0000
