data_image0
_chemical_formula_structural       La2H18C22O17
_chemical_formula_sum              "La2 H18 C22 O17"
_cell_length_a       6.11997
_cell_length_b       8.92775
_cell_length_c       12.4157
_cell_angle_alpha    104.741
_cell_angle_beta     92.6069
_cell_angle_gamma    103.723

_space_group_name_H-M_alt    "P 1"
_space_group_IT_number       1

loop_
  _space_group_symop_operation_xyz
  'x, y, z'

loop_
  _atom_site_type_symbol
  _atom_site_label
  _atom_site_symmetry_multiplicity
  _atom_site_fract_x
  _atom_site_fract_y
  _atom_site_fract_z
  _atom_site_occupancy
  La  La1       1.0  0.26068  0.71140  0.10705  1.0000
  La  La2       1.0  0.74746  0.29745  0.90702  1.0000
  H   H1        1.0  0.97915  0.02702  0.35987  1.0000
  H   H2        1.0  0.02311  0.97025  0.65216  1.0000
  H   H3        1.0  0.89762  0.84412  0.39940  1.0000
  H   H4        1.0  0.09800  0.14592  0.60379  1.0000
  H   H5        1.0  0.29123  0.71113  0.45111  1.0000
  H   H6        1.0  0.71089  0.28807  0.55823  1.0000
  H   H7        1.0  0.42510  0.17221  0.38551  1.0000
  H   H8        1.0  0.57745  0.82688  0.62362  1.0000
  H   H9        1.0  0.16790  0.77982  0.79536  1.0000
  H   H10       1.0  0.84368  0.21984  0.20402  1.0000
  H   H11       1.0  0.92063  0.84090  0.83966  1.0000
  H   H12       1.0  0.09397  0.16048  0.16317  1.0000
  H   H13       1.0  0.68386  0.61892  0.47581  1.0000
  H   H14       1.0  0.31643  0.37534  0.52740  1.0000
  H   H15       1.0  0.22154  0.56370  0.68847  1.0000
  H   H16       1.0  0.77891  0.43068  0.31477  1.0000
  H   H17       1.0  0.33731  0.41695  0.93327  1.0000
  H   H18       1.0  0.52396  0.58035  0.93853  1.0000
  C   C1        1.0  0.81141  0.82056  0.22549  1.0000
  C   C2        1.0  0.19773  0.18650  0.77727  1.0000
  C   C3        1.0  0.96770  0.89777  0.33353  1.0000
  C   C4        1.0  0.03339  0.09938  0.67367  1.0000
  C   C5        1.0  0.34406  0.93675  0.41141  1.0000
  C   C6        1.0  0.65766  0.06244  0.59796  1.0000
  C   C7        1.0  0.38321  0.83718  0.47610  1.0000
  C   C8        1.0  0.61839  0.16212  0.53336  1.0000
  C   C9        1.0  0.45962  0.09839  0.43853  1.0000
  C   C10       1.0  0.54208  0.90090  0.57092  1.0000
  C   C11       1.0  0.90420  0.59729  0.83186  1.0000
  C   C12       1.0  0.11169  0.40522  0.17421  1.0000
  C   C13       1.0  0.98156  0.74267  0.78751  1.0000
  C   C14       1.0  0.03019  0.25727  0.21518  1.0000
  C   C15       1.0  0.94575  0.60615  0.59269  1.0000
  C   C16       1.0  0.05531  0.38865  0.41058  1.0000
  C   C17       1.0  0.82366  0.56610  0.48686  1.0000
  C   C18       1.0  0.17653  0.42806  0.51653  1.0000
  C   C19       1.0  0.12239  0.53568  0.60752  1.0000
  C   C20       1.0  0.87781  0.45846  0.39580  1.0000
  C   C21       1.0  0.43598  0.05447  0.03687  1.0000
  C   C22       1.0  0.57210  0.94618  0.96473  1.0000
  O   O1        1.0  0.88313  0.73763  0.14274  1.0000
  O   O2        1.0  0.13047  0.28188  0.85659  1.0000
  O   O3        1.0  0.61542  0.84437  0.22587  1.0000
  O   O4        1.0  0.39274  0.16383  0.77937  1.0000
  O   O5        1.0  0.18740  0.87062  0.31506  1.0000
  O   O6        1.0  0.81586  0.12849  0.69384  1.0000
  O   O7        1.0  0.01420  0.59449  0.92186  1.0000
  O   O8        1.0  0.00745  0.40776  0.08198  1.0000
  O   O9        1.0  0.73391  0.48546  0.78240  1.0000
  O   O10       1.0  0.27422  0.51925  0.22761  1.0000
  O   O11       1.0  0.88355  0.71757  0.67621  1.0000
  O   O12       1.0  0.12010  0.27863  0.32725  1.0000
  O   O13       1.0  0.28831  0.98808  0.09014  1.0000
  O   O14       1.0  0.72243  0.01373  0.91318  1.0000
  O   O15       1.0  0.48375  0.20008  0.03639  1.0000
  O   O16       1.0  0.51973  0.79976  0.96352  1.0000
  O   O17       1.0  0.47601  0.49877  0.97918  1.0000
