data_image0
_chemical_formula_structural       Dy4H44C64N8O20
_chemical_formula_sum              "Dy4 H44 C64 N8 O20"
_cell_length_a       8.29996
_cell_length_b       14.0184
_cell_length_c       13.9515
_cell_angle_alpha    84.9478
_cell_angle_beta     72.695
_cell_angle_gamma    72.7792

_space_group_name_H-M_alt    "P 1"
_space_group_IT_number       1

loop_
  _space_group_symop_operation_xyz
  'x, y, z'

loop_
  _atom_site_type_symbol
  _atom_site_label
  _atom_site_symmetry_multiplicity
  _atom_site_fract_x
  _atom_site_fract_y
  _atom_site_fract_z
  _atom_site_occupancy
  Dy  Dy1       1.0  0.91879  0.86175  0.97673  1.0000
  Dy  Dy2       1.0  0.75699  0.13830  0.02321  1.0000
  Dy  Dy3       1.0  0.21943  0.02342  0.86123  1.0000
  Dy  Dy4       1.0  0.10417  0.97665  0.13874  1.0000
  H   H1        1.0  0.74764  0.97065  0.15348  1.0000
  H   H2        1.0  0.87179  0.02946  0.84634  1.0000
  H   H3        1.0  0.28128  0.84748  0.96990  1.0000
  H   H4        1.0  0.09856  0.15246  0.03006  1.0000
  H   H5        1.0  0.38582  0.71673  0.13855  1.0000
  H   H6        1.0  0.24014  0.28307  0.86149  1.0000
  H   H7        1.0  0.89897  0.86195  0.71672  1.0000
  H   H8        1.0  0.47721  0.13818  0.28306  1.0000
  H   H9        1.0  0.68748  0.63403  0.14774  1.0000
  H   H10       1.0  0.46844  0.36556  0.85225  1.0000
  H   H11       1.0  0.67973  0.85288  0.63405  1.0000
  H   H12       1.0  0.16603  0.14742  0.36568  1.0000
  H   H13       1.0  0.75629  0.46877  0.23267  1.0000
  H   H14       1.0  0.45702  0.53090  0.76749  1.0000
  H   H15       1.0  0.77551  0.76727  0.46860  1.0000
  H   H16       1.0  0.01089  0.23285  0.53125  1.0000
  H   H17       1.0  0.51682  0.39241  0.31809  1.0000
  H   H18       1.0  0.22667  0.60738  0.68198  1.0000
  H   H19       1.0  0.09093  0.68124  0.39216  1.0000
  H   H20       1.0  0.16406  0.31858  0.60785  1.0000
  H   H21       1.0  0.20098  0.40032  0.37115  1.0000
  H   H22       1.0  0.97195  0.59949  0.62866  1.0000
  H   H23       1.0  0.39920  0.62830  0.39979  1.0000
  H   H24       1.0  0.42671  0.37145  0.60027  1.0000
  H   H25       1.0  0.89606  0.48426  0.36425  1.0000
  H   H26       1.0  0.74394  0.51568  0.63561  1.0000
  H   H27       1.0  0.62035  0.63533  0.48371  1.0000
  H   H28       1.0  0.73883  0.36460  0.51627  1.0000
  H   H29       1.0  0.83315  0.64009  0.26398  1.0000
  H   H30       1.0  0.73620  0.35995  0.73604  1.0000
  H   H31       1.0  0.52804  0.73594  0.63981  1.0000
  H   H32       1.0  0.90319  0.26409  0.36012  1.0000
  H   H33       1.0  0.98981  0.59411  0.98427  1.0000
  H   H34       1.0  0.56753  0.40610  0.01583  1.0000
  H   H35       1.0  0.41719  0.01547  0.59280  1.0000
  H   H36       1.0  0.02565  0.98443  0.40743  1.0000
  H   H37       1.0  0.83169  0.47249  0.96435  1.0000
  H   H38       1.0  0.26777  0.52782  0.03569  1.0000
  H   H39       1.0  0.69752  0.03516  0.47061  1.0000
  H   H40       1.0  0.20363  0.96458  0.52960  1.0000
  H   H41       1.0  0.47469  0.70175  0.86054  1.0000
  H   H42       1.0  0.03607  0.29864  0.13962  1.0000
  H   H43       1.0  0.82376  0.13951  0.70093  1.0000
  H   H44       1.0  0.66443  0.86042  0.29913  1.0000
  C   C1        1.0  0.09929  0.64780  0.21961  1.0000
  C   C2        1.0  0.96567  0.35219  0.78044  1.0000
  C   C3        1.0  0.25436  0.78034  0.64746  1.0000
  C   C4        1.0  0.68172  0.21958  0.35243  1.0000
  C   C5        1.0  0.27499  0.60280  0.22444  1.0000
  C   C6        1.0  0.10129  0.39711  0.77560  1.0000
  C   C7        1.0  0.12342  0.77550  0.60255  1.0000
  C   C8        1.0  0.50104  0.22443  0.39735  1.0000
  C   C9        1.0  0.41415  0.64571  0.17764  1.0000
  C   C10       1.0  0.23656  0.35408  0.82237  1.0000
  C   C11       1.0  0.94156  0.82264  0.64559  1.0000
  C   C12       1.0  0.40929  0.17743  0.35422  1.0000
  C   C13       1.0  0.58302  0.59908  0.18249  1.0000
  C   C14       1.0  0.36377  0.40060  0.81750  1.0000
  C   C15       1.0  0.81905  0.81788  0.59898  1.0000
  C   C16       1.0  0.23537  0.18232  0.40077  1.0000
  C   C17       1.0  0.62112  0.50624  0.23217  1.0000
  C   C18       1.0  0.35877  0.49349  0.76793  1.0000
  C   C19       1.0  0.87338  0.76783  0.50605  1.0000
  C   C20       1.0  0.14678  0.23223  0.49379  1.0000
  C   C21       1.0  0.48821  0.46342  0.27930  1.0000
  C   C22       1.0  0.23023  0.53636  0.72076  1.0000
  C   C23       1.0  0.04890  0.72030  0.46320  1.0000
  C   C24       1.0  0.23199  0.27960  0.53675  1.0000
  C   C25       1.0  0.31205  0.51059  0.27817  1.0000
  C   C26       1.0  0.10008  0.48926  0.72181  1.0000
  C   C27       1.0  0.17817  0.72151  0.51027  1.0000
  C   C28       1.0  0.40951  0.27834  0.48967  1.0000
  C   C29       1.0  0.17221  0.46944  0.32893  1.0000
  C   C30       1.0  0.96997  0.53042  0.67095  1.0000
  C   C31       1.0  0.35900  0.67064  0.46902  1.0000
  C   C32       1.0  0.49816  0.32917  0.53101  1.0000
  C   C33       1.0  0.00297  0.51623  0.32490  1.0000
  C   C34       1.0  0.84338  0.48369  0.67500  1.0000
  C   C35       1.0  0.48162  0.67475  0.51581  1.0000
  C   C36       1.0  0.67163  0.32515  0.48419  1.0000
  C   C37       1.0  0.96680  0.60479  0.26844  1.0000
  C   C38       1.0  0.83904  0.39521  0.73161  1.0000
  C   C39       1.0  0.42964  0.73138  0.60449  1.0000
  C   C40       1.0  0.76495  0.26859  0.39545  1.0000
  C   C41       1.0  0.06171  0.74200  0.15976  1.0000
  C   C42       1.0  0.96273  0.25802  0.84030  1.0000
  C   C43       1.0  0.19750  0.84039  0.74167  1.0000
  C   C44       1.0  0.77928  0.15948  0.25823  1.0000
  C   C45       1.0  0.67804  0.74453  0.89867  1.0000
  C   C46       1.0  0.32045  0.25577  0.10137  1.0000
  C   C47       1.0  0.57782  0.10114  0.74390  1.0000
  C   C48       1.0  0.42300  0.89893  0.25623  1.0000
  C   C49       1.0  0.87596  0.61809  0.95512  1.0000
  C   C50       1.0  0.44843  0.38219  0.04495  1.0000
  C   C51       1.0  0.50695  0.04457  0.61689  1.0000
  C   C52       1.0  0.16862  0.95535  0.38333  1.0000
  C   C53       1.0  0.78651  0.55096  0.94448  1.0000
  C   C54       1.0  0.28121  0.44934  0.05556  1.0000
  C   C55       1.0  0.66383  0.05512  0.54945  1.0000
  C   C56       1.0  0.26868  0.94468  0.45074  1.0000
  C   C57       1.0  0.59077  0.67652  0.88799  1.0000
  C   C58       1.0  0.15444  0.32381  0.11212  1.0000
  C   C59       1.0  0.73325  0.11187  0.67559  1.0000
  C   C60       1.0  0.52095  0.88805  0.32452  1.0000
  C   C61       1.0  0.61703  0.85446  0.87576  1.0000
  C   C62       1.0  0.34677  0.14580  0.12417  1.0000
  C   C63       1.0  0.52843  0.12398  0.85434  1.0000
  C   C64       1.0  0.50683  0.87623  0.14576  1.0000
  N   N1        1.0  0.82023  0.71491  0.93361  1.0000
  N   N2        1.0  0.46796  0.28537  0.06644  1.0000
  N   N3        1.0  0.46548  0.06614  0.71417  1.0000
  N   N4        1.0  0.24593  0.93390  0.28600  1.0000
  N   N5        1.0  0.64306  0.57964  0.91192  1.0000
  N   N6        1.0  0.13388  0.42067  0.08815  1.0000
  N   N7        1.0  0.77832  0.08776  0.57828  1.0000
  N   N8        1.0  0.44466  0.91203  0.42187  1.0000
  O   O1        1.0  0.03856  0.73376  0.07492  1.0000
  O   O2        1.0  0.84686  0.26624  0.92526  1.0000
  O   O3        1.0  0.22814  0.92506  0.73304  1.0000
  O   O4        1.0  0.88608  0.07488  0.26694  1.0000
  O   O5        1.0  0.05871  0.82246  0.19677  1.0000
  O   O6        1.0  0.07732  0.17761  0.80320  1.0000
  O   O7        1.0  0.11997  0.80361  0.82264  1.0000
  O   O8        1.0  0.74604  0.19620  0.17723  1.0000
  O   O9        1.0  0.70810  0.90852  0.88835  1.0000
  O   O10       1.0  0.50451  0.09183  0.11159  1.0000
  O   O11       1.0  0.38350  0.11105  0.90867  1.0000
  O   O12       1.0  0.40330  0.88914  0.09143  1.0000
  O   O13       1.0  0.48190  0.88473  0.84491  1.0000
  O   O14       1.0  0.21118  0.11540  0.15493  1.0000
  O   O15       1.0  0.63296  0.15505  0.88472  1.0000
  O   O16       1.0  0.67280  0.84518  0.11534  1.0000
  O   O17       1.0  0.84389  0.98357  0.09931  1.0000
  O   O18       1.0  0.92670  0.01650  0.90055  1.0000
  O   O19       1.0  0.17201  0.90126  0.98345  1.0000
  O   O20       1.0  0.05657  0.09873  0.01646  1.0000
