data_image0
_chemical_formula_structural       Tb2H18C22O17
_chemical_formula_sum              "Tb2 H18 C22 O17"
_cell_length_a       6.01369
_cell_length_b       8.87015
_cell_length_c       12.2172
_cell_angle_alpha    104.335
_cell_angle_beta     90.8191
_cell_angle_gamma    102.662

_space_group_name_H-M_alt    "P 1"
_space_group_IT_number       1

loop_
  _space_group_symop_operation_xyz
  'x, y, z'

loop_
  _atom_site_type_symbol
  _atom_site_label
  _atom_site_symmetry_multiplicity
  _atom_site_fract_x
  _atom_site_fract_y
  _atom_site_fract_z
  _atom_site_occupancy
  Tb  Tb1       1.0  0.28733  0.71700  0.59712  1.0000
  Tb  Tb2       1.0  0.70527  0.27957  0.39267  1.0000
  H   H1        1.0  0.97875  0.01836  0.83935  1.0000
  H   H2        1.0  0.02169  0.98638  0.14994  1.0000
  H   H3        1.0  0.91003  0.84651  0.89483  1.0000
  H   H4        1.0  0.08785  0.16563  0.10263  1.0000
  H   H5        1.0  0.43142  0.16491  0.86669  1.0000
  H   H6        1.0  0.56344  0.83405  0.12641  1.0000
  H   H7        1.0  0.29517  0.71217  0.95005  1.0000
  H   H8        1.0  0.69948  0.28682  0.04308  1.0000
  H   H9        1.0  0.81279  0.20698  0.71484  1.0000
  H   H10       1.0  0.17933  0.79198  0.28249  1.0000
  H   H11       1.0  0.06008  0.14809  0.65432  1.0000
  H   H12       1.0  0.92890  0.84814  0.34110  1.0000
  H   H13       1.0  0.32086  0.37277  0.01393  1.0000
  H   H14       1.0  0.67532  0.62729  0.98085  1.0000
  H   H15       1.0  0.77343  0.44241  0.81293  1.0000
  H   H16       1.0  0.22284  0.55740  0.18175  1.0000
  H   H17       1.0  0.47611  0.43693  0.56906  1.0000
  H   H18       1.0  0.68121  0.58065  0.55878  1.0000
  C   C1        1.0  0.81944  0.79794  0.71838  1.0000
  C   C2        1.0  0.17043  0.20014  0.27988  1.0000
  C   C3        1.0  0.97652  0.89007  0.82186  1.0000
  C   C4        1.0  0.02040  0.11437  0.17221  1.0000
  C   C5        1.0  0.35126  0.93301  0.90064  1.0000
  C   C6        1.0  0.64382  0.06597  0.09252  1.0000
  C   C7        1.0  0.46264  0.09392  0.92397  1.0000
  C   C8        1.0  0.53251  0.90498  0.06902  1.0000
  C   C9        1.0  0.38426  0.83778  0.97170  1.0000
  C   C10       1.0  0.61080  0.16113  0.02130  1.0000
  C   C11       1.0  0.03752  0.38220  0.64874  1.0000
  C   C12       1.0  0.95170  0.61286  0.34415  1.0000
  C   C13       1.0  0.99774  0.24749  0.70797  1.0000
  C   C14       1.0  0.99386  0.75017  0.28738  1.0000
  C   C15       1.0  0.05571  0.39380  0.90225  1.0000
  C   C16       1.0  0.94094  0.60665  0.09234  1.0000
  C   C17       1.0  0.17921  0.42891  0.00696  1.0000
  C   C18       1.0  0.81750  0.57157  0.98762  1.0000
  C   C19       1.0  0.87398  0.46641  0.89277  1.0000
  C   C20       1.0  0.12287  0.53412  0.10182  1.0000
  C   C21       1.0  0.41520  0.05002  0.53322  1.0000
  C   C22       1.0  0.57395  0.95076  0.46437  1.0000
  O   O1        1.0  0.90164  0.71349  0.63590  1.0000
  O   O2        1.0  0.08215  0.27203  0.36417  1.0000
  O   O3        1.0  0.61289  0.80675  0.72059  1.0000
  O   O4        1.0  0.37900  0.19341  0.27652  1.0000
  O   O5        1.0  0.20174  0.86354  0.80308  1.0000
  O   O6        1.0  0.79174  0.13515  0.19040  1.0000
  O   O7        1.0  0.20921  0.49897  0.68093  1.0000
  O   O8        1.0  0.78955  0.49238  0.30632  1.0000
  O   O9        1.0  0.89333  0.36705  0.56786  1.0000
  O   O10       1.0  0.08658  0.63070  0.43010  1.0000
  O   O11       1.0  0.12226  0.28539  0.81494  1.0000
  O   O12       1.0  0.87353  0.71434  0.17948  1.0000
  O   O13       1.0  0.28408  0.98247  0.59651  1.0000
  O   O14       1.0  0.70095  0.01558  0.39871  1.0000
  O   O15       1.0  0.43004  0.18893  0.52106  1.0000
  O   O16       1.0  0.56465  0.81402  0.47964  1.0000
  O   O17       1.0  0.53308  0.50749  0.51989  1.0000
