data_image0
_chemical_formula_structural       Gd4H40C20O40
_chemical_formula_sum              "Gd4 H40 C20 O40"
_cell_length_a       6.64437
_cell_length_b       11.4515
_cell_length_c       12.407
_cell_angle_alpha    95.5368
_cell_angle_beta     90
_cell_angle_gamma    90

_space_group_name_H-M_alt    "P 1"
_space_group_IT_number       1

loop_
  _space_group_symop_operation_xyz
  'x, y, z'

loop_
  _atom_site_type_symbol
  _atom_site_label
  _atom_site_symmetry_multiplicity
  _atom_site_fract_x
  _atom_site_fract_y
  _atom_site_fract_z
  _atom_site_occupancy
  Gd  Gd1       1.0  0.00505  0.16844  0.80662  1.0000
  Gd  Gd2       1.0  0.50505  0.33156  0.19338  1.0000
  Gd  Gd3       1.0  0.99495  0.83156  0.19338  1.0000
  Gd  Gd4       1.0  0.49495  0.66844  0.80662  1.0000
  H   H1        1.0  0.45786  0.02978  0.66157  1.0000
  H   H2        1.0  0.95786  0.47022  0.33843  1.0000
  H   H3        1.0  0.54214  0.97022  0.33843  1.0000
  H   H4        1.0  0.04214  0.52978  0.66157  1.0000
  H   H5        1.0  0.55739  0.14519  0.58925  1.0000
  H   H6        1.0  0.05739  0.35481  0.41075  1.0000
  H   H7        1.0  0.44261  0.85481  0.41075  1.0000
  H   H8        1.0  0.94261  0.64519  0.58925  1.0000
  H   H9        1.0  0.98296  0.19299  0.54813  1.0000
  H   H10       1.0  0.48296  0.30701  0.45187  1.0000
  H   H11       1.0  0.01704  0.80701  0.45187  1.0000
  H   H12       1.0  0.51704  0.69299  0.54813  1.0000
  H   H13       1.0  0.88669  0.33304  0.00763  1.0000
  H   H14       1.0  0.38669  0.16696  0.99237  1.0000
  H   H15       1.0  0.11331  0.66696  0.99237  1.0000
  H   H16       1.0  0.61331  0.83304  0.00763  1.0000
  H   H17       1.0  0.13882  0.42266  0.79037  1.0000
  H   H18       1.0  0.63881  0.07734  0.20963  1.0000
  H   H19       1.0  0.86118  0.57734  0.20963  1.0000
  H   H20       1.0  0.36119  0.92266  0.79037  1.0000
  H   H21       1.0  0.80385  0.96927  0.52792  1.0000
  H   H22       1.0  0.30386  0.53073  0.47208  1.0000
  H   H23       1.0  0.19614  0.03073  0.47208  1.0000
  H   H24       1.0  0.69614  0.46927  0.52792  1.0000
  H   H25       1.0  0.72569  0.88250  0.63323  1.0000
  H   H26       1.0  0.22569  0.61750  0.36678  1.0000
  H   H27       1.0  0.27431  0.11750  0.36678  1.0000
  H   H28       1.0  0.77431  0.38250  0.63322  1.0000
  H   H29       1.0  0.05618  0.25224  0.04920  1.0000
  H   H30       1.0  0.55618  0.24776  0.95080  1.0000
  H   H31       1.0  0.94382  0.74776  0.95080  1.0000
  H   H32       1.0  0.44382  0.75224  0.04920  1.0000
  H   H33       1.0  0.16099  0.27128  0.60527  1.0000
  H   H34       1.0  0.66099  0.22872  0.39473  1.0000
  H   H35       1.0  0.83901  0.72872  0.39473  1.0000
  H   H36       1.0  0.33901  0.77128  0.60527  1.0000
  H   H37       1.0  0.92028  0.43797  0.84502  1.0000
  H   H38       1.0  0.42028  0.06203  0.15498  1.0000
  H   H39       1.0  0.07972  0.56203  0.15498  1.0000
  H   H40       1.0  0.57973  0.93798  0.84502  1.0000
  C   C1        1.0  0.56743  0.10186  0.66484  1.0000
  C   C2        1.0  0.06743  0.39814  0.33516  1.0000
  C   C3        1.0  0.43257  0.89814  0.33516  1.0000
  C   C4        1.0  0.93257  0.60186  0.66484  1.0000
  C   C5        1.0  0.51947  0.19089  0.76045  1.0000
  C   C6        1.0  0.01946  0.30911  0.23955  1.0000
  C   C7        1.0  0.48053  0.80911  0.23955  1.0000
  C   C8        1.0  0.98054  0.69089  0.76045  1.0000
  C   C9        1.0  0.04093  0.92830  0.63727  1.0000
  C   C10       1.0  0.54092  0.57170  0.36273  1.0000
  C   C11       1.0  0.95908  0.07171  0.36272  1.0000
  C   C12       1.0  0.45907  0.42829  0.63727  1.0000
  C   C13       1.0  0.82191  0.95651  0.61422  1.0000
  C   C14       1.0  0.32191  0.54349  0.38578  1.0000
  C   C15       1.0  0.17810  0.04349  0.38578  1.0000
  C   C16       1.0  0.67809  0.45651  0.61422  1.0000
  C   C17       1.0  0.11299  0.01347  0.01123  1.0000
  C   C18       1.0  0.61299  0.48653  0.98877  1.0000
  C   C19       1.0  0.88702  0.98653  0.98878  1.0000
  C   C20       1.0  0.38701  0.51347  0.01122  1.0000
  O   O1        1.0  0.76690  0.06019  0.68058  1.0000
  O   O2        1.0  0.26690  0.43981  0.31943  1.0000
  O   O3        1.0  0.23310  0.93981  0.31943  1.0000
  O   O4        1.0  0.73310  0.56019  0.68057  1.0000
  O   O5        1.0  0.33881  0.21593  0.78176  1.0000
  O   O6        1.0  0.83881  0.28407  0.21824  1.0000
  O   O7        1.0  0.66118  0.78407  0.21824  1.0000
  O   O8        1.0  0.16118  0.71593  0.78175  1.0000
  O   O9        1.0  0.20264  0.07199  0.94340  1.0000
  O   O10       1.0  0.70263  0.42801  0.05660  1.0000
  O   O11       1.0  0.79737  0.92802  0.05660  1.0000
  O   O12       1.0  0.29737  0.57198  0.94340  1.0000
  O   O13       1.0  0.04624  0.21904  0.61921  1.0000
  O   O14       1.0  0.54624  0.28096  0.38080  1.0000
  O   O15       1.0  0.95375  0.78096  0.38080  1.0000
  O   O16       1.0  0.45375  0.71904  0.61920  1.0000
  O   O17       1.0  0.97696  0.26607  0.98443  1.0000
  O   O18       1.0  0.47696  0.23393  0.01557  1.0000
  O   O19       1.0  0.02304  0.73393  0.01558  1.0000
  O   O20       1.0  0.52304  0.76607  0.98443  1.0000
  O   O21       1.0  0.66726  0.23616  0.81536  1.0000
  O   O22       1.0  0.16726  0.26384  0.18464  1.0000
  O   O23       1.0  0.33273  0.76384  0.18464  1.0000
  O   O24       1.0  0.83273  0.73616  0.81536  1.0000
  O   O25       1.0  0.00776  0.38459  0.79873  1.0000
  O   O26       1.0  0.50775  0.11541  0.20127  1.0000
  O   O27       1.0  0.99224  0.61541  0.20127  1.0000
  O   O28       1.0  0.49225  0.88459  0.79873  1.0000
  O   O29       1.0  0.12598  0.98465  0.71809  1.0000
  O   O30       1.0  0.62598  0.51535  0.28191  1.0000
  O   O31       1.0  0.87402  0.01535  0.28191  1.0000
  O   O32       1.0  0.37402  0.48465  0.71809  1.0000
  O   O33       1.0  0.12403  0.84899  0.57377  1.0000
  O   O34       1.0  0.62403  0.65102  0.42623  1.0000
  O   O35       1.0  0.87597  0.15102  0.42623  1.0000
  O   O36       1.0  0.37597  0.34898  0.57377  1.0000
  O   O37       1.0  0.80986  0.02314  0.90540  1.0000
  O   O38       1.0  0.30986  0.47686  0.09460  1.0000
  O   O39       1.0  0.19014  0.97687  0.09460  1.0000
  O   O40       1.0  0.69014  0.52313  0.90540  1.0000
