data_image0
_chemical_formula_structural       Gd4H44C64N8O20
_chemical_formula_sum              "Gd4 H44 C64 N8 O20"
_cell_length_a       8.32232
_cell_length_b       14.0798
_cell_length_c       13.9919
_cell_angle_alpha    84.9835
_cell_angle_beta     72.6985
_cell_angle_gamma    72.9011

_space_group_name_H-M_alt    "P 1"
_space_group_IT_number       1

loop_
  _space_group_symop_operation_xyz
  'x, y, z'

loop_
  _atom_site_type_symbol
  _atom_site_label
  _atom_site_symmetry_multiplicity
  _atom_site_fract_x
  _atom_site_fract_y
  _atom_site_fract_z
  _atom_site_occupancy
  Gd  Gd1       1.0  0.22061  0.86028  0.02362  1.0000
  Gd  Gd2       1.0  0.92012  0.97627  0.85958  1.0000
  Gd  Gd3       1.0  0.10457  0.13977  0.97655  1.0000
  Gd  Gd4       1.0  0.75580  0.02368  0.14047  1.0000
  H   H1        1.0  0.28325  0.97074  0.84623  1.0000
  H   H2        1.0  0.74837  0.15226  0.96969  1.0000
  H   H3        1.0  0.09981  0.02945  0.15390  1.0000
  H   H4        1.0  0.87017  0.84770  0.03035  1.0000
  H   H5        1.0  0.98438  0.98503  0.59110  1.0000
  H   H6        1.0  0.03148  0.40699  0.98436  1.0000
  H   H7        1.0  0.56021  0.01512  0.40914  1.0000
  H   H8        1.0  0.42220  0.59275  0.01575  1.0000
  H   H9        1.0  0.82472  0.96487  0.47036  1.0000
  H   H10       1.0  0.21102  0.52730  0.96445  1.0000
  H   H11       1.0  0.25984  0.03548  0.53002  1.0000
  H   H12       1.0  0.70185  0.47259  0.03572  1.0000
  H   H13       1.0  0.47342  0.85910  0.70129  1.0000
  H   H14       1.0  0.66794  0.29851  0.85903  1.0000
  H   H15       1.0  0.03392  0.14106  0.29921  1.0000
  H   H16       1.0  0.82551  0.70170  0.14061  1.0000
  H   H17       1.0  0.90097  0.71418  0.86055  1.0000
  H   H18       1.0  0.38455  0.13928  0.71446  1.0000
  H   H19       1.0  0.47516  0.28552  0.13924  1.0000
  H   H20       1.0  0.23722  0.86108  0.28551  1.0000
  H   H21       1.0  0.68370  0.63086  0.85121  1.0000
  H   H22       1.0  0.68540  0.14865  0.63111  1.0000
  H   H23       1.0  0.16534  0.36829  0.14871  1.0000
  H   H24       1.0  0.46444  0.85181  0.36860  1.0000
  H   H25       1.0  0.78122  0.46640  0.76634  1.0000
  H   H26       1.0  0.75333  0.23407  0.46610  1.0000
  H   H27       1.0  0.01353  0.53273  0.23353  1.0000
  H   H28       1.0  0.45309  0.76621  0.53347  1.0000
  H   H29       1.0  0.09633  0.39142  0.68121  1.0000
  H   H30       1.0  0.51397  0.31943  0.39079  1.0000
  H   H31       1.0  0.16817  0.60810  0.31878  1.0000
  H   H32       1.0  0.22398  0.68050  0.60890  1.0000
  H   H33       1.0  0.40298  0.40051  0.62829  1.0000
  H   H34       1.0  0.19873  0.37223  0.39953  1.0000
  H   H35       1.0  0.43062  0.59939  0.37178  1.0000
  H   H36       1.0  0.96994  0.62768  0.60037  1.0000
  H   H37       1.0  0.62191  0.48535  0.63520  1.0000
  H   H38       1.0  0.89472  0.36522  0.48433  1.0000
  H   H39       1.0  0.74111  0.51506  0.36490  1.0000
  H   H40       1.0  0.74308  0.63486  0.51597  1.0000
  H   H41       1.0  0.52776  0.64048  0.73536  1.0000
  H   H42       1.0  0.83261  0.26451  0.63970  1.0000
  H   H43       1.0  0.90240  0.36019  0.26447  1.0000
  H   H44       1.0  0.73569  0.73559  0.36061  1.0000
  C   C1        1.0  0.67699  0.89753  0.74288  1.0000
  C   C2        1.0  0.42627  0.25665  0.89735  1.0000
  C   C3        1.0  0.31737  0.10222  0.25741  1.0000
  C   C4        1.0  0.58012  0.74337  0.10252  1.0000
  C   C5        1.0  0.87151  0.95537  0.61557  1.0000
  C   C6        1.0  0.17398  0.38285  0.95484  1.0000
  C   C7        1.0  0.44227  0.04470  0.38469  1.0000
  C   C8        1.0  0.51117  0.61698  0.04518  1.0000
  C   C9        1.0  0.78118  0.94472  0.54900  1.0000
  C   C10       1.0  0.27478  0.44924  0.94429  1.0000
  C   C11       1.0  0.27479  0.05549  0.45136  1.0000
  C   C12       1.0  0.66759  0.55070  0.05574  1.0000
  C   C13       1.0  0.58867  0.88697  0.67545  1.0000
  C   C14       1.0  0.52492  0.32395  0.88675  1.0000
  C   C15       1.0  0.15112  0.11307  0.32497  1.0000
  C   C16       1.0  0.73541  0.67622  0.11299  1.0000
  C   C17       1.0  0.61775  0.87407  0.85294  1.0000
  C   C18       1.0  0.50897  0.14726  0.87395  1.0000
  C   C19       1.0  0.34471  0.12565  0.14732  1.0000
  C   C20       1.0  0.53012  0.85274  0.12604  1.0000
  C   C21       1.0  0.25533  0.64676  0.77975  1.0000
  C   C22       1.0  0.09837  0.22027  0.64621  1.0000
  C   C23       1.0  0.68100  0.35347  0.21998  1.0000
  C   C24       1.0  0.96405  0.77980  0.35384  1.0000
  C   C25       1.0  0.12573  0.60126  0.77495  1.0000
  C   C26       1.0  0.27358  0.22521  0.60100  1.0000
  C   C27       1.0  0.50120  0.39864  0.22482  1.0000
  C   C28       1.0  0.09905  0.77490  0.39898  1.0000
  C   C29       1.0  0.94408  0.64344  0.82157  1.0000
  C   C30       1.0  0.41261  0.17837  0.64345  1.0000
  C   C31       1.0  0.40848  0.35624  0.17819  1.0000
  C   C32       1.0  0.23362  0.82190  0.35645  1.0000
  C   C33       1.0  0.82277  0.59649  0.81664  1.0000
  C   C34       1.0  0.58102  0.18333  0.59649  1.0000
  C   C35       1.0  0.23544  0.40290  0.18321  1.0000
  C   C36       1.0  0.36021  0.81696  0.40324  1.0000
  C   C37       1.0  0.87809  0.50410  0.76700  1.0000
  C   C38       1.0  0.61871  0.23325  0.50382  1.0000
  C   C39       1.0  0.14868  0.49527  0.23284  1.0000
  C   C40       1.0  0.35533  0.76693  0.49582  1.0000
  C   C41       1.0  0.05338  0.46210  0.71995  1.0000
  C   C42       1.0  0.48586  0.28046  0.46162  1.0000
  C   C43       1.0  0.23476  0.53750  0.27993  1.0000
  C   C44       1.0  0.22757  0.71951  0.53809  1.0000
  C   C45       1.0  0.18146  0.50956  0.72116  1.0000
  C   C46       1.0  0.31020  0.27917  0.50903  1.0000
  C   C47       1.0  0.41139  0.49028  0.27868  1.0000
  C   C48       1.0  0.09783  0.72082  0.49083  1.0000
  C   C49       1.0  0.36205  0.46933  0.67043  1.0000
  C   C50       1.0  0.17038  0.32993  0.46850  1.0000
  C   C51       1.0  0.50078  0.53069  0.32954  1.0000
  C   C52       1.0  0.96809  0.67003  0.53145  1.0000
  C   C53       1.0  0.48340  0.51661  0.67446  1.0000
  C   C54       1.0  0.00158  0.32585  0.51573  1.0000
  C   C55       1.0  0.67328  0.48369  0.32553  1.0000
  C   C56       1.0  0.84219  0.67419  0.48441  1.0000
  C   C57       1.0  0.43035  0.60476  0.73088  1.0000
  C   C58       1.0  0.96577  0.26924  0.60404  1.0000
  C   C59       1.0  0.76489  0.39569  0.26896  1.0000
  C   C60       1.0  0.83807  0.73082  0.39612  1.0000
  C   C61       1.0  0.19776  0.74028  0.83990  1.0000
  C   C62       1.0  0.06194  0.15972  0.73965  1.0000
  C   C63       1.0  0.77753  0.26002  0.15986  1.0000
  C   C64       1.0  0.96075  0.84031  0.26035  1.0000
  N   N1        1.0  0.81806  0.93304  0.71251  1.0000
  N   N2        1.0  0.24976  0.28658  0.93267  1.0000
  N   N3        1.0  0.46348  0.06677  0.28770  1.0000
  N   N4        1.0  0.46875  0.71327  0.06733  1.0000
  N   N5        1.0  0.63892  0.91151  0.57843  1.0000
  N   N6        1.0  0.45013  0.42030  0.91117  1.0000
  N   N7        1.0  0.12885  0.08869  0.42201  1.0000
  N   N8        1.0  0.78103  0.57984  0.08869  1.0000
  O   O1        1.0  0.48359  0.84270  0.88346  1.0000
  O   O2        1.0  0.67443  0.11699  0.84303  1.0000
  O   O3        1.0  0.20972  0.15707  0.11691  1.0000
  O   O4        1.0  0.63441  0.88317  0.15690  1.0000
  O   O5        1.0  0.70815  0.88711  0.90702  1.0000
  O   O6        1.0  0.40541  0.09349  0.88649  1.0000
  O   O7        1.0  0.50210  0.11263  0.09319  1.0000
  O   O8        1.0  0.38533  0.90636  0.11373  1.0000
  O   O9        1.0  0.22655  0.73151  0.92518  1.0000
  O   O10       1.0  0.04262  0.07490  0.73011  1.0000
  O   O11       1.0  0.88333  0.26881  0.07474  1.0000
  O   O12       1.0  0.84740  0.92508  0.26985  1.0000
  O   O13       1.0  0.12239  0.82066  0.80275  1.0000
  O   O14       1.0  0.05617  0.19630  0.82097  1.0000
  O   O15       1.0  0.74545  0.17952  0.19700  1.0000
  O   O16       1.0  0.07276  0.80371  0.17906  1.0000
  O   O17       1.0  0.17440  0.98348  0.90026  1.0000
  O   O18       1.0  0.84354  0.09887  0.98351  1.0000
  O   O19       1.0  0.05794  0.01651  0.09985  1.0000
  O   O20       1.0  0.92595  0.90113  0.01650  1.0000
