data_image0
_chemical_formula_structural       Er4H32C20O36
_chemical_formula_sum              "Er4 H32 C20 O36"
_cell_length_a       6.63061
_cell_length_b       11.5041
_cell_length_c       11.5917
_cell_angle_alpha    97.0932
_cell_angle_beta     90.0005
_cell_angle_gamma    90

_space_group_name_H-M_alt    "P 1"
_space_group_IT_number       1

loop_
  _space_group_symop_operation_xyz
  'x, y, z'

loop_
  _atom_site_type_symbol
  _atom_site_label
  _atom_site_symmetry_multiplicity
  _atom_site_fract_x
  _atom_site_fract_y
  _atom_site_fract_z
  _atom_site_occupancy
  Er  Er1       1.0  0.98424  0.30361  0.16705  1.0000
  Er  Er2       1.0  0.48425  0.69639  0.33294  1.0000
  Er  Er3       1.0  0.01576  0.69639  0.83294  1.0000
  Er  Er4       1.0  0.51576  0.30362  0.66706  1.0000
  H   H1        1.0  0.10383  0.47930  0.36111  1.0000
  H   H2        1.0  0.60382  0.52071  0.13888  1.0000
  H   H3        1.0  0.89619  0.52070  0.63889  1.0000
  H   H4        1.0  0.39619  0.47931  0.86111  1.0000
  H   H5        1.0  0.82329  0.11420  0.28938  1.0000
  H   H6        1.0  0.32328  0.88580  0.21062  1.0000
  H   H7        1.0  0.17669  0.88579  0.71061  1.0000
  H   H8        1.0  0.67669  0.11420  0.78939  1.0000
  H   H9        1.0  0.22723  0.02150  0.94603  1.0000
  H   H10       1.0  0.72723  0.97850  0.55398  1.0000
  H   H11       1.0  0.77277  0.97849  0.05397  1.0000
  H   H12       1.0  0.27276  0.02151  0.44603  1.0000
  H   H13       1.0  0.27413  0.15249  0.88202  1.0000
  H   H14       1.0  0.77413  0.84750  0.61798  1.0000
  H   H15       1.0  0.72586  0.84751  0.11798  1.0000
  H   H16       1.0  0.22585  0.15249  0.38202  1.0000
  H   H17       1.0  0.50706  0.24036  0.00923  1.0000
  H   H18       1.0  0.00707  0.75963  0.49077  1.0000
  H   H19       1.0  0.49293  0.75963  0.99077  1.0000
  H   H20       1.0  0.99292  0.24037  0.50923  1.0000
  H   H21       1.0  0.52381  0.11380  0.08336  1.0000
  H   H22       1.0  0.02382  0.88619  0.41664  1.0000
  H   H23       1.0  0.47620  0.88619  0.91664  1.0000
  H   H24       1.0  0.97618  0.11381  0.58336  1.0000
  H   H25       1.0  0.01423  0.05773  0.21700  1.0000
  H   H26       1.0  0.51422  0.94227  0.28300  1.0000
  H   H27       1.0  0.98576  0.94226  0.78300  1.0000
  H   H28       1.0  0.48576  0.05773  0.71700  1.0000
  H   H29       1.0  0.86700  0.48911  0.35663  1.0000
  H   H30       1.0  0.36699  0.51090  0.14337  1.0000
  H   H31       1.0  0.13302  0.51090  0.64337  1.0000
  H   H32       1.0  0.63301  0.48912  0.85663  1.0000
  C   C1        1.0  0.46993  0.27473  0.19501  1.0000
  C   C2        1.0  0.96993  0.72527  0.30499  1.0000
  C   C3        1.0  0.53008  0.72526  0.80499  1.0000
  C   C4        1.0  0.03007  0.27473  0.69501  1.0000
  C   C5        1.0  0.96481  0.12946  0.92681  1.0000
  C   C6        1.0  0.46482  0.87053  0.57319  1.0000
  C   C7        1.0  0.03518  0.87053  0.07319  1.0000
  C   C8        1.0  0.53517  0.12947  0.42681  1.0000
  C   C9        1.0  0.18774  0.11497  0.94976  1.0000
  C   C10       1.0  0.68774  0.88502  0.55025  1.0000
  C   C11       1.0  0.81225  0.88501  0.05024  1.0000
  C   C12       1.0  0.31224  0.11498  0.44976  1.0000
  C   C13       1.0  0.44291  0.19700  0.08033  1.0000
  C   C14       1.0  0.94292  0.80299  0.41967  1.0000
  C   C15       1.0  0.55708  0.80299  0.91967  1.0000
  C   C16       1.0  0.05708  0.19701  0.58033  1.0000
  C   C17       1.0  0.88588  0.50767  0.00481  1.0000
  C   C18       1.0  0.38587  0.49233  0.49519  1.0000
  C   C19       1.0  0.11414  0.49234  0.99519  1.0000
  C   C20       1.0  0.61414  0.50767  0.50482  1.0000
  O   O1        1.0  0.64807  0.30202  0.22713  1.0000
  O   O2        1.0  0.14807  0.69798  0.27287  1.0000
  O   O3        1.0  0.35194  0.69797  0.77286  1.0000
  O   O4        1.0  0.85193  0.30201  0.72714  1.0000
  O   O5        1.0  0.31056  0.30754  0.25101  1.0000
  O   O6        1.0  0.81057  0.69246  0.24899  1.0000
  O   O7        1.0  0.68944  0.69245  0.74900  1.0000
  O   O8        1.0  0.18943  0.30754  0.75101  1.0000
  O   O9        1.0  0.98113  0.44090  0.32358  1.0000
  O   O10       1.0  0.48113  0.55912  0.17640  1.0000
  O   O11       1.0  0.01888  0.55910  0.67642  1.0000
  O   O12       1.0  0.51888  0.44090  0.82359  1.0000
  O   O13       1.0  0.95234  0.13430  0.25030  1.0000
  O   O14       1.0  0.45234  0.86570  0.24970  1.0000
  O   O15       1.0  0.04765  0.86569  0.74970  1.0000
  O   O16       1.0  0.54765  0.13430  0.75030  1.0000
  O   O17       1.0  0.23201  0.17553  0.06196  1.0000
  O   O18       1.0  0.73201  0.82447  0.43805  1.0000
  O   O19       1.0  0.76800  0.82447  0.93805  1.0000
  O   O20       1.0  0.26798  0.17553  0.56196  1.0000
  O   O21       1.0  0.79671  0.44929  0.07494  1.0000
  O   O22       1.0  0.29672  0.55072  0.42504  1.0000
  O   O23       1.0  0.20332  0.55073  0.92503  1.0000
  O   O24       1.0  0.70331  0.44927  0.57497  1.0000
  O   O25       1.0  0.88875  0.06802  0.83898  1.0000
  O   O26       1.0  0.38876  0.93195  0.66102  1.0000
  O   O27       1.0  0.11123  0.93195  0.16103  1.0000
  O   O28       1.0  0.61123  0.06805  0.33898  1.0000
  O   O29       1.0  0.86794  0.20317  0.99613  1.0000
  O   O30       1.0  0.36795  0.79682  0.50387  1.0000
  O   O31       1.0  0.13207  0.79683  0.00387  1.0000
  O   O32       1.0  0.63205  0.20319  0.49613  1.0000
  O   O33       1.0  0.19390  0.42332  0.05937  1.0000
  O   O34       1.0  0.69391  0.57670  0.44064  1.0000
  O   O35       1.0  0.80611  0.57671  0.94061  1.0000
  O   O36       1.0  0.30611  0.42330  0.55938  1.0000
