data_image0
_chemical_formula_structural       Sn4H64C44O12
_chemical_formula_sum              "Sn4 H64 C44 O12"
_cell_length_a       10.0471
_cell_length_b       10.3266
_cell_length_c       13.068
_cell_angle_alpha    112.749
_cell_angle_beta     90
_cell_angle_gamma    90

_space_group_name_H-M_alt    "P 1"
_space_group_IT_number       1

loop_
  _space_group_symop_operation_xyz
  'x, y, z'

loop_
  _atom_site_type_symbol
  _atom_site_label
  _atom_site_symmetry_multiplicity
  _atom_site_fract_x
  _atom_site_fract_y
  _atom_site_fract_z
  _atom_site_occupancy
  Sn  Sn1       1.0  0.91348  0.82950  0.78092  1.0000
  Sn  Sn2       1.0  0.41348  0.67050  0.71908  1.0000
  Sn  Sn3       1.0  0.08652  0.17050  0.21908  1.0000
  Sn  Sn4       1.0  0.58652  0.32950  0.28092  1.0000
  H   H1        1.0  0.40259  0.14829  0.54616  1.0000
  H   H2        1.0  0.90259  0.35171  0.95384  1.0000
  H   H3        1.0  0.59741  0.85171  0.45384  1.0000
  H   H4        1.0  0.09741  0.64828  0.04616  1.0000
  H   H5        1.0  0.56379  0.27082  0.69397  1.0000
  H   H6        1.0  0.06379  0.22918  0.80603  1.0000
  H   H7        1.0  0.43621  0.72919  0.30603  1.0000
  H   H8        1.0  0.93621  0.77081  0.19397  1.0000
  H   H9        1.0  0.56001  0.23542  0.87229  1.0000
  H   H10       1.0  0.06002  0.26458  0.62771  1.0000
  H   H11       1.0  0.43998  0.76458  0.12771  1.0000
  H   H12       1.0  0.93998  0.73541  0.37228  1.0000
  H   H13       1.0  0.38649  0.08263  0.90338  1.0000
  H   H14       1.0  0.88649  0.41736  0.59661  1.0000
  H   H15       1.0  0.61351  0.91736  0.09661  1.0000
  H   H16       1.0  0.11351  0.58264  0.40338  1.0000
  H   H17       1.0  0.72907  0.00976  0.91033  1.0000
  H   H18       1.0  0.22907  0.49025  0.58967  1.0000
  H   H19       1.0  0.27093  0.99025  0.08967  1.0000
  H   H20       1.0  0.77093  0.50976  0.41033  1.0000
  H   H21       1.0  0.82016  0.09568  0.83651  1.0000
  H   H22       1.0  0.32015  0.40432  0.66349  1.0000
  H   H23       1.0  0.17985  0.90432  0.16349  1.0000
  H   H24       1.0  0.67984  0.59569  0.33651  1.0000
  H   H25       1.0  0.69133  0.97247  0.76899  1.0000
  H   H26       1.0  0.19133  0.52753  0.73101  1.0000
  H   H27       1.0  0.30867  0.02753  0.23101  1.0000
  H   H28       1.0  0.80867  0.47247  0.26899  1.0000
  H   H29       1.0  0.01288  0.78019  0.57654  1.0000
  H   H30       1.0  0.51288  0.71982  0.92347  1.0000
  H   H31       1.0  0.98712  0.21982  0.42347  1.0000
  H   H32       1.0  0.48713  0.28019  0.07654  1.0000
  H   H33       1.0  0.01061  0.61980  0.59870  1.0000
  H   H34       1.0  0.51061  0.88021  0.90130  1.0000
  H   H35       1.0  0.98940  0.38021  0.40130  1.0000
  H   H36       1.0  0.48940  0.11979  0.09871  1.0000
  H   H37       1.0  0.85952  0.68448  0.56288  1.0000
  H   H38       1.0  0.35952  0.81552  0.93712  1.0000
  H   H39       1.0  0.14048  0.31553  0.43712  1.0000
  H   H40       1.0  0.64049  0.18448  0.06289  1.0000
  H   H41       1.0  0.04936  0.85392  0.96626  1.0000
  H   H42       1.0  0.54937  0.64608  0.53374  1.0000
  H   H43       1.0  0.95063  0.14608  0.03374  1.0000
  H   H44       1.0  0.45063  0.35393  0.46627  1.0000
  H   H45       1.0  0.04996  0.67386  0.87155  1.0000
  H   H46       1.0  0.54997  0.82614  0.62845  1.0000
  H   H47       1.0  0.95004  0.32614  0.12845  1.0000
  H   H48       1.0  0.45003  0.17386  0.37156  1.0000
  H   H49       1.0  0.90534  0.74668  0.95450  1.0000
  H   H50       1.0  0.40535  0.75332  0.54550  1.0000
  H   H51       1.0  0.09465  0.25332  0.04550  1.0000
  H   H52       1.0  0.59465  0.24668  0.45451  1.0000
  H   H53       1.0  0.29808  0.95556  0.41629  1.0000
  H   H54       1.0  0.79808  0.54443  0.08371  1.0000
  H   H55       1.0  0.70192  0.04443  0.58371  1.0000
  H   H56       1.0  0.20192  0.45556  0.91629  1.0000
  H   H57       1.0  0.19233  0.10689  0.47476  1.0000
  H   H58       1.0  0.69233  0.39310  0.02524  1.0000
  H   H59       1.0  0.80767  0.89310  0.52524  1.0000
  H   H60       1.0  0.30767  0.60689  0.97476  1.0000
  H   H61       1.0  0.12101  0.93442  0.41450  1.0000
  H   H62       1.0  0.62101  0.56557  0.08550  1.0000
  H   H63       1.0  0.87899  0.06557  0.58550  1.0000
  H   H64       1.0  0.37899  0.43442  0.91449  1.0000
  C   C1        1.0  0.77193  0.99779  0.82998  1.0000
  C   C2        1.0  0.27193  0.50221  0.67002  1.0000
  C   C3        1.0  0.22807  0.00221  0.17002  1.0000
  C   C4        1.0  0.72807  0.49779  0.32998  1.0000
  C   C5        1.0  0.95390  0.71422  0.60794  1.0000
  C   C6        1.0  0.45390  0.78579  0.89206  1.0000
  C   C7        1.0  0.04610  0.28579  0.39206  1.0000
  C   C8        1.0  0.54611  0.21422  0.10794  1.0000
  C   C9        1.0  0.98867  0.76817  0.90928  1.0000
  C   C10       1.0  0.48867  0.73183  0.59073  1.0000
  C   C11       1.0  0.01133  0.23184  0.09073  1.0000
  C   C12       1.0  0.51133  0.26817  0.40928  1.0000
  C   C13       1.0  0.20505  0.99585  0.46205  1.0000
  C   C14       1.0  0.70505  0.50415  0.03795  1.0000
  C   C15       1.0  0.79495  0.00415  0.53795  1.0000
  C   C16       1.0  0.29495  0.49585  0.96205  1.0000
  C   C17       1.0  0.19228  0.93590  0.76138  1.0000
  C   C18       1.0  0.69228  0.56410  0.73862  1.0000
  C   C19       1.0  0.80772  0.06410  0.23862  1.0000
  C   C20       1.0  0.30772  0.43590  0.26138  1.0000
  C   C21       1.0  0.29547  0.03012  0.74337  1.0000
  C   C22       1.0  0.79547  0.46988  0.75662  1.0000
  C   C23       1.0  0.70453  0.96988  0.25663  1.0000
  C   C24       1.0  0.20453  0.53011  0.24337  1.0000
  C   C25       1.0  0.29899  0.04893  0.64208  1.0000
  C   C26       1.0  0.79899  0.45106  0.85791  1.0000
  C   C27       1.0  0.70101  0.95107  0.35792  1.0000
  C   C28       1.0  0.20100  0.54893  0.14208  1.0000
  C   C29       1.0  0.39728  0.13407  0.62432  1.0000
  C   C30       1.0  0.89728  0.36592  0.87567  1.0000
  C   C31       1.0  0.60272  0.86593  0.37568  1.0000
  C   C32       1.0  0.10271  0.63407  0.12432  1.0000
  C   C33       1.0  0.49039  0.20139  0.70756  1.0000
  C   C34       1.0  0.99039  0.29860  0.79243  1.0000
  C   C35       1.0  0.50961  0.79861  0.29244  1.0000
  C   C36       1.0  0.00960  0.70138  0.20756  1.0000
  C   C37       1.0  0.48702  0.18349  0.80788  1.0000
  C   C38       1.0  0.98702  0.31651  0.69212  1.0000
  C   C39       1.0  0.51298  0.81652  0.19212  1.0000
  C   C40       1.0  0.01297  0.68348  0.30788  1.0000
  C   C41       1.0  0.38969  0.09741  0.82518  1.0000
  C   C42       1.0  0.88970  0.40259  0.67481  1.0000
  C   C43       1.0  0.61031  0.90259  0.17481  1.0000
  C   C44       1.0  0.11031  0.59740  0.32519  1.0000
  O   O1        1.0  0.07605  0.98746  0.79080  1.0000
  O   O2        1.0  0.57605  0.51254  0.70920  1.0000
  O   O3        1.0  0.92395  0.01254  0.20920  1.0000
  O   O4        1.0  0.42395  0.48746  0.29080  1.0000
  O   O5        1.0  0.72140  0.68928  0.75266  1.0000
  O   O6        1.0  0.22140  0.81072  0.74734  1.0000
  O   O7        1.0  0.27860  0.31072  0.24734  1.0000
  O   O8        1.0  0.77860  0.18928  0.25267  1.0000
  O   O9        1.0  0.20395  0.97870  0.56582  1.0000
  O   O10       1.0  0.70395  0.52130  0.93418  1.0000
  O   O11       1.0  0.79605  0.02130  0.43418  1.0000
  O   O12       1.0  0.29605  0.47870  0.06582  1.0000
