data_image0
_chemical_formula_structural       Ag4H16C28N4O16
_chemical_formula_sum              "Ag4 H16 C28 N4 O16"
_cell_length_a       3.60648
_cell_length_b       8.42255
_cell_length_c       23.5355
_cell_angle_alpha    90.0001
_cell_angle_beta     90.0005
_cell_angle_gamma    90.0001

_space_group_name_H-M_alt    "P 1"
_space_group_IT_number       1

loop_
  _space_group_symop_operation_xyz
  'x, y, z'

loop_
  _atom_site_type_symbol
  _atom_site_label
  _atom_site_symmetry_multiplicity
  _atom_site_fract_x
  _atom_site_fract_y
  _atom_site_fract_z
  _atom_site_occupancy
  Ag  Ag1       1.0  0.88796  0.85003  0.22280  1.0000
  Ag  Ag2       1.0  0.61203  0.14997  0.72281  1.0000
  Ag  Ag3       1.0  0.11205  0.35003  0.27719  1.0000
  Ag  Ag4       1.0  0.38797  0.64997  0.77719  1.0000
  H   H1        1.0  0.38179  0.30229  0.08604  1.0000
  H   H2        1.0  0.11821  0.69771  0.58604  1.0000
  H   H3        1.0  0.61823  0.80229  0.41395  1.0000
  H   H4        1.0  0.88179  0.19771  0.91396  1.0000
  H   H5        1.0  0.18698  0.12652  0.00351  1.0000
  H   H6        1.0  0.31302  0.87348  0.50351  1.0000
  H   H7        1.0  0.81304  0.62652  0.49649  1.0000
  H   H8        1.0  0.68698  0.37348  0.99649  1.0000
  H   H9        1.0  0.24168  0.83400  0.01428  1.0000
  H   H10       1.0  0.25829  0.16600  0.51428  1.0000
  H   H11       1.0  0.75832  0.33400  0.48572  1.0000
  H   H12       1.0  0.74171  0.66601  0.98572  1.0000
  H   H13       1.0  0.62526  0.50774  0.16085  1.0000
  H   H14       1.0  0.87471  0.49226  0.66085  1.0000
  H   H15       1.0  0.37473  0.00774  0.33915  1.0000
  H   H16       1.0  0.12530  0.99226  0.83915  1.0000
  C   C1        1.0  0.69049  0.20270  0.18518  1.0000
  C   C2        1.0  0.80953  0.79730  0.68518  1.0000
  C   C3        1.0  0.30952  0.70270  0.31482  1.0000
  C   C4        1.0  0.19048  0.29730  0.81482  1.0000
  C   C5        1.0  0.56229  0.10163  0.13599  1.0000
  C   C6        1.0  0.93771  0.89837  0.63599  1.0000
  C   C7        1.0  0.43771  0.60163  0.36401  1.0000
  C   C8        1.0  0.06230  0.39837  0.86401  1.0000
  C   C9        1.0  0.41054  0.17328  0.08749  1.0000
  C   C10       1.0  0.08946  0.82672  0.58749  1.0000
  C   C11       1.0  0.58947  0.67328  0.41251  1.0000
  C   C12       1.0  0.91054  0.32672  0.91251  1.0000
  C   C13       1.0  0.30150  0.07684  0.04245  1.0000
  C   C14       1.0  0.19850  0.92316  0.54245  1.0000
  C   C15       1.0  0.69852  0.57684  0.45755  1.0000
  C   C16       1.0  0.80149  0.42316  0.95755  1.0000
  C   C17       1.0  0.33346  0.91281  0.04796  1.0000
  C   C18       1.0  0.16652  0.08719  0.54796  1.0000
  C   C19       1.0  0.66654  0.41281  0.45204  1.0000
  C   C20       1.0  0.83348  0.58719  0.95204  1.0000
  C   C21       1.0  0.47965  0.85023  0.09811  1.0000
  C   C22       1.0  0.02033  0.14977  0.59811  1.0000
  C   C23       1.0  0.52034  0.35023  0.40190  1.0000
  C   C24       1.0  0.97968  0.64977  0.90189  1.0000
  C   C25       1.0  0.49082  0.67251  0.10532  1.0000
  C   C26       1.0  0.00910  0.32749  0.60532  1.0000
  C   C27       1.0  0.50913  0.17251  0.39468  1.0000
  C   C28       1.0  0.99090  0.82749  0.89468  1.0000
  N   N1        1.0  0.59886  0.94344  0.14093  1.0000
  N   N2        1.0  0.90114  0.05656  0.64093  1.0000
  N   N3        1.0  0.40113  0.44344  0.35907  1.0000
  N   N4        1.0  0.09888  0.55656  0.85907  1.0000
  O   O1        1.0  0.58025  0.34573  0.18691  1.0000
  O   O2        1.0  0.91978  0.65426  0.68691  1.0000
  O   O3        1.0  0.41975  0.84574  0.31309  1.0000
  O   O4        1.0  0.08023  0.15427  0.81309  1.0000
  O   O5        1.0  0.65078  0.62713  0.15316  1.0000
  O   O6        1.0  0.84919  0.37287  0.65317  1.0000
  O   O7        1.0  0.34921  0.12713  0.34683  1.0000
  O   O8        1.0  0.15083  0.87287  0.84683  1.0000
  O   O9        1.0  0.35607  0.58259  0.06951  1.0000
  O   O10       1.0  0.14379  0.41741  0.56951  1.0000
  O   O11       1.0  0.64382  0.08259  0.43049  1.0000
  O   O12       1.0  0.85621  0.91742  0.93049  1.0000
  O   O13       1.0  0.89858  0.14060  0.22263  1.0000
  O   O14       1.0  0.60143  0.85939  0.72263  1.0000
  O   O15       1.0  0.10142  0.64060  0.27737  1.0000
  O   O16       1.0  0.39858  0.35940  0.77737  1.0000
