data_image0
_chemical_formula_structural       Cu4H28C12S4N4O24
_chemical_formula_sum              "Cu4 H28 C12 S4 N4 O24"
_cell_length_a       7.47353
_cell_length_b       9.74152
_cell_length_c       9.68313
_cell_angle_alpha    89.9998
_cell_angle_beta     90.0001
_cell_angle_gamma    90.0001

_space_group_name_H-M_alt    "P 1"
_space_group_IT_number       1

loop_
  _space_group_symop_operation_xyz
  'x, y, z'

loop_
  _atom_site_type_symbol
  _atom_site_label
  _atom_site_symmetry_multiplicity
  _atom_site_fract_x
  _atom_site_fract_y
  _atom_site_fract_z
  _atom_site_occupancy
  Cu  Cu1       1.0  0.06908  0.05157  0.33746  1.0000
  Cu  Cu2       1.0  0.43092  0.94843  0.83745  1.0000
  Cu  Cu3       1.0  0.93092  0.55157  0.16254  1.0000
  Cu  Cu4       1.0  0.56908  0.44844  0.66254  1.0000
  H   H1        1.0  0.14620  0.93996  0.11071  1.0000
  H   H2        1.0  0.35381  0.06005  0.61070  1.0000
  H   H3        1.0  0.85380  0.43996  0.38930  1.0000
  H   H4        1.0  0.64620  0.56004  0.88929  1.0000
  H   H5        1.0  0.92447  0.95141  0.13237  1.0000
  H   H6        1.0  0.57554  0.04859  0.63237  1.0000
  H   H7        1.0  0.07554  0.45141  0.36764  1.0000
  H   H8        1.0  0.42446  0.54859  0.86763  1.0000
  H   H9        1.0  0.18161  0.14076  0.01402  1.0000
  H   H10       1.0  0.31839  0.85924  0.51401  1.0000
  H   H11       1.0  0.81839  0.64076  0.48599  1.0000
  H   H12       1.0  0.68161  0.35924  0.98598  1.0000
  H   H13       1.0  0.93817  0.21102  0.86171  1.0000
  H   H14       1.0  0.56181  0.78899  0.36169  1.0000
  H   H15       1.0  0.06182  0.71102  0.63831  1.0000
  H   H16       1.0  0.43817  0.28898  0.13829  1.0000
  H   H17       1.0  0.77599  0.12516  0.96709  1.0000
  H   H18       1.0  0.72400  0.87484  0.46708  1.0000
  H   H19       1.0  0.22400  0.62516  0.53292  1.0000
  H   H20       1.0  0.27599  0.37484  0.03291  1.0000
  H   H21       1.0  0.11542  0.21220  0.54871  1.0000
  H   H22       1.0  0.38459  0.78780  0.04870  1.0000
  H   H23       1.0  0.88459  0.71220  0.95130  1.0000
  H   H24       1.0  0.61541  0.28780  0.45130  1.0000
  H   H25       1.0  0.00119  0.07671  0.59062  1.0000
  H   H26       1.0  0.49882  0.92328  0.09061  1.0000
  H   H27       1.0  0.99882  0.57672  0.90939  1.0000
  H   H28       1.0  0.50119  0.42328  0.40938  1.0000
  C   C1        1.0  0.00720  0.25337  0.14365  1.0000
  C   C2        1.0  0.49280  0.74662  0.64363  1.0000
  C   C3        1.0  0.99280  0.75338  0.35637  1.0000
  C   C4        1.0  0.50720  0.24662  0.85636  1.0000
  C   C5        1.0  0.04385  0.12785  0.05248  1.0000
  C   C6        1.0  0.45615  0.87215  0.55248  1.0000
  C   C7        1.0  0.95615  0.62785  0.44752  1.0000
  C   C8        1.0  0.54385  0.37215  0.94752  1.0000
  C   C9        1.0  0.91483  0.12333  0.93056  1.0000
  C   C10       1.0  0.58516  0.87667  0.43055  1.0000
  C   C11       1.0  0.08516  0.62334  0.56945  1.0000
  C   C12       1.0  0.41483  0.37666  0.06944  1.0000
  S   S1        1.0  0.92792  0.96977  0.82722  1.0000
  S   S2        1.0  0.57208  0.03024  0.32721  1.0000
  S   S3        1.0  0.07208  0.46977  0.67279  1.0000
  S   S4        1.0  0.42792  0.53023  0.17278  1.0000
  N   N1        1.0  0.04324  0.00387  0.13947  1.0000
  N   N2        1.0  0.45677  0.99613  0.63946  1.0000
  N   N3        1.0  0.95677  0.50387  0.36054  1.0000
  N   N4        1.0  0.54324  0.49612  0.86053  1.0000
  O   O1        1.0  0.03355  0.24150  0.27257  1.0000
  O   O2        1.0  0.46644  0.75850  0.77256  1.0000
  O   O3        1.0  0.96644  0.74150  0.22744  1.0000
  O   O4        1.0  0.53355  0.25850  0.72743  1.0000
  O   O5        1.0  0.95889  0.36365  0.08387  1.0000
  O   O6        1.0  0.54111  0.63636  0.58386  1.0000
  O   O7        1.0  0.04110  0.86364  0.41613  1.0000
  O   O8        1.0  0.45890  0.13636  0.91613  1.0000
  O   O9        1.0  0.11629  0.93038  0.81383  1.0000
  O   O10       1.0  0.38371  0.06963  0.31382  1.0000
  O   O11       1.0  0.88371  0.43037  0.68618  1.0000
  O   O12       1.0  0.61629  0.56962  0.18617  1.0000
  O   O13       1.0  0.84620  0.00787  0.69330  1.0000
  O   O14       1.0  0.65381  0.99213  0.19330  1.0000
  O   O15       1.0  0.15381  0.50787  0.80670  1.0000
  O   O16       1.0  0.34619  0.49212  0.30670  1.0000
  O   O17       1.0  0.81899  0.86766  0.90196  1.0000
  O   O18       1.0  0.68100  0.13235  0.40196  1.0000
  O   O19       1.0  0.18100  0.36765  0.59804  1.0000
  O   O20       1.0  0.31899  0.63234  0.09804  1.0000
  O   O21       1.0  0.10192  0.11131  0.53142  1.0000
  O   O22       1.0  0.39809  0.88868  0.03141  1.0000
  O   O23       1.0  0.89809  0.61132  0.96859  1.0000
  O   O24       1.0  0.60192  0.38869  0.46858  1.0000
