data_image0
_chemical_formula_structural       Cd4H32C20S8N16O4
_chemical_formula_sum              "Cd4 H32 C20 S8 N16 O4"
_cell_length_a       8.22379
_cell_length_b       8.22375
_cell_length_c       14.8701
_cell_angle_alpha    90.001
_cell_angle_beta     89.9994
_cell_angle_gamma    97.4696

_space_group_name_H-M_alt    "P 1"
_space_group_IT_number       1

loop_
  _space_group_symop_operation_xyz
  'x, y, z'

loop_
  _atom_site_type_symbol
  _atom_site_label
  _atom_site_symmetry_multiplicity
  _atom_site_fract_x
  _atom_site_fract_y
  _atom_site_fract_z
  _atom_site_occupancy
  Cd  Cd1       1.0  0.97049  0.71775  0.81896  1.0000
  Cd  Cd2       1.0  0.28223  0.02951  0.18105  1.0000
  Cd  Cd3       1.0  0.78223  0.52951  0.31896  1.0000
  Cd  Cd4       1.0  0.47049  0.21776  0.68104  1.0000
  H   H1        1.0  0.05677  0.80218  0.03069  1.0000
  H   H2        1.0  0.19782  0.94322  0.96932  1.0000
  H   H3        1.0  0.69782  0.44324  0.53069  1.0000
  H   H4        1.0  0.55677  0.30218  0.46931  1.0000
  H   H5        1.0  0.36288  0.62651  0.83710  1.0000
  H   H6        1.0  0.37349  0.63712  0.16290  1.0000
  H   H7        1.0  0.87348  0.13712  0.33710  1.0000
  H   H8        1.0  0.86288  0.12653  0.66289  1.0000
  H   H9        1.0  0.37352  0.84212  0.85684  1.0000
  H   H10       1.0  0.15788  0.62648  0.14316  1.0000
  H   H11       1.0  0.65788  0.12648  0.35684  1.0000
  H   H12       1.0  0.87352  0.34213  0.64316  1.0000
  H   H13       1.0  0.04194  0.51466  0.00483  1.0000
  H   H14       1.0  0.48533  0.95807  0.99518  1.0000
  H   H15       1.0  0.98533  0.45807  0.50482  1.0000
  H   H16       1.0  0.54193  0.01467  0.49518  1.0000
  H   H17       1.0  0.17036  0.43752  0.92205  1.0000
  H   H18       1.0  0.56248  0.82965  0.07795  1.0000
  H   H19       1.0  0.06248  0.32965  0.42204  1.0000
  H   H20       1.0  0.67036  0.93753  0.57795  1.0000
  H   H21       1.0  0.54780  0.53816  0.05157  1.0000
  H   H22       1.0  0.46185  0.45222  0.94843  1.0000
  H   H23       1.0  0.96185  0.95221  0.55156  1.0000
  H   H24       1.0  0.04779  0.03816  0.44843  1.0000
  H   H25       1.0  0.69416  0.76384  0.93827  1.0000
  H   H26       1.0  0.23617  0.30584  0.06172  1.0000
  H   H27       1.0  0.73616  0.80584  0.43828  1.0000
  H   H28       1.0  0.19416  0.26383  0.56172  1.0000
  H   H29       1.0  0.82363  0.92193  0.93020  1.0000
  H   H30       1.0  0.07808  0.17638  0.06980  1.0000
  H   H31       1.0  0.57808  0.67638  0.43020  1.0000
  H   H32       1.0  0.32363  0.42192  0.56980  1.0000
  C   C1        1.0  0.12544  0.12454  0.80224  1.0000
  C   C2        1.0  0.87545  0.87457  0.19778  1.0000
  C   C3        1.0  0.37545  0.37458  0.30222  1.0000
  C   C4        1.0  0.62542  0.62453  0.69778  1.0000
  C   C5        1.0  0.75591  0.33569  0.84055  1.0000
  C   C6        1.0  0.66425  0.24408  0.15944  1.0000
  C   C7        1.0  0.16428  0.74409  0.34056  1.0000
  C   C8        1.0  0.25593  0.83573  0.65944  1.0000
  C   C9        1.0  0.17873  0.82128  0.00001  1.0000
  C   C10       1.0  0.67873  0.32128  0.49999  1.0000
  C   C11       1.0  0.35470  0.72067  0.88863  1.0000
  C   C12       1.0  0.27934  0.64531  0.11136  1.0000
  C   C13       1.0  0.77933  0.14530  0.38863  1.0000
  C   C14       1.0  0.85470  0.22067  0.61136  1.0000
  C   C15       1.0  0.16380  0.53233  0.97331  1.0000
  C   C16       1.0  0.46767  0.83622  0.02670  1.0000
  C   C17       1.0  0.96767  0.33622  0.47330  1.0000
  C   C18       1.0  0.66379  0.03233  0.52670  1.0000
  C   C19       1.0  0.45345  0.54653  0.00000  1.0000
  C   C20       1.0  0.95346  0.04654  0.49999  1.0000
  S   S1        1.0  0.20785  0.30570  0.77010  1.0000
  S   S2        1.0  0.69429  0.79214  0.22990  1.0000
  S   S3        1.0  0.19429  0.29215  0.27009  1.0000
  S   S4        1.0  0.70787  0.80570  0.72990  1.0000
  S   S5        1.0  0.63636  0.16088  0.83385  1.0000
  S   S6        1.0  0.83911  0.36366  0.16613  1.0000
  S   S7        1.0  0.33911  0.86366  0.33386  1.0000
  S   S8        1.0  0.13633  0.66088  0.66614  1.0000
  N   N1        1.0  0.06225  0.99402  0.82571  1.0000
  N   N2        1.0  0.00597  0.93776  0.17431  1.0000
  N   N3        1.0  0.50597  0.43777  0.32570  1.0000
  N   N4        1.0  0.56223  0.49402  0.67430  1.0000
  N   N5        1.0  0.84545  0.45968  0.84656  1.0000
  N   N6        1.0  0.54027  0.15452  0.15344  1.0000
  N   N7        1.0  0.04028  0.65453  0.34657  1.0000
  N   N8        1.0  0.34548  0.95972  0.65344  1.0000
  N   N9        1.0  0.18803  0.69541  0.92948  1.0000
  N   N10       1.0  0.30460  0.81198  0.07051  1.0000
  N   N11       1.0  0.80460  0.31199  0.42948  1.0000
  N   N12       1.0  0.68803  0.19540  0.57051  1.0000
  N   N13       1.0  0.48178  0.71037  0.95741  1.0000
  N   N14       1.0  0.28966  0.51823  0.04259  1.0000
  N   N15       1.0  0.78966  0.01823  0.45741  1.0000
  N   N16       1.0  0.98177  0.21035  0.54259  1.0000
  O   O1        1.0  0.81429  0.80554  0.94543  1.0000
  O   O2        1.0  0.19443  0.18569  0.05458  1.0000
  O   O3        1.0  0.69443  0.68569  0.44543  1.0000
  O   O4        1.0  0.31429  0.30553  0.55457  1.0000
