data_image0
_chemical_formula_structural       P4H40Pb2C48O8
_chemical_formula_sum              "P4 H40 Pb2 C48 O8"
_cell_length_a       8.60916
_cell_length_b       10.8912
_cell_length_c       12.167
_cell_angle_alpha    91.0544
_cell_angle_beta     106.123
_cell_angle_gamma    96.3466

_space_group_name_H-M_alt    "P 1"
_space_group_IT_number       1

loop_
  _space_group_symop_operation_xyz
  'x, y, z'

loop_
  _atom_site_type_symbol
  _atom_site_label
  _atom_site_symmetry_multiplicity
  _atom_site_fract_x
  _atom_site_fract_y
  _atom_site_fract_z
  _atom_site_occupancy
  P   P1        1.0  0.10253  0.96062  0.83865  1.0000
  P   P2        1.0  0.89747  0.03938  0.16135  1.0000
  P   P3        1.0  0.06122  0.55947  0.17750  1.0000
  P   P4        1.0  0.93878  0.44053  0.82250  1.0000
  H   H1        1.0  0.69747  0.87691  0.37963  1.0000
  H   H2        1.0  0.30253  0.12309  0.62037  1.0000
  H   H3        1.0  0.75781  0.08819  0.47269  1.0000
  H   H4        1.0  0.24221  0.91181  0.52732  1.0000
  H   H5        1.0  0.93192  0.12360  0.67332  1.0000
  H   H6        1.0  0.06809  0.87640  0.32669  1.0000
  H   H7        1.0  0.31680  0.76109  0.28290  1.0000
  H   H8        1.0  0.68320  0.23891  0.71709  1.0000
  H   H9        1.0  0.49110  0.80495  0.48370  1.0000
  H   H10       1.0  0.50890  0.19504  0.51629  1.0000
  H   H11       1.0  0.44600  0.66980  0.63818  1.0000
  H   H12       1.0  0.55400  0.33020  0.36182  1.0000
  H   H13       1.0  0.21994  0.49932  0.59382  1.0000
  H   H14       1.0  0.78006  0.50067  0.40618  1.0000
  H   H15       1.0  0.04570  0.45514  0.39349  1.0000
  H   H16       1.0  0.95430  0.54486  0.60651  1.0000
  H   H17       1.0  0.29687  0.81555  0.73055  1.0000
  H   H18       1.0  0.70314  0.18444  0.26946  1.0000
  H   H19       1.0  0.85102  0.71792  0.24986  1.0000
  H   H20       1.0  0.14898  0.28207  0.75015  1.0000
  H   H21       1.0  0.55928  0.68525  0.24613  1.0000
  H   H22       1.0  0.44071  0.31474  0.75387  1.0000
  H   H23       1.0  0.38985  0.48726  0.16633  1.0000
  H   H24       1.0  0.61015  0.51274  0.83366  1.0000
  H   H25       1.0  0.51483  0.31944  0.09099  1.0000
  H   H26       1.0  0.48517  0.68057  0.90900  1.0000
  H   H27       1.0  0.80680  0.34900  0.09848  1.0000
  H   H28       1.0  0.19320  0.65101  0.90151  1.0000
  H   H29       1.0  0.58503  0.85238  0.72517  1.0000
  H   H30       1.0  0.41498  0.14762  0.27483  1.0000
  H   H31       1.0  0.76441  0.04032  0.82674  1.0000
  H   H32       1.0  0.23559  0.95968  0.17326  1.0000
  H   H33       1.0  0.65334  0.19315  0.92653  1.0000
  H   H34       1.0  0.34666  0.80686  0.07347  1.0000
  H   H35       1.0  0.36262  0.15974  0.92789  1.0000
  H   H36       1.0  0.63738  0.84027  0.07210  1.0000
  H   H37       1.0  0.97988  0.73444  0.69132  1.0000
  H   H38       1.0  0.02011  0.26556  0.30867  1.0000
  H   H39       1.0  0.80518  0.69906  0.48965  1.0000
  H   H40       1.0  0.19480  0.30095  0.51035  1.0000
  Pb  Pb1       1.0  0.88675  0.74902  0.97052  1.0000
  Pb  Pb2       1.0  0.11325  0.25098  0.02948  1.0000
  C   C1        1.0  0.31089  0.98532  0.83052  1.0000
  C   C2        1.0  0.68911  0.01468  0.16949  1.0000
  C   C3        1.0  0.77318  0.89176  0.46808  1.0000
  C   C4        1.0  0.22682  0.10825  0.53192  1.0000
  C   C5        1.0  0.80727  0.01076  0.51997  1.0000
  C   C6        1.0  0.19273  0.98925  0.48003  1.0000
  C   C7        1.0  0.90615  0.03090  0.63227  1.0000
  C   C8        1.0  0.09386  0.96910  0.36773  1.0000
  C   C9        1.0  0.17350  0.60327  0.32473  1.0000
  C   C10       1.0  0.82649  0.39672  0.67527  1.0000
  C   C11       1.0  0.29751  0.70292  0.35105  1.0000
  C   C12       1.0  0.70248  0.29708  0.64894  1.0000
  C   C13       1.0  0.39457  0.72755  0.46377  1.0000
  C   C14       1.0  0.60542  0.27244  0.53623  1.0000
  C   C15       1.0  0.36826  0.65310  0.55055  1.0000
  C   C16       1.0  0.63174  0.34689  0.44945  1.0000
  C   C17       1.0  0.24146  0.55600  0.52540  1.0000
  C   C18       1.0  0.75853  0.44400  0.47460  1.0000
  C   C19       1.0  0.14452  0.53113  0.41297  1.0000
  C   C20       1.0  0.85548  0.46887  0.58703  1.0000
  C   C21       1.0  0.84795  0.53536  0.17385  1.0000
  C   C22       1.0  0.15205  0.46464  0.82615  1.0000
  C   C23       1.0  0.37438  0.89854  0.77356  1.0000
  C   C24       1.0  0.62563  0.10145  0.22645  1.0000
  C   C25       1.0  0.77727  0.63034  0.21508  1.0000
  C   C26       1.0  0.22272  0.36965  0.78492  1.0000
  C   C27       1.0  0.61342  0.61231  0.21285  1.0000
  C   C28       1.0  0.38658  0.38768  0.78715  1.0000
  C   C29       1.0  0.51808  0.50062  0.16815  1.0000
  C   C30       1.0  0.48192  0.49937  0.83185  1.0000
  C   C31       1.0  0.58790  0.40695  0.12618  1.0000
  C   C32       1.0  0.41210  0.59305  0.87381  1.0000
  C   C33       1.0  0.75235  0.42327  0.12951  1.0000
  C   C34       1.0  0.24765  0.57674  0.87048  1.0000
  C   C35       1.0  0.53660  0.91868  0.77138  1.0000
  C   C36       1.0  0.46341  0.08132  0.22862  1.0000
  C   C37       1.0  0.63719  0.02442  0.82698  1.0000
  C   C38       1.0  0.36282  0.97559  0.17302  1.0000
  C   C39       1.0  0.57434  0.11109  0.88343  1.0000
  C   C40       1.0  0.42567  0.88891  0.11657  1.0000
  C   C41       1.0  0.41197  0.09175  0.88445  1.0000
  C   C42       1.0  0.58803  0.90826  0.11555  1.0000
  C   C43       1.0  0.97111  0.93192  0.69391  1.0000
  C   C44       1.0  0.02889  0.06808  0.30609  1.0000
  C   C45       1.0  0.93371  0.81197  0.64209  1.0000
  C   C46       1.0  0.06627  0.18803  0.35791  1.0000
  C   C47       1.0  0.83529  0.79227  0.52941  1.0000
  C   C48       1.0  0.16470  0.20774  0.47059  1.0000
  O   O1        1.0  0.08908  0.84052  0.90210  1.0000
  O   O2        1.0  0.91092  0.15948  0.09790  1.0000
  O   O3        1.0  0.06068  0.07727  0.88814  1.0000
  O   O4        1.0  0.93933  0.92273  0.11186  1.0000
  O   O5        1.0  0.08783  0.67104  0.10595  1.0000
  O   O6        1.0  0.91217  0.32896  0.89406  1.0000
  O   O7        1.0  0.88565  0.56136  0.85437  1.0000
  O   O8        1.0  0.11435  0.43864  0.14563  1.0000
