data_image0
_chemical_formula_structural       Nd2H18C18N6O18
_chemical_formula_sum              "Nd2 H18 C18 N6 O18"
_cell_length_a       6.22257
_cell_length_b       7.72183
_cell_length_c       13.5171
_cell_angle_alpha    81.3638
_cell_angle_beta     85.7574
_cell_angle_gamma    76.7627

_space_group_name_H-M_alt    "P 1"
_space_group_IT_number       1

loop_
  _space_group_symop_operation_xyz
  'x, y, z'

loop_
  _atom_site_type_symbol
  _atom_site_label
  _atom_site_symmetry_multiplicity
  _atom_site_fract_x
  _atom_site_fract_y
  _atom_site_fract_z
  _atom_site_occupancy
  Nd  Nd1       1.0  0.22252  0.20891  0.23170  1.0000
  Nd  Nd2       1.0  0.77748  0.79109  0.76830  1.0000
  H   H1        1.0  0.89974  0.90430  0.50396  1.0000
  H   H2        1.0  0.10026  0.09568  0.49603  1.0000
  H   H3        1.0  0.11898  0.11103  0.83139  1.0000
  H   H4        1.0  0.88104  0.88897  0.16860  1.0000
  H   H5        1.0  0.84629  0.29322  0.54384  1.0000
  H   H6        1.0  0.15371  0.70678  0.45616  1.0000
  H   H7        1.0  0.35783  0.59558  0.15747  1.0000
  H   H8        1.0  0.64218  0.40442  0.84253  1.0000
  H   H9        1.0  0.14795  0.60819  0.23705  1.0000
  H   H10       1.0  0.85205  0.39181  0.76296  1.0000
  H   H11       1.0  0.49471  0.83314  0.19395  1.0000
  H   H12       1.0  0.50529  0.16686  0.80605  1.0000
  H   H13       1.0  0.43856  0.79554  0.31009  1.0000
  H   H14       1.0  0.56144  0.20446  0.68991  1.0000
  H   H15       1.0  0.76531  0.31303  0.17061  1.0000
  H   H16       1.0  0.23469  0.68698  0.82939  1.0000
  H   H17       1.0  0.80734  0.50837  0.13725  1.0000
  H   H18       1.0  0.19266  0.49163  0.86275  1.0000
  C   C1        1.0  0.74105  0.09198  0.32068  1.0000
  C   C2        1.0  0.25895  0.90802  0.67932  1.0000
  C   C3        1.0  0.61594  0.03757  0.41503  1.0000
  C   C4        1.0  0.38405  0.96243  0.58496  1.0000
  C   C5        1.0  0.72123  0.94771  0.50187  1.0000
  C   C6        1.0  0.27877  0.05228  0.49813  1.0000
  C   C7        1.0  0.32129  0.21663  0.98382  1.0000
  C   C8        1.0  0.67871  0.78337  0.01617  1.0000
  C   C9        1.0  0.14953  0.10317  0.99126  1.0000
  C   C10       1.0  0.85048  0.89683  0.00873  1.0000
  C   C11       1.0  0.06601  0.06046  0.90669  1.0000
  C   C12       1.0  0.93400  0.93954  0.09330  1.0000
  C   C13       1.0  0.87875  0.52228  0.36696  1.0000
  C   C14       1.0  0.12125  0.47772  0.63305  1.0000
  C   C15       1.0  0.67841  0.51420  0.43763  1.0000
  C   C16       1.0  0.32160  0.48580  0.56237  1.0000
  C   C17       1.0  0.69039  0.38499  0.52312  1.0000
  C   C18       1.0  0.30961  0.61501  0.47689  1.0000
  N   N1        1.0  0.39481  0.08878  0.41368  1.0000
  N   N2        1.0  0.60518  0.91121  0.58632  1.0000
  N   N3        1.0  0.08219  0.04294  0.08427  1.0000
  N   N4        1.0  0.91782  0.95706  0.91572  1.0000
  N   N5        1.0  0.48557  0.62976  0.41577  1.0000
  N   N6        1.0  0.51443  0.37024  0.58424  1.0000
  O   O1        1.0  0.62390  0.18363  0.24920  1.0000
  O   O2        1.0  0.37609  0.81638  0.75080  1.0000
  O   O3        1.0  0.94887  0.05032  0.31997  1.0000
  O   O4        1.0  0.05112  0.94968  0.68003  1.0000
  O   O5        1.0  0.39421  0.23723  0.06512  1.0000
  O   O6        1.0  0.60578  0.76278  0.93487  1.0000
  O   O7        1.0  0.38148  0.28306  0.89711  1.0000
  O   O8        1.0  0.61853  0.71695  0.10289  1.0000
  O   O9        1.0  0.01836  0.37212  0.36742  1.0000
  O   O10       1.0  0.98164  0.62788  0.63258  1.0000
  O   O11       1.0  0.89306  0.66877  0.31520  1.0000
  O   O12       1.0  0.10694  0.33123  0.68481  1.0000
  O   O13       1.0  0.26222  0.52726  0.19970  1.0000
  O   O14       1.0  0.73778  0.47274  0.80030  1.0000
  O   O15       1.0  0.39836  0.88533  0.24890  1.0000
  O   O16       1.0  0.60165  0.11467  0.75110  1.0000
  O   O17       1.0  0.88278  0.38024  0.14718  1.0000
  O   O18       1.0  0.11722  0.61976  0.85283  1.0000
