data_image0
_chemical_formula_structural       Gd2H18C18N6O18
_chemical_formula_sum              "Gd2 H18 C18 N6 O18"
_cell_length_a       6.13677
_cell_length_b       7.67407
_cell_length_c       13.3756
_cell_angle_alpha    81.2471
_cell_angle_beta     85.8851
_cell_angle_gamma    76.9131

_space_group_name_H-M_alt    "P 1"
_space_group_IT_number       1

loop_
  _space_group_symop_operation_xyz
  'x, y, z'

loop_
  _atom_site_type_symbol
  _atom_site_label
  _atom_site_symmetry_multiplicity
  _atom_site_fract_x
  _atom_site_fract_y
  _atom_site_fract_z
  _atom_site_occupancy
  Gd  Gd1       1.0  0.77354  0.79300  0.26810  1.0000
  Gd  Gd2       1.0  0.22646  0.20700  0.73190  1.0000
  H   H1        1.0  0.09545  0.09598  0.99434  1.0000
  H   H2        1.0  0.90455  0.90403  0.00566  1.0000
  H   H3        1.0  0.88208  0.88368  0.67005  1.0000
  H   H4        1.0  0.11792  0.11631  0.32995  1.0000
  H   H5        1.0  0.15095  0.71017  0.95595  1.0000
  H   H6        1.0  0.84904  0.28984  0.04405  1.0000
  H   H7        1.0  0.56133  0.20004  0.19144  1.0000
  H   H8        1.0  0.43867  0.79996  0.80856  1.0000
  H   H9        1.0  0.50755  0.16351  0.30904  1.0000
  H   H10       1.0  0.49246  0.83648  0.69096  1.0000
  H   H11       1.0  0.17816  0.49405  0.36158  1.0000
  H   H12       1.0  0.82184  0.50595  0.63842  1.0000
  H   H13       1.0  0.22724  0.68883  0.33047  1.0000
  H   H14       1.0  0.77276  0.31117  0.66952  1.0000
  H   H15       1.0  0.84385  0.39922  0.26331  1.0000
  H   H16       1.0  0.15615  0.60078  0.73669  1.0000
  H   H17       1.0  0.63169  0.41779  0.34412  1.0000
  H   H18       1.0  0.36831  0.58220  0.65588  1.0000
  C   C1        1.0  0.25551  0.90752  0.18108  1.0000
  C   C2        1.0  0.74450  0.09248  0.81892  1.0000
  C   C3        1.0  0.38174  0.96310  0.08574  1.0000
  C   C4        1.0  0.61826  0.03691  0.91426  1.0000
  C   C5        1.0  0.27609  0.05241  0.99736  1.0000
  C   C6        1.0  0.72391  0.94760  0.00264  1.0000
  C   C7        1.0  0.67778  0.77957  0.51439  1.0000
  C   C8        1.0  0.32223  0.22043  0.48561  1.0000
  C   C9        1.0  0.85040  0.89475  0.50812  1.0000
  C   C10       1.0  0.14961  0.10524  0.49187  1.0000
  C   C11       1.0  0.93434  0.93677  0.59410  1.0000
  C   C12       1.0  0.06566  0.06322  0.40590  1.0000
  C   C13       1.0  0.11718  0.48035  0.13531  1.0000
  C   C14       1.0  0.88280  0.51967  0.86469  1.0000
  C   C15       1.0  0.31956  0.48708  0.06340  1.0000
  C   C16       1.0  0.68043  0.51293  0.93661  1.0000
  C   C17       1.0  0.30821  0.61701  0.97683  1.0000
  C   C18       1.0  0.69178  0.38300  0.02318  1.0000
  N   N1        1.0  0.60569  0.91178  0.08788  1.0000
  N   N2        1.0  0.39431  0.08823  0.91212  1.0000
  N   N3        1.0  0.91721  0.95756  0.41435  1.0000
  N   N4        1.0  0.08280  0.04244  0.58565  1.0000
  N   N5        1.0  0.51393  0.36938  0.08534  1.0000
  N   N6        1.0  0.48606  0.63062  0.91467  1.0000
  O   O1        1.0  0.37579  0.81476  0.25277  1.0000
  O   O2        1.0  0.62422  0.18523  0.74723  1.0000
  O   O3        1.0  0.04482  0.94872  0.18225  1.0000
  O   O4        1.0  0.95519  0.05125  0.81775  1.0000
  O   O5        1.0  0.60651  0.75922  0.43150  1.0000
  O   O6        1.0  0.39349  0.24078  0.56850  1.0000
  O   O7        1.0  0.61464  0.71208  0.60155  1.0000
  O   O8        1.0  0.38536  0.28792  0.39846  1.0000
  O   O9        1.0  0.97848  0.63225  0.13529  1.0000
  O   O10       1.0  0.02148  0.36776  0.86469  1.0000
  O   O11       1.0  0.10064  0.33307  0.18755  1.0000
  O   O12       1.0  0.89934  0.66693  0.81246  1.0000
  O   O13       1.0  0.59997  0.10848  0.25309  1.0000
  O   O14       1.0  0.40003  0.89152  0.74691  1.0000
  O   O15       1.0  0.10499  0.62338  0.35298  1.0000
  O   O16       1.0  0.89501  0.37661  0.64702  1.0000
  O   O17       1.0  0.72625  0.48402  0.29788  1.0000
  O   O18       1.0  0.27375  0.51598  0.70213  1.0000
