data_image0
_chemical_formula_structural       Sm2H18C18N6O18
_chemical_formula_sum              "Sm2 H18 C18 N6 O18"
_cell_length_a       6.1776
_cell_length_b       7.69899
_cell_length_c       13.436
_cell_angle_alpha    81.1777
_cell_angle_beta     85.8823
_cell_angle_gamma    77.0104

_space_group_name_H-M_alt    "P 1"
_space_group_IT_number       1

loop_
  _space_group_symop_operation_xyz
  'x, y, z'

loop_
  _atom_site_type_symbol
  _atom_site_label
  _atom_site_symmetry_multiplicity
  _atom_site_fract_x
  _atom_site_fract_y
  _atom_site_fract_z
  _atom_site_occupancy
  Sm  Sm1       1.0  0.27578  0.29152  0.26841  1.0000
  Sm  Sm2       1.0  0.72422  0.70848  0.73159  1.0000
  H   H1        1.0  0.40210  0.40409  0.00461  1.0000
  H   H2        1.0  0.59789  0.59590  0.99539  1.0000
  H   H3        1.0  0.61931  0.61290  0.33038  1.0000
  H   H4        1.0  0.38071  0.38711  0.66962  1.0000
  H   H5        1.0  0.65303  0.20921  0.95644  1.0000
  H   H6        1.0  0.34697  0.79077  0.04356  1.0000
  H   H7        1.0  0.00638  0.66348  0.30770  1.0000
  H   H8        1.0  0.99363  0.33653  0.69230  1.0000
  H   H9        1.0  0.06107  0.70118  0.19068  1.0000
  H   H10       1.0  0.93895  0.29882  0.80932  1.0000
  H   H11       1.0  0.34732  0.89478  0.26431  1.0000
  H   H12       1.0  0.65268  0.10522  0.73569  1.0000
  H   H13       1.0  0.13572  0.91095  0.34401  1.0000
  H   H14       1.0  0.86428  0.08906  0.65599  1.0000
  H   H15       1.0  0.68385  0.99234  0.36279  1.0000
  H   H16       1.0  0.31616  0.00767  0.63720  1.0000
  H   H17       1.0  0.73052  0.18695  0.33080  1.0000
  H   H18       1.0  0.26947  0.81306  0.66919  1.0000
  C   C1        1.0  0.75755  0.40705  0.18049  1.0000
  C   C2        1.0  0.24244  0.59294  0.81951  1.0000
  C   C3        1.0  0.88309  0.46228  0.08548  1.0000
  C   C4        1.0  0.11692  0.53771  0.91452  1.0000
  C   C5        1.0  0.22251  0.44764  0.00220  1.0000
  C   C6        1.0  0.77749  0.55236  0.99780  1.0000
  C   C7        1.0  0.17722  0.28171  0.51539  1.0000
  C   C8        1.0  0.82278  0.71830  0.48462  1.0000
  C   C9        1.0  0.34986  0.39602  0.50851  1.0000
  C   C10       1.0  0.65015  0.60398  0.49149  1.0000
  C   C11       1.0  0.56645  0.56144  0.40616  1.0000
  C   C12       1.0  0.43356  0.43857  0.59384  1.0000
  C   C13       1.0  0.61965  0.97938  0.13471  1.0000
  C   C14       1.0  0.38033  0.02062  0.86529  1.0000
  C   C15       1.0  0.82087  0.98665  0.06317  1.0000
  C   C16       1.0  0.17912  0.01333  0.93684  1.0000
  C   C17       1.0  0.80935  0.11644  0.97698  1.0000
  C   C18       1.0  0.19064  0.88355  0.02302  1.0000
  N   N1        1.0  0.10553  0.41099  0.08714  1.0000
  N   N2        1.0  0.89449  0.58900  0.91285  1.0000
  N   N3        1.0  0.41758  0.45709  0.41501  1.0000
  N   N4        1.0  0.58243  0.54291  0.58499  1.0000
  N   N5        1.0  0.98599  0.13039  0.91508  1.0000
  N   N6        1.0  0.01400  0.86960  0.08493  1.0000
  O   O1        1.0  0.87623  0.31363  0.25188  1.0000
  O   O2        1.0  0.12379  0.68637  0.74811  1.0000
  O   O3        1.0  0.54840  0.44967  0.18167  1.0000
  O   O4        1.0  0.45159  0.55035  0.81833  1.0000
  O   O5        1.0  0.10567  0.26079  0.43318  1.0000
  O   O6        1.0  0.89432  0.73922  0.56682  1.0000
  O   O7        1.0  0.11479  0.21505  0.60240  1.0000
  O   O8        1.0  0.88521  0.78495  0.39760  1.0000
  O   O9        1.0  0.48147  0.13053  0.13446  1.0000
  O   O10       1.0  0.51853  0.86948  0.86553  1.0000
  O   O11       1.0  0.60344  0.83250  0.18679  1.0000
  O   O12       1.0  0.39653  0.16750  0.81321  1.0000
  O   O13       1.0  0.10029  0.61022  0.25214  1.0000
  O   O14       1.0  0.89972  0.38978  0.74787  1.0000
  O   O15       1.0  0.23203  0.97793  0.30002  1.0000
  O   O16       1.0  0.76797  0.02208  0.69998  1.0000
  O   O17       1.0  0.61023  0.12100  0.35420  1.0000
  O   O18       1.0  0.38977  0.87900  0.64580  1.0000
