data_image0
_chemical_formula_structural       Pr2H18C18N6O18
_chemical_formula_sum              "Pr2 H18 C18 N6 O18"
_cell_length_a       6.24909
_cell_length_b       7.73952
_cell_length_c       13.5603
_cell_angle_alpha    81.2302
_cell_angle_beta     85.6747
_cell_angle_gamma    76.7582

_space_group_name_H-M_alt    "P 1"
_space_group_IT_number       1

loop_
  _space_group_symop_operation_xyz
  'x, y, z'

loop_
  _atom_site_type_symbol
  _atom_site_label
  _atom_site_symmetry_multiplicity
  _atom_site_fract_x
  _atom_site_fract_y
  _atom_site_fract_z
  _atom_site_occupancy
  Pr  Pr1       1.0  0.22230  0.70897  0.23140  1.0000
  Pr  Pr2       1.0  0.77769  0.29103  0.76860  1.0000
  H   H1        1.0  0.89802  0.40332  0.50397  1.0000
  H   H2        1.0  0.10198  0.59669  0.49602  1.0000
  H   H3        1.0  0.11975  0.60935  0.83167  1.0000
  H   H4        1.0  0.88025  0.39065  0.16833  1.0000
  H   H5        1.0  0.43917  0.29415  0.31054  1.0000
  H   H6        1.0  0.56084  0.70585  0.68946  1.0000
  H   H7        1.0  0.49566  0.33283  0.19472  1.0000
  H   H8        1.0  0.50434  0.66716  0.80528  1.0000
  H   H9        1.0  0.80480  0.00891  0.13632  1.0000
  H   H10       1.0  0.19519  0.99109  0.86367  1.0000
  H   H11       1.0  0.76509  0.81319  0.16982  1.0000
  H   H12       1.0  0.23490  0.18681  0.83017  1.0000
  H   H13       1.0  0.35585  0.09934  0.15806  1.0000
  H   H14       1.0  0.64413  0.90067  0.84194  1.0000
  H   H15       1.0  0.14610  0.10999  0.23686  1.0000
  H   H16       1.0  0.85390  0.89001  0.76316  1.0000
  H   H17       1.0  0.84455  0.79343  0.54406  1.0000
  H   H18       1.0  0.15546  0.20656  0.45595  1.0000
  C   C1        1.0  0.74100  0.59110  0.32091  1.0000
  C   C2        1.0  0.25899  0.40890  0.67908  1.0000
  C   C3        1.0  0.61577  0.53740  0.41518  1.0000
  C   C4        1.0  0.38424  0.46261  0.58481  1.0000
  C   C5        1.0  0.72035  0.44730  0.50183  1.0000
  C   C6        1.0  0.27964  0.55271  0.49816  1.0000
  C   C7        1.0  0.32199  0.71456  0.98312  1.0000
  C   C8        1.0  0.67801  0.28545  0.01688  1.0000
  C   C9        1.0  0.15001  0.60205  0.99098  1.0000
  C   C10       1.0  0.84999  0.39795  0.00902  1.0000
  C   C11       1.0  0.06651  0.55951  0.90686  1.0000
  C   C12       1.0  0.93349  0.44050  0.09313  1.0000
  C   C13       1.0  0.87788  0.02206  0.36733  1.0000
  C   C14       1.0  0.12213  0.97793  0.63268  1.0000
  C   C15       1.0  0.67808  0.01407  0.43785  1.0000
  C   C16       1.0  0.32193  0.98593  0.56217  1.0000
  C   C17       1.0  0.68946  0.88508  0.52323  1.0000
  C   C18       1.0  0.31055  0.11491  0.47678  1.0000
  N   N1        1.0  0.39557  0.58881  0.41391  1.0000
  N   N2        1.0  0.60442  0.41120  0.58608  1.0000
  N   N3        1.0  0.08214  0.54270  0.08380  1.0000
  N   N4        1.0  0.91786  0.45731  0.91619  1.0000
  N   N5        1.0  0.48617  0.12949  0.41594  1.0000
  N   N6        1.0  0.51385  0.87051  0.58407  1.0000
  O   O1        1.0  0.62517  0.68219  0.24923  1.0000
  O   O2        1.0  0.37483  0.31780  0.75076  1.0000
  O   O3        1.0  0.94794  0.54916  0.32065  1.0000
  O   O4        1.0  0.05205  0.45084  0.67934  1.0000
  O   O5        1.0  0.39593  0.73434  0.06396  1.0000
  O   O6        1.0  0.60406  0.26566  0.93604  1.0000
  O   O7        1.0  0.38104  0.78140  0.89654  1.0000
  O   O8        1.0  0.61897  0.21860  0.10346  1.0000
  O   O9        1.0  0.01655  0.87206  0.36781  1.0000
  O   O10       1.0  0.98344  0.12792  0.63219  1.0000
  O   O11       1.0  0.89269  0.16831  0.31574  1.0000
  O   O12       1.0  0.10735  0.83169  0.68429  1.0000
  O   O13       1.0  0.39823  0.38361  0.24944  1.0000
  O   O14       1.0  0.60177  0.61639  0.75056  1.0000
  O   O15       1.0  0.88098  0.88125  0.14624  1.0000
  O   O16       1.0  0.11901  0.11875  0.85376  1.0000
  O   O17       1.0  0.25952  0.03034  0.19887  1.0000
  O   O18       1.0  0.74047  0.96966  0.80114  1.0000
