data_image0
_chemical_formula_structural       Mn2Cu2H42C54N10O12
_chemical_formula_sum              "Mn2 Cu2 H42 C54 N10 O12"
_cell_length_a       10.158
_cell_length_b       10.8702
_cell_length_c       12.0233
_cell_angle_alpha    105.099
_cell_angle_beta     97.2919
_cell_angle_gamma    101.685

_space_group_name_H-M_alt    "P 1"
_space_group_IT_number       1

loop_
  _space_group_symop_operation_xyz
  'x, y, z'

loop_
  _atom_site_type_symbol
  _atom_site_label
  _atom_site_symmetry_multiplicity
  _atom_site_fract_x
  _atom_site_fract_y
  _atom_site_fract_z
  _atom_site_occupancy
  Mn  Mn1       1.0  0.31340  0.87936  0.42564  1.0000
  Mn  Mn2       1.0  0.68659  0.12064  0.57435  1.0000
  Cu  Cu1       1.0  0.21602  0.88344  0.97619  1.0000
  Cu  Cu2       1.0  0.78398  0.11656  0.02381  1.0000
  H   H1        1.0  0.20553  0.58489  0.43119  1.0000
  H   H2        1.0  0.79447  0.41511  0.56881  1.0000
  H   H3        1.0  0.35708  0.55653  0.40935  1.0000
  H   H4        1.0  0.64292  0.44348  0.59065  1.0000
  H   H5        1.0  0.50410  0.34813  0.98607  1.0000
  H   H6        1.0  0.49590  0.65187  0.01393  1.0000
  H   H7        1.0  0.65580  0.47599  0.17740  1.0000
  H   H8        1.0  0.34420  0.52401  0.82260  1.0000
  H   H9        1.0  0.66893  0.37222  0.34072  1.0000
  H   H10       1.0  0.33107  0.62778  0.65928  1.0000
  H   H11       1.0  0.52299  0.15496  0.31642  1.0000
  H   H12       1.0  0.47701  0.84503  0.68357  1.0000
  H   H13       1.0  0.35426  0.17846  0.86428  1.0000
  H   H14       1.0  0.64574  0.82153  0.13572  1.0000
  H   H15       1.0  0.18085  0.86934  0.71765  1.0000
  H   H16       1.0  0.81915  0.13066  0.28236  1.0000
  H   H17       1.0  0.20848  0.03675  0.72096  1.0000
  H   H18       1.0  0.79152  0.96325  0.27905  1.0000
  H   H19       1.0  0.96578  0.96073  0.69557  1.0000
  H   H20       1.0  0.03422  0.03928  0.30444  1.0000
  H   H21       1.0  0.02164  0.05773  0.84223  1.0000
  H   H22       1.0  0.97837  0.94227  0.15778  1.0000
  H   H23       1.0  0.88857  0.88591  0.88551  1.0000
  H   H24       1.0  0.11143  0.11408  0.11448  1.0000
  H   H25       1.0  0.87472  0.77570  0.74501  1.0000
  H   H26       1.0  0.12529  0.22429  0.25499  1.0000
  H   H27       1.0  0.92074  0.60267  0.76633  1.0000
  H   H28       1.0  0.07927  0.39733  0.23367  1.0000
  H   H29       1.0  0.29001  0.54700  0.12021  1.0000
  H   H30       1.0  0.71000  0.45300  0.87980  1.0000
  H   H31       1.0  0.23133  0.31568  0.99923  1.0000
  H   H32       1.0  0.76867  0.68433  0.00077  1.0000
  H   H33       1.0  0.07496  0.24414  0.80099  1.0000
  H   H34       1.0  0.92504  0.75586  0.19902  1.0000
  H   H35       1.0  0.97206  0.40679  0.73636  1.0000
  H   H36       1.0  0.02793  0.59321  0.26364  1.0000
  H   H37       1.0  0.15090  0.10718  0.57463  1.0000
  H   H38       1.0  0.84909  0.89280  0.42535  1.0000
  H   H39       1.0  0.01880  0.41008  0.45583  1.0000
  H   H40       1.0  0.98120  0.58992  0.54417  1.0000
  H   H41       1.0  0.43574  0.37586  0.45926  1.0000
  H   H42       1.0  0.56426  0.62414  0.54074  1.0000
  C   C1        1.0  0.32495  0.94465  0.20737  1.0000
  C   C2        1.0  0.67506  0.05535  0.79263  1.0000
  C   C3        1.0  0.42630  0.12359  0.13705  1.0000
  C   C4        1.0  0.57371  0.87641  0.86295  1.0000
  C   C5        1.0  0.42479  0.17906  0.04128  1.0000
  C   C6        1.0  0.57522  0.82094  0.95872  1.0000
  C   C7        1.0  0.50775  0.30635  0.05938  1.0000
  C   C8        1.0  0.49225  0.69365  0.94062  1.0000
  C   C9        1.0  0.59302  0.37799  0.16586  1.0000
  C   C10       1.0  0.40698  0.62201  0.83414  1.0000
  C   C11       1.0  0.59960  0.32023  0.25708  1.0000
  C   C12       1.0  0.40039  0.67976  0.74292  1.0000
  C   C13       1.0  0.51765  0.19628  0.24345  1.0000
  C   C14       1.0  0.48235  0.80372  0.75655  1.0000
  C   C15       1.0  0.34274  0.11780  0.92463  1.0000
  C   C16       1.0  0.65726  0.88220  0.07538  1.0000
  C   C17       1.0  0.17172  0.96634  0.76818  1.0000
  C   C18       1.0  0.82829  0.03366  0.23183  1.0000
  C   C19       1.0  0.02294  0.96371  0.78041  1.0000
  C   C20       1.0  0.97706  0.03629  0.21959  1.0000
  C   C21       1.0  0.94831  0.84839  0.81966  1.0000
  C   C22       1.0  0.05170  0.15161  0.18033  1.0000
  C   C23       1.0  0.00927  0.65474  0.83819  1.0000
  C   C24       1.0  0.99073  0.34526  0.16181  1.0000
  C   C25       1.0  0.07930  0.57050  0.88517  1.0000
  C   C26       1.0  0.92071  0.42950  0.11483  1.0000
  C   C27       1.0  0.17195  0.61208  0.99478  1.0000
  C   C28       1.0  0.82806  0.38792  0.00522  1.0000
  C   C29       1.0  0.22348  0.51692  0.03451  1.0000
  C   C30       1.0  0.77652  0.48308  0.96550  1.0000
  C   C31       1.0  0.18954  0.38648  0.96559  1.0000
  C   C32       1.0  0.81046  0.61352  0.03441  1.0000
  C   C33       1.0  0.10201  0.34578  0.85606  1.0000
  C   C34       1.0  0.89798  0.65421  0.14395  1.0000
  C   C35       1.0  0.04589  0.43746  0.81834  1.0000
  C   C36       1.0  0.95412  0.56254  0.18166  1.0000
  C   C37       1.0  0.26131  0.79741  0.16920  1.0000
  C   C38       1.0  0.73869  0.20259  0.83080  1.0000
  C   C39       1.0  0.30536  0.23695  0.52205  1.0000
  C   C40       1.0  0.69463  0.76304  0.47794  1.0000
  C   C41       1.0  0.17502  0.19311  0.54403  1.0000
  C   C42       1.0  0.82498  0.80688  0.45596  1.0000
  C   C43       1.0  0.07305  0.25715  0.52122  1.0000
  C   C44       1.0  0.92695  0.74285  0.47877  1.0000
  C   C45       1.0  0.10104  0.36431  0.47670  1.0000
  C   C46       1.0  0.89895  0.63569  0.52330  1.0000
  C   C47       1.0  0.23292  0.41121  0.45577  1.0000
  C   C48       1.0  0.76707  0.58879  0.54422  1.0000
  C   C49       1.0  0.33435  0.34527  0.47879  1.0000
  C   C50       1.0  0.66565  0.65473  0.52121  1.0000
  C   C51       1.0  0.41274  0.16572  0.54277  1.0000
  C   C52       1.0  0.58725  0.83428  0.45721  1.0000
  C   C53       1.0  0.93383  0.20609  0.54259  1.0000
  C   C54       1.0  0.06616  0.79390  0.45741  1.0000
  N   N1        1.0  0.34406  0.99916  0.12111  1.0000
  N   N2        1.0  0.65594  0.00085  0.87889  1.0000
  N   N3        1.0  0.25752  0.00337  0.88476  1.0000
  N   N4        1.0  0.74249  0.99663  0.11524  1.0000
  N   N5        1.0  0.03915  0.78211  0.87327  1.0000
  N   N6        1.0  0.96085  0.21789  0.12673  1.0000
  N   N7        1.0  0.21518  0.74493  0.05450  1.0000
  N   N8        1.0  0.78483  0.25507  0.94550  1.0000
  N   N9        1.0  0.25746  0.51363  0.40679  1.0000
  N   N10       1.0  0.74254  0.48636  0.59321  1.0000
  O   O1        1.0  0.35582  0.99997  0.31676  1.0000
  O   O2        1.0  0.64418  0.00003  0.68324  1.0000
  O   O3        1.0  0.26176  0.74153  0.24949  1.0000
  O   O4        1.0  0.73824  0.25847  0.75052  1.0000
  O   O5        1.0  0.37778  0.05344  0.56131  1.0000
  O   O6        1.0  0.62222  0.94657  0.43868  1.0000
  O   O7        1.0  0.53593  0.22023  0.54132  1.0000
  O   O8        1.0  0.46407  0.77979  0.45868  1.0000
  O   O9        1.0  0.91576  0.12058  0.59736  1.0000
  O   O10       1.0  0.08424  0.87941  0.40263  1.0000
  O   O11       1.0  0.83211  0.24836  0.50436  1.0000
  O   O12       1.0  0.16788  0.75163  0.49564  1.0000
