data_image0
_chemical_formula_structural       Ag6H24C42N6O6
_chemical_formula_sum              "Ag6 H24 C42 N6 O6"
_cell_length_a       7.2549
_cell_length_b       10.9299
_cell_length_c       13.2578
_cell_angle_alpha    113.746
_cell_angle_beta     105.024
_cell_angle_gamma    91.9745

_space_group_name_H-M_alt    "P 1"
_space_group_IT_number       1

loop_
  _space_group_symop_operation_xyz
  'x, y, z'

loop_
  _atom_site_type_symbol
  _atom_site_label
  _atom_site_symmetry_multiplicity
  _atom_site_fract_x
  _atom_site_fract_y
  _atom_site_fract_z
  _atom_site_occupancy
  Ag  Ag1       1.0  0.72560  0.93835  0.32657  1.0000
  Ag  Ag2       1.0  0.89885  0.61159  0.67350  1.0000
  Ag  Ag3       1.0  0.94310  0.63566  0.16099  1.0000
  Ag  Ag4       1.0  0.28201  0.47462  0.83892  1.0000
  Ag  Ag5       1.0  0.63138  0.80170  0.99575  1.0000
  Ag  Ag6       1.0  0.13573  0.80569  0.00426  1.0000
  H   H1        1.0  0.13339  0.59799  0.35303  1.0000
  H   H2        1.0  0.28040  0.24497  0.64693  1.0000
  H   H3        1.0  0.29237  0.58312  0.53629  1.0000
  H   H4        1.0  0.25606  0.04672  0.46361  1.0000
  H   H5        1.0  0.11897  0.96156  0.72649  1.0000
  H   H6        1.0  0.89283  0.23518  0.27346  1.0000
  H   H7        1.0  0.96252  0.97695  0.54336  1.0000
  H   H8        1.0  0.91961  0.43373  0.45660  1.0000
  H   H9        1.0  0.01478  0.42807  0.96063  1.0000
  H   H10       1.0  0.55469  0.46752  0.03918  1.0000
  H   H11       1.0  0.96082  0.22027  0.77916  1.0000
  H   H12       1.0  0.68217  0.44101  0.22055  1.0000
  H   H13       1.0  0.54406  0.39176  0.59753  1.0000
  H   H14       1.0  0.44670  0.79394  0.40233  1.0000
  H   H15       1.0  0.59886  0.59979  0.77937  1.0000
  H   H16       1.0  0.31983  0.82032  0.22060  1.0000
  H   H17       1.0  0.40733  0.98955  0.97492  1.0000
  H   H18       1.0  0.93260  0.01472  0.02528  1.0000
  H   H19       1.0  0.19674  0.16203  0.97140  1.0000
  H   H20       1.0  0.72565  0.19071  0.02877  1.0000
  H   H21       1.0  0.36030  0.34347  0.34442  1.0000
  H   H22       1.0  0.51594  0.99914  0.65579  1.0000
  H   H23       1.0  0.57209  0.17198  0.34751  1.0000
  H   H24       1.0  0.72433  0.82446  0.65275  1.0000
  C   C1        1.0  0.03814  0.78968  0.43380  1.0000
  C   C2        1.0  0.10444  0.35585  0.56614  1.0000
  C   C3        1.0  0.13230  0.67784  0.43513  1.0000
  C   C4        1.0  0.19723  0.24267  0.56480  1.0000
  C   C5        1.0  0.22043  0.66916  0.53717  1.0000
  C   C6        1.0  0.18331  0.13196  0.46277  1.0000
  C   C7        1.0  0.21692  0.77143  0.64390  1.0000
  C   C8        1.0  0.07313  0.12753  0.35607  1.0000
  C   C9        1.0  0.12297  0.88291  0.64451  1.0000
  C   C10       1.0  0.97874  0.23848  0.35545  1.0000
  C   C11       1.0  0.03578  0.89140  0.54239  1.0000
  C   C12       1.0  0.99368  0.34907  0.45756  1.0000
  C   C13       1.0  0.31278  0.76510  0.74809  1.0000
  C   C14       1.0  0.06467  0.01696  0.25187  1.0000
  C   C15       1.0  0.80932  0.52917  0.88443  1.0000
  C   C16       1.0  0.42529  0.64470  0.11547  1.0000
  C   C17       1.0  0.91481  0.42037  0.88047  1.0000
  C   C18       1.0  0.53485  0.53988  0.11934  1.0000
  C   C19       1.0  0.88254  0.30368  0.77936  1.0000
  C   C20       1.0  0.60358  0.52419  0.22044  1.0000
  C   C21       1.0  0.74673  0.29102  0.67623  1.0000
  C   C22       1.0  0.57071  0.61452  0.32356  1.0000
  C   C23       1.0  0.64824  0.40057  0.67678  1.0000
  C   C24       1.0  0.47167  0.72353  0.32308  1.0000
  C   C25       1.0  0.67954  0.51719  0.77823  1.0000
  C   C26       1.0  0.40162  0.73881  0.22167  1.0000
  C   C27       1.0  0.70788  0.17129  0.57415  1.0000
  C   C28       1.0  0.63399  0.59695  0.42569  1.0000
  C   C29       1.0  0.50530  0.06646  0.16147  1.0000
  C   C30       1.0  0.84379  0.90493  0.83869  1.0000
  C   C31       1.0  0.39506  0.06652  0.05543  1.0000
  C   C32       1.0  0.83982  0.01117  0.94476  1.0000
  C   C33       1.0  0.27842  0.16333  0.05340  1.0000
  C   C34       1.0  0.72525  0.11000  0.94676  1.0000
  C   C35       1.0  0.26288  0.26409  0.15755  1.0000
  C   C36       1.0  0.60551  0.10677  0.84270  1.0000
  C   C37       1.0  0.37167  0.26616  0.26374  1.0000
  C   C38       1.0  0.60796  0.00254  0.73649  1.0000
  C   C39       1.0  0.49009  0.17053  0.26549  1.0000
  C   C40       1.0  0.72445  0.90505  0.73474  1.0000
  C   C41       1.0  0.14088  0.36052  0.15504  1.0000
  C   C42       1.0  0.48602  0.20571  0.84521  1.0000
  N   N1        1.0  0.39525  0.76035  0.83474  1.0000
  N   N2        1.0  0.06040  0.92547  0.16523  1.0000
  N   N3        1.0  0.66969  0.07039  0.48929  1.0000
  N   N4        1.0  0.68071  0.58125  0.51072  1.0000
  N   N5        1.0  0.03603  0.43913  0.15180  1.0000
  N   N6        1.0  0.38427  0.28746  0.84832  1.0000
  O   O1        1.0  0.95864  0.80008  0.33714  1.0000
  O   O2        1.0  0.12146  0.46286  0.66280  1.0000
  O   O3        1.0  0.83031  0.63637  0.98157  1.0000
  O   O4        1.0  0.34910  0.65476  0.01831  1.0000
  O   O5        1.0  0.61699  0.97485  0.16318  1.0000
  O   O6        1.0  0.95359  0.81150  0.83690  1.0000
