data_image0
_chemical_formula_structural       H48Pb4C56O20
_chemical_formula_sum              "H48 Pb4 C56 O20"
_cell_length_a       7.4515
_cell_length_b       11.3806
_cell_length_c       15.411
_cell_angle_alpha    91.2868
_cell_angle_beta     90
_cell_angle_gamma    90

_space_group_name_H-M_alt    "P 1"
_space_group_IT_number       1

loop_
  _space_group_symop_operation_xyz
  'x, y, z'

loop_
  _atom_site_type_symbol
  _atom_site_label
  _atom_site_symmetry_multiplicity
  _atom_site_fract_x
  _atom_site_fract_y
  _atom_site_fract_z
  _atom_site_occupancy
  H   H1        1.0  0.41579  0.57233  0.54650  1.0000
  H   H2        1.0  0.91580  0.92770  0.45349  1.0000
  H   H3        1.0  0.58423  0.42769  0.45350  1.0000
  H   H4        1.0  0.08425  0.07232  0.54651  1.0000
  H   H5        1.0  0.37859  0.54609  0.44497  1.0000
  H   H6        1.0  0.87858  0.95393  0.55502  1.0000
  H   H7        1.0  0.62141  0.45393  0.55503  1.0000
  H   H8        1.0  0.12144  0.04610  0.44497  1.0000
  H   H9        1.0  0.69102  0.71643  0.24114  1.0000
  H   H10       1.0  0.19102  0.78356  0.75886  1.0000
  H   H11       1.0  0.30897  0.28357  0.75887  1.0000
  H   H12       1.0  0.80898  0.21643  0.24114  1.0000
  H   H13       1.0  0.65767  0.67249  0.08309  1.0000
  H   H14       1.0  0.15767  0.82750  0.91691  1.0000
  H   H15       1.0  0.34231  0.32751  0.91692  1.0000
  H   H16       1.0  0.84233  0.17249  0.08309  1.0000
  H   H17       1.0  0.80846  0.49769  0.01625  1.0000
  H   H18       1.0  0.30846  0.00230  0.98375  1.0000
  H   H19       1.0  0.19153  0.50231  0.98375  1.0000
  H   H20       1.0  0.69153  0.99770  0.01625  1.0000
  H   H21       1.0  0.98297  0.36167  0.11013  1.0000
  H   H22       1.0  0.48298  0.13832  0.88987  1.0000
  H   H23       1.0  0.01702  0.63833  0.88987  1.0000
  H   H24       1.0  0.51702  0.86168  0.11013  1.0000
  H   H25       1.0  0.01040  0.40557  0.26784  1.0000
  H   H26       1.0  0.51041  0.09442  0.73217  1.0000
  H   H27       1.0  0.98959  0.59442  0.73217  1.0000
  H   H28       1.0  0.48960  0.90557  0.26784  1.0000
  H   H29       1.0  0.98546  0.95846  0.20624  1.0000
  H   H30       1.0  0.48546  0.54154  0.79375  1.0000
  H   H31       1.0  0.01454  0.04155  0.79376  1.0000
  H   H32       1.0  0.51453  0.45846  0.20624  1.0000
  H   H33       1.0  0.01596  0.88685  0.05254  1.0000
  H   H34       1.0  0.51594  0.61314  0.94746  1.0000
  H   H35       1.0  0.98404  0.11315  0.94746  1.0000
  H   H36       1.0  0.48404  0.38686  0.05254  1.0000
  H   H37       1.0  0.19221  0.70451  0.01944  1.0000
  H   H38       1.0  0.69220  0.79548  0.98055  1.0000
  H   H39       1.0  0.80776  0.29549  0.98056  1.0000
  H   H40       1.0  0.30779  0.20451  0.01944  1.0000
  H   H41       1.0  0.33056  0.59384  0.13937  1.0000
  H   H42       1.0  0.83057  0.90615  0.86063  1.0000
  H   H43       1.0  0.66941  0.40615  0.86063  1.0000
  H   H44       1.0  0.16943  0.09384  0.13938  1.0000
  H   H45       1.0  0.30159  0.66725  0.29171  1.0000
  H   H46       1.0  0.80159  0.83274  0.70829  1.0000
  H   H47       1.0  0.69840  0.33275  0.70830  1.0000
  H   H48       1.0  0.19841  0.16725  0.29171  1.0000
  Pb  Pb1       1.0  0.03308  0.68768  0.52643  1.0000
  Pb  Pb2       1.0  0.53307  0.81234  0.47357  1.0000
  Pb  Pb3       1.0  0.96700  0.31232  0.47356  1.0000
  Pb  Pb4       1.0  0.46699  0.18770  0.52644  1.0000
  C   C1        1.0  0.85033  0.56280  0.26418  1.0000
  C   C2        1.0  0.35034  0.93720  0.73582  1.0000
  C   C3        1.0  0.14966  0.43720  0.73582  1.0000
  C   C4        1.0  0.64966  0.06279  0.26419  1.0000
  C   C5        1.0  0.75080  0.63779  0.21187  1.0000
  C   C6        1.0  0.25080  0.86221  0.78813  1.0000
  C   C7        1.0  0.24919  0.36221  0.78814  1.0000
  C   C8        1.0  0.74920  0.13779  0.21187  1.0000
  C   C9        1.0  0.73410  0.61309  0.12336  1.0000
  C   C10       1.0  0.23410  0.88691  0.87664  1.0000
  C   C11       1.0  0.26589  0.38690  0.87664  1.0000
  C   C12       1.0  0.76590  0.11309  0.12336  1.0000
  C   C13       1.0  0.81757  0.51423  0.08612  1.0000
  C   C14       1.0  0.31757  0.98577  0.91388  1.0000
  C   C15       1.0  0.18242  0.48577  0.91388  1.0000
  C   C16       1.0  0.68242  0.01423  0.08613  1.0000
  C   C17       1.0  0.91514  0.43831  0.13836  1.0000
  C   C18       1.0  0.41514  0.06169  0.86164  1.0000
  C   C19       1.0  0.08485  0.56169  0.86164  1.0000
  C   C20       1.0  0.58486  0.93831  0.13836  1.0000
  C   C21       1.0  0.93064  0.46239  0.22709  1.0000
  C   C22       1.0  0.43065  0.03761  0.77292  1.0000
  C   C23       1.0  0.06935  0.53761  0.77292  1.0000
  C   C24       1.0  0.56936  0.96239  0.22709  1.0000
  C   C25       1.0  0.88257  0.59567  0.35712  1.0000
  C   C26       1.0  0.38258  0.90434  0.64288  1.0000
  C   C27       1.0  0.11744  0.40433  0.64288  1.0000
  C   C28       1.0  0.61743  0.09567  0.35712  1.0000
  C   C29       1.0  0.14559  0.81954  0.25758  1.0000
  C   C30       1.0  0.64559  0.68045  0.74241  1.0000
  C   C31       1.0  0.85440  0.18046  0.74242  1.0000
  C   C32       1.0  0.35441  0.31954  0.25759  1.0000
  C   C33       1.0  0.06363  0.88018  0.19011  1.0000
  C   C34       1.0  0.56363  0.61981  0.80989  1.0000
  C   C35       1.0  0.93636  0.11982  0.80989  1.0000
  C   C36       1.0  0.43637  0.38018  0.19011  1.0000
  C   C37       1.0  0.08081  0.83937  0.10465  1.0000
  C   C38       1.0  0.58081  0.66062  0.89534  1.0000
  C   C39       1.0  0.91918  0.16064  0.89535  1.0000
  C   C40       1.0  0.41918  0.33937  0.10465  1.0000
  C   C41       1.0  0.17848  0.73700  0.08617  1.0000
  C   C42       1.0  0.67848  0.76299  0.91382  1.0000
  C   C43       1.0  0.82150  0.26300  0.91382  1.0000
  C   C44       1.0  0.32151  0.23700  0.08618  1.0000
  C   C45       1.0  0.25793  0.67511  0.15333  1.0000
  C   C46       1.0  0.75793  0.82488  0.84667  1.0000
  C   C47       1.0  0.74205  0.32489  0.84667  1.0000
  C   C48       1.0  0.24207  0.17512  0.15333  1.0000
  C   C49       1.0  0.24198  0.71614  0.23890  1.0000
  C   C50       1.0  0.74198  0.78385  0.76110  1.0000
  C   C51       1.0  0.75801  0.28386  0.76110  1.0000
  C   C52       1.0  0.25802  0.21614  0.23890  1.0000
  C   C53       1.0  0.12746  0.86431  0.34915  1.0000
  C   C54       1.0  0.62747  0.63568  0.65085  1.0000
  C   C55       1.0  0.87253  0.13567  0.65085  1.0000
  C   C56       1.0  0.37254  0.36432  0.34915  1.0000
  O   O1        1.0  0.35481  0.60332  0.49396  1.0000
  O   O2        1.0  0.85483  0.89669  0.50603  1.0000
  O   O3        1.0  0.64519  0.39670  0.50604  1.0000
  O   O4        1.0  0.14520  0.10333  0.49397  1.0000
  O   O5        1.0  0.81604  0.69100  0.38797  1.0000
  O   O6        1.0  0.31603  0.80901  0.61202  1.0000
  O   O7        1.0  0.18398  0.30901  0.61202  1.0000
  O   O8        1.0  0.68396  0.19100  0.38798  1.0000
  O   O9        1.0  0.98653  0.53108  0.40237  1.0000
  O   O10       1.0  0.48654  0.96892  0.59763  1.0000
  O   O11       1.0  0.01348  0.46892  0.59762  1.0000
  O   O12       1.0  0.51349  0.03108  0.40238  1.0000
  O   O13       1.0  0.03974  0.95870  0.36386  1.0000
  O   O14       1.0  0.53976  0.54129  0.63614  1.0000
  O   O15       1.0  0.96023  0.04128  0.63615  1.0000
  O   O16       1.0  0.46027  0.45871  0.36385  1.0000
  O   O17       1.0  0.20162  0.80400  0.40886  1.0000
  O   O18       1.0  0.70163  0.69600  0.59114  1.0000
  O   O19       1.0  0.79840  0.19600  0.59114  1.0000
  O   O20       1.0  0.29839  0.30400  0.40886  1.0000
