data_image0
_chemical_formula_structural       Er4Ag4H24C48N16O32
_chemical_formula_sum              "Er4 Ag4 H24 C48 N16 O32"
_cell_length_a       8.03235
_cell_length_b       10.0334
_cell_length_c       18.3968
_cell_angle_alpha    90
_cell_angle_beta     90
_cell_angle_gamma    95.4018

_space_group_name_H-M_alt    "P 1"
_space_group_IT_number       1

loop_
  _space_group_symop_operation_xyz
  'x, y, z'

loop_
  _atom_site_type_symbol
  _atom_site_label
  _atom_site_symmetry_multiplicity
  _atom_site_fract_x
  _atom_site_fract_y
  _atom_site_fract_z
  _atom_site_occupancy
  Er  Er1       1.0  0.24279  0.36130  0.10645  1.0000
  Er  Er2       1.0  0.25721  0.63870  0.60645  1.0000
  Er  Er3       1.0  0.75721  0.63870  0.89355  1.0000
  Er  Er4       1.0  0.74279  0.36130  0.39355  1.0000
  Ag  Ag1       1.0  0.89581  0.85213  0.07302  1.0000
  Ag  Ag2       1.0  0.60420  0.14787  0.57302  1.0000
  Ag  Ag3       1.0  0.10420  0.14787  0.92698  1.0000
  Ag  Ag4       1.0  0.39580  0.85212  0.42698  1.0000
  H   H1        1.0  0.38133  0.55544  0.38185  1.0000
  H   H2        1.0  0.11866  0.44455  0.88185  1.0000
  H   H3        1.0  0.61866  0.44455  0.61815  1.0000
  H   H4        1.0  0.88134  0.55545  0.11815  1.0000
  H   H5        1.0  0.23089  0.86610  0.25630  1.0000
  H   H6        1.0  0.26912  0.13390  0.75629  1.0000
  H   H7        1.0  0.76911  0.13389  0.74370  1.0000
  H   H8        1.0  0.73089  0.86611  0.24371  1.0000
  H   H9        1.0  0.19512  0.70941  0.14833  1.0000
  H   H10       1.0  0.30488  0.29059  0.64833  1.0000
  H   H11       1.0  0.80488  0.29058  0.85167  1.0000
  H   H12       1.0  0.69512  0.70941  0.35168  1.0000
  H   H13       1.0  0.48273  0.85988  0.08461  1.0000
  H   H14       1.0  0.01727  0.14012  0.58460  1.0000
  H   H15       1.0  0.51727  0.14012  0.91540  1.0000
  H   H16       1.0  0.98273  0.85988  0.41539  1.0000
  H   H17       1.0  0.88654  0.15248  0.08487  1.0000
  H   H18       1.0  0.61346  0.84752  0.58487  1.0000
  H   H19       1.0  0.11346  0.84752  0.91514  1.0000
  H   H20       1.0  0.38654  0.15247  0.41513  1.0000
  H   H21       1.0  0.68661  0.33164  0.09347  1.0000
  H   H22       1.0  0.81339  0.66836  0.59347  1.0000
  H   H23       1.0  0.31339  0.66836  0.90653  1.0000
  H   H24       1.0  0.18661  0.33164  0.40653  1.0000
  C   C1        1.0  0.40211  0.37260  0.27074  1.0000
  C   C2        1.0  0.09789  0.62740  0.77074  1.0000
  C   C3        1.0  0.59789  0.62740  0.72926  1.0000
  C   C4        1.0  0.90210  0.37260  0.22926  1.0000
  C   C5        1.0  0.33683  0.50872  0.26892  1.0000
  C   C6        1.0  0.16317  0.49128  0.76892  1.0000
  C   C7        1.0  0.66317  0.49128  0.73108  1.0000
  C   C8        1.0  0.83683  0.50872  0.23108  1.0000
  C   C9        1.0  0.34344  0.59193  0.32952  1.0000
  C   C10       1.0  0.15656  0.40806  0.82952  1.0000
  C   C11       1.0  0.65656  0.40806  0.67048  1.0000
  C   C12       1.0  0.84344  0.59194  0.17048  1.0000
  C   C13       1.0  0.25695  0.76158  0.26063  1.0000
  C   C14       1.0  0.24305  0.23842  0.76063  1.0000
  C   C15       1.0  0.74305  0.23841  0.73937  1.0000
  C   C16       1.0  0.75695  0.76158  0.23937  1.0000
  C   C17       1.0  0.23811  0.67570  0.20076  1.0000
  C   C18       1.0  0.26189  0.32430  0.70076  1.0000
  C   C19       1.0  0.76189  0.32430  0.79924  1.0000
  C   C20       1.0  0.73811  0.67570  0.29923  1.0000
  C   C21       1.0  0.23340  0.03437  0.09343  1.0000
  C   C22       1.0  0.26660  0.96563  0.59343  1.0000
  C   C23       1.0  0.76660  0.96563  0.90658  1.0000
  C   C24       1.0  0.73340  0.03438  0.40657  1.0000
  C   C25       1.0  0.42024  0.06502  0.09247  1.0000
  C   C26       1.0  0.07977  0.93498  0.59247  1.0000
  C   C27       1.0  0.57976  0.93498  0.90753  1.0000
  C   C28       1.0  0.92024  0.06502  0.40752  1.0000
  C   C29       1.0  0.52972  0.96536  0.08726  1.0000
  C   C30       1.0  0.97028  0.03464  0.58725  1.0000
  C   C31       1.0  0.47028  0.03464  0.91275  1.0000
  C   C32       1.0  0.02972  0.96536  0.41274  1.0000
  C   C33       1.0  0.75198  0.12741  0.08665  1.0000
  C   C34       1.0  0.74803  0.87259  0.58665  1.0000
  C   C35       1.0  0.24803  0.87259  0.91335  1.0000
  C   C36       1.0  0.25197  0.12741  0.41335  1.0000
  C   C37       1.0  0.64138  0.22613  0.09151  1.0000
  C   C38       1.0  0.85862  0.77387  0.59151  1.0000
  C   C39       1.0  0.35862  0.77387  0.90849  1.0000
  C   C40       1.0  0.14138  0.22613  0.40848  1.0000
  C   C41       1.0  0.95661  0.43153  0.98805  1.0000
  C   C42       1.0  0.54340  0.56848  0.48804  1.0000
  C   C43       1.0  0.04339  0.56848  0.01196  1.0000
  C   C44       1.0  0.45661  0.43153  0.51195  1.0000
  C   C45       1.0  0.54306  0.53926  0.03220  1.0000
  C   C46       1.0  0.95693  0.46073  0.53220  1.0000
  C   C47       1.0  0.45693  0.46074  0.96780  1.0000
  C   C48       1.0  0.04307  0.53927  0.46780  1.0000
  N   N1        1.0  0.27654  0.54872  0.20528  1.0000
  N   N2        1.0  0.22346  0.45128  0.70528  1.0000
  N   N3        1.0  0.72346  0.45128  0.79472  1.0000
  N   N4        1.0  0.77654  0.54872  0.29472  1.0000
  N   N5        1.0  0.30535  0.71860  0.32562  1.0000
  N   N6        1.0  0.19465  0.28139  0.82561  1.0000
  N   N7        1.0  0.69465  0.28139  0.67439  1.0000
  N   N8        1.0  0.80535  0.71861  0.17439  1.0000
  N   N9        1.0  0.47613  0.19568  0.09351  1.0000
  N   N10       1.0  0.02387  0.80432  0.59351  1.0000
  N   N11       1.0  0.52387  0.80432  0.90650  1.0000
  N   N12       1.0  0.97613  0.19568  0.40648  1.0000
  N   N13       1.0  0.69587  0.99711  0.08338  1.0000
  N   N14       1.0  0.80413  0.00289  0.58338  1.0000
  N   N15       1.0  0.30413  0.00289  0.91662  1.0000
  N   N16       1.0  0.19587  0.99711  0.41661  1.0000
  O   O1        1.0  0.35846  0.29553  0.21822  1.0000
  O   O2        1.0  0.14153  0.70447  0.71822  1.0000
  O   O3        1.0  0.64153  0.70447  0.78178  1.0000
  O   O4        1.0  0.85846  0.29553  0.28178  1.0000
  O   O5        1.0  0.49631  0.34792  0.32344  1.0000
  O   O6        1.0  0.00369  0.65208  0.82344  1.0000
  O   O7        1.0  0.50369  0.65208  0.67656  1.0000
  O   O8        1.0  0.99630  0.34792  0.17656  1.0000
  O   O9        1.0  0.17677  0.91292  0.09141  1.0000
  O   O10       1.0  0.32323  0.08709  0.59141  1.0000
  O   O11       1.0  0.82323  0.08708  0.90859  1.0000
  O   O12       1.0  0.67677  0.91292  0.40858  1.0000
  O   O13       1.0  0.14875  0.13574  0.09423  1.0000
  O   O14       1.0  0.35126  0.86426  0.59424  1.0000
  O   O15       1.0  0.85125  0.86425  0.90577  1.0000
  O   O16       1.0  0.64875  0.13575  0.40577  1.0000
  O   O17       1.0  0.01279  0.32899  0.01561  1.0000
  O   O18       1.0  0.48722  0.67102  0.51561  1.0000
  O   O19       1.0  0.98721  0.67102  0.98440  1.0000
  O   O20       1.0  0.51279  0.32899  0.48439  1.0000
  O   O21       1.0  0.49718  0.50192  0.09551  1.0000
  O   O22       1.0  0.00282  0.49807  0.59551  1.0000
  O   O23       1.0  0.50282  0.49808  0.90449  1.0000
  O   O24       1.0  0.99717  0.50192  0.40449  1.0000
  O   O25       1.0  0.83874  0.43392  0.94252  1.0000
  O   O26       1.0  0.66127  0.56609  0.44252  1.0000
  O   O27       1.0  0.16127  0.56609  0.05748  1.0000
  O   O28       1.0  0.33874  0.43392  0.55748  1.0000
  O   O29       1.0  0.65344  0.63298  0.01581  1.0000
  O   O30       1.0  0.84656  0.36702  0.51580  1.0000
  O   O31       1.0  0.34655  0.36703  0.98420  1.0000
  O   O32       1.0  0.15344  0.63298  0.48420  1.0000
