data_image0
_chemical_formula_structural       Cu16H40C32N8Cl16
_chemical_formula_sum              "Cu16 H40 C32 N8 Cl16"
_cell_length_a       6.80781
_cell_length_b       13.1734
_cell_length_c       15.365
_cell_angle_alpha    90
_cell_angle_beta     90
_cell_angle_gamma    90

_space_group_name_H-M_alt    "P 1"
_space_group_IT_number       1

loop_
  _space_group_symop_operation_xyz
  'x, y, z'

loop_
  _atom_site_type_symbol
  _atom_site_label
  _atom_site_symmetry_multiplicity
  _atom_site_fract_x
  _atom_site_fract_y
  _atom_site_fract_z
  _atom_site_occupancy
  Cu  Cu1       1.0  0.82387  0.79659  0.91147  1.0000
  Cu  Cu2       1.0  0.32387  0.79660  0.58852  1.0000
  Cu  Cu3       1.0  0.82388  0.70340  0.41149  1.0000
  Cu  Cu4       1.0  0.32388  0.70340  0.08851  1.0000
  Cu  Cu5       1.0  0.17612  0.20340  0.08852  1.0000
  Cu  Cu6       1.0  0.67613  0.20340  0.41148  1.0000
  Cu  Cu7       1.0  0.17613  0.29660  0.58852  1.0000
  Cu  Cu8       1.0  0.67613  0.29660  0.91148  1.0000
  Cu  Cu9       1.0  0.76730  0.04721  0.05184  1.0000
  Cu  Cu10      1.0  0.26730  0.04722  0.44815  1.0000
  Cu  Cu11      1.0  0.76730  0.45278  0.55184  1.0000
  Cu  Cu12      1.0  0.26729  0.45278  0.94816  1.0000
  Cu  Cu13      1.0  0.23269  0.95279  0.94816  1.0000
  Cu  Cu14      1.0  0.73270  0.95278  0.55184  1.0000
  Cu  Cu15      1.0  0.23270  0.54722  0.44816  1.0000
  Cu  Cu16      1.0  0.73269  0.54721  0.05184  1.0000
  H   H1        1.0  0.02315  0.57972  0.67113  1.0000
  H   H2        1.0  0.52313  0.57972  0.82887  1.0000
  H   H3        1.0  0.02314  0.92027  0.17112  1.0000
  H   H4        1.0  0.52314  0.92029  0.32887  1.0000
  H   H5        1.0  0.97688  0.42027  0.32887  1.0000
  H   H6        1.0  0.47685  0.42027  0.17112  1.0000
  H   H7        1.0  0.97685  0.07973  0.82888  1.0000
  H   H8        1.0  0.47685  0.07971  0.67112  1.0000
  H   H9        1.0  0.90679  0.67382  0.60715  1.0000
  H   H10       1.0  0.40678  0.67381  0.89285  1.0000
  H   H11       1.0  0.90681  0.82619  0.10717  1.0000
  H   H12       1.0  0.40682  0.82620  0.39283  1.0000
  H   H13       1.0  0.09319  0.32619  0.39285  1.0000
  H   H14       1.0  0.59319  0.32618  0.10717  1.0000
  H   H15       1.0  0.09321  0.17382  0.89284  1.0000
  H   H16       1.0  0.59322  0.17382  0.60716  1.0000
  H   H17       1.0  0.57496  0.58857  0.63027  1.0000
  H   H18       1.0  0.07496  0.58856  0.86973  1.0000
  H   H19       1.0  0.57500  0.91144  0.13027  1.0000
  H   H20       1.0  0.07501  0.91145  0.36972  1.0000
  H   H21       1.0  0.42501  0.41144  0.36973  1.0000
  H   H22       1.0  0.92501  0.41143  0.13027  1.0000
  H   H23       1.0  0.42500  0.08856  0.86973  1.0000
  H   H24       1.0  0.92505  0.08856  0.63027  1.0000
  H   H25       1.0  0.83829  0.42210  0.71504  1.0000
  H   H26       1.0  0.33823  0.42210  0.78496  1.0000
  H   H27       1.0  0.83823  0.07789  0.21503  1.0000
  H   H28       1.0  0.33820  0.07790  0.28497  1.0000
  H   H29       1.0  0.16179  0.57789  0.28497  1.0000
  H   H30       1.0  0.66176  0.57788  0.21504  1.0000
  H   H31       1.0  0.16175  0.92211  0.78497  1.0000
  H   H32       1.0  0.66175  0.92210  0.71504  1.0000
  H   H33       1.0  0.57488  0.41104  0.68503  1.0000
  H   H34       1.0  0.07489  0.41104  0.81497  1.0000
  H   H35       1.0  0.57495  0.08894  0.18503  1.0000
  H   H36       1.0  0.07493  0.08895  0.31497  1.0000
  H   H37       1.0  0.42508  0.58895  0.31497  1.0000
  H   H38       1.0  0.92509  0.58894  0.18503  1.0000
  H   H39       1.0  0.42507  0.91105  0.81497  1.0000
  H   H40       1.0  0.92511  0.91105  0.68503  1.0000
  C   C1        1.0  0.85899  0.68517  0.74023  1.0000
  C   C2        1.0  0.35899  0.68515  0.75977  1.0000
  C   C3        1.0  0.85902  0.81485  0.24021  1.0000
  C   C4        1.0  0.35902  0.81485  0.25978  1.0000
  C   C5        1.0  0.14099  0.31486  0.25977  1.0000
  C   C6        1.0  0.64099  0.31483  0.24022  1.0000
  C   C7        1.0  0.14099  0.18517  0.75978  1.0000
  C   C8        1.0  0.64101  0.18516  0.74023  1.0000
  C   C9        1.0  0.88591  0.62312  0.66342  1.0000
  C   C10       1.0  0.38590  0.62313  0.83658  1.0000
  C   C11       1.0  0.88593  0.87687  0.16343  1.0000
  C   C12       1.0  0.38592  0.87689  0.33657  1.0000
  C   C13       1.0  0.11409  0.37687  0.33658  1.0000
  C   C14       1.0  0.61407  0.37687  0.16343  1.0000
  C   C15       1.0  0.11409  0.12313  0.83658  1.0000
  C   C16       1.0  0.61409  0.12312  0.66342  1.0000
  C   C17       1.0  0.71253  0.55241  0.64954  1.0000
  C   C18       1.0  0.21254  0.55241  0.85045  1.0000
  C   C19       1.0  0.71257  0.94760  0.14956  1.0000
  C   C20       1.0  0.21257  0.94760  0.35043  1.0000
  C   C21       1.0  0.28744  0.44758  0.35044  1.0000
  C   C22       1.0  0.78744  0.44759  0.14955  1.0000
  C   C23       1.0  0.28743  0.05242  0.85045  1.0000
  C   C24       1.0  0.78747  0.05241  0.64955  1.0000
  C   C25       1.0  0.71226  0.45333  0.68036  1.0000
  C   C26       1.0  0.21223  0.45335  0.81963  1.0000
  C   C27       1.0  0.71226  0.04665  0.18036  1.0000
  C   C28       1.0  0.21225  0.04665  0.31964  1.0000
  C   C29       1.0  0.28776  0.54664  0.31963  1.0000
  C   C30       1.0  0.78775  0.54664  0.18037  1.0000
  C   C31       1.0  0.28775  0.95337  0.81963  1.0000
  C   C32       1.0  0.78776  0.95335  0.68036  1.0000
  N   N1        1.0  0.83686  0.73237  0.80375  1.0000
  N   N2        1.0  0.33687  0.73238  0.69626  1.0000
  N   N3        1.0  0.83689  0.76764  0.30373  1.0000
  N   N4        1.0  0.33690  0.76765  0.19627  1.0000
  N   N5        1.0  0.16312  0.26763  0.19627  1.0000
  N   N6        1.0  0.66311  0.26763  0.30374  1.0000
  N   N7        1.0  0.16311  0.23237  0.69626  1.0000
  N   N8        1.0  0.66312  0.23236  0.80374  1.0000
  Cl  Cl1       1.0  0.75661  0.96643  0.92361  1.0000
  Cl  Cl2       1.0  0.25662  0.96644  0.57638  1.0000
  Cl  Cl3       1.0  0.75662  0.53357  0.42361  1.0000
  Cl  Cl4       1.0  0.25662  0.53357  0.07639  1.0000
  Cl  Cl5       1.0  0.24339  0.03357  0.07639  1.0000
  Cl  Cl6       1.0  0.74339  0.03356  0.42362  1.0000
  Cl  Cl7       1.0  0.24338  0.46644  0.57639  1.0000
  Cl  Cl8       1.0  0.74338  0.46643  0.92361  1.0000
  Cl  Cl9       1.0  0.15683  0.78895  0.97681  1.0000
  Cl  Cl10      1.0  0.65683  0.78895  0.52319  1.0000
  Cl  Cl11      1.0  0.15684  0.71105  0.47681  1.0000
  Cl  Cl12      1.0  0.65684  0.71104  0.02319  1.0000
  Cl  Cl13      1.0  0.84316  0.21105  0.02319  1.0000
  Cl  Cl14      1.0  0.34316  0.21105  0.47681  1.0000
  Cl  Cl15      1.0  0.84317  0.28895  0.52319  1.0000
  Cl  Cl16      1.0  0.34316  0.28895  0.97681  1.0000
