data_image0
_chemical_formula_structural       Pr2H8C6O16
_chemical_formula_sum              "Pr2 H8 C6 O16"
_cell_length_a       6.10747
_cell_length_b       7.83922
_cell_length_c       8.30915
_cell_angle_alpha    96.2429
_cell_angle_beta     93.4758
_cell_angle_gamma    109.46

_space_group_name_H-M_alt    "P 1"
_space_group_IT_number       1

loop_
  _space_group_symop_operation_xyz
  'x, y, z'

loop_
  _atom_site_type_symbol
  _atom_site_label
  _atom_site_symmetry_multiplicity
  _atom_site_fract_x
  _atom_site_fract_y
  _atom_site_fract_z
  _atom_site_occupancy
  Pr  Pr1       1.0  0.00123  0.81478  0.28273  1.0000
  Pr  Pr2       1.0  0.99876  0.18520  0.71726  1.0000
  H   H1        1.0  0.57112  0.87301  0.12398  1.0000
  H   H2        1.0  0.42886  0.12697  0.87601  1.0000
  H   H3        1.0  0.69588  0.82502  0.96609  1.0000
  H   H4        1.0  0.30412  0.17496  0.03390  1.0000
  H   H5        1.0  0.18301  0.23287  0.31016  1.0000
  H   H6        1.0  0.81696  0.76711  0.68984  1.0000
  H   H7        1.0  0.00567  0.17119  0.14955  1.0000
  H   H8        1.0  0.99434  0.82880  0.85044  1.0000
  C   C1        1.0  0.44076  0.01709  0.57718  1.0000
  C   C2        1.0  0.55923  0.98289  0.42283  1.0000
  C   C3        1.0  0.08860  0.57216  0.95650  1.0000
  C   C4        1.0  0.91146  0.42787  0.04347  1.0000
  C   C5        1.0  0.88699  0.50595  0.53511  1.0000
  C   C6        1.0  0.11298  0.49405  0.46492  1.0000
  O   O1        1.0  0.22966  0.01059  0.55401  1.0000
  O   O2        1.0  0.77030  0.98940  0.44599  1.0000
  O   O3        1.0  0.56078  0.04766  0.71248  1.0000
  O   O4        1.0  0.43920  0.95233  0.28753  1.0000
  O   O5        1.0  0.12442  0.73981  0.00947  1.0000
  O   O6        1.0  0.87569  0.26026  0.99051  1.0000
  O   O7        1.0  0.17979  0.51519  0.84065  1.0000
  O   O8        1.0  0.82027  0.48483  0.15932  1.0000
  O   O9        1.0  0.82899  0.64281  0.50646  1.0000
  O   O10       1.0  0.17098  0.35717  0.49356  1.0000
  O   O11       1.0  0.78124  0.38378  0.61689  1.0000
  O   O12       1.0  0.21874  0.61624  0.38316  1.0000
  O   O13       1.0  0.68883  0.82211  0.08410  1.0000
  O   O14       1.0  0.31116  0.17788  0.91590  1.0000
  O   O15       1.0  0.13131  0.14206  0.20935  1.0000
  O   O16       1.0  0.86866  0.85795  0.79063  1.0000
