data_image0
_chemical_formula_structural       Cu2H36C20S4O12
_chemical_formula_sum              "Cu2 H36 C20 S4 O12"
_cell_length_a       4.94719
_cell_length_b       8.94851
_cell_length_c       16.01
_cell_angle_alpha    103.491
_cell_angle_beta     89.9997
_cell_angle_gamma    89.9984

_space_group_name_H-M_alt    "P 1"
_space_group_IT_number       1

loop_
  _space_group_symop_operation_xyz
  'x, y, z'

loop_
  _atom_site_type_symbol
  _atom_site_label
  _atom_site_symmetry_multiplicity
  _atom_site_fract_x
  _atom_site_fract_y
  _atom_site_fract_z
  _atom_site_occupancy
  Cu  Cu1       1.0  0.49999  0.49999  0.00000  1.0000
  Cu  Cu2       1.0  1.00000  1.00000  1.00000  1.0000
  H   H1        1.0  0.94101  0.41258  0.06453  1.0000
  H   H2        1.0  0.44100  0.08742  0.93547  1.0000
  H   H3        1.0  0.05899  0.58741  0.93547  1.0000
  H   H4        1.0  0.55900  0.91258  0.06453  1.0000
  H   H5        1.0  0.76483  0.26406  0.13851  1.0000
  H   H6        1.0  0.26481  0.23594  0.86149  1.0000
  H   H7        1.0  0.23519  0.73592  0.86149  1.0000
  H   H8        1.0  0.73519  0.76407  0.13851  1.0000
  H   H9        1.0  0.50387  0.56987  0.23055  1.0000
  H   H10       1.0  0.00385  0.93012  0.76945  1.0000
  H   H11       1.0  0.49614  0.43012  0.76944  1.0000
  H   H12       1.0  0.99615  0.06988  0.23055  1.0000
  H   H13       1.0  0.50937  0.40110  0.27163  1.0000
  H   H14       1.0  0.00934  0.09891  0.72838  1.0000
  H   H15       1.0  0.49064  0.59890  0.72838  1.0000
  H   H16       1.0  0.99066  0.90109  0.27162  1.0000
  H   H17       1.0  0.02438  0.55168  0.22179  1.0000
  H   H18       1.0  0.52437  0.94831  0.77821  1.0000
  H   H19       1.0  0.97562  0.44832  0.77821  1.0000
  H   H20       1.0  0.47563  0.05169  0.22179  1.0000
  H   H21       1.0  0.00341  0.40384  0.27954  1.0000
  H   H22       1.0  0.50339  0.09616  0.72047  1.0000
  H   H23       1.0  0.99660  0.59617  0.72047  1.0000
  H   H24       1.0  0.49662  0.90384  0.27953  1.0000
  H   H25       1.0  0.49477  0.57845  0.41749  1.0000
  H   H26       1.0  0.99479  0.92157  0.58251  1.0000
  H   H27       1.0  0.50521  0.42155  0.58251  1.0000
  H   H28       1.0  0.00522  0.07845  0.41749  1.0000
  H   H29       1.0  0.72656  0.66487  0.50020  1.0000
  H   H30       1.0  0.22658  0.83515  0.49980  1.0000
  H   H31       1.0  0.27342  0.33513  0.49980  1.0000
  H   H32       1.0  0.77343  0.16488  0.50020  1.0000
  H   H33       1.0  0.77889  0.47062  0.44165  1.0000
  H   H34       1.0  0.27892  0.02939  0.55835  1.0000
  H   H35       1.0  0.22109  0.52938  0.55835  1.0000
  H   H36       1.0  0.72111  0.97063  0.44165  1.0000
  C   C1        1.0  0.35857  0.30838  0.10602  1.0000
  C   C2        1.0  0.85852  0.19162  0.89399  1.0000
  C   C3        1.0  0.64143  0.69161  0.89398  1.0000
  C   C4        1.0  0.14147  0.80839  0.10601  1.0000
  C   C5        1.0  0.63645  0.36495  0.14022  1.0000
  C   C6        1.0  0.13643  0.13505  0.85978  1.0000
  C   C7        1.0  0.36356  0.63503  0.85978  1.0000
  C   C8        1.0  0.86357  0.86496  0.14021  1.0000
  C   C9        1.0  0.61950  0.46548  0.23175  1.0000
  C   C10       1.0  0.11949  0.03452  0.76825  1.0000
  C   C11       1.0  0.38051  0.53451  0.76825  1.0000
  C   C12       1.0  0.88051  0.96548  0.23175  1.0000
  C   C13       1.0  0.90237  0.50657  0.26788  1.0000
  C   C14       1.0  0.40237  0.99342  0.73212  1.0000
  C   C15       1.0  0.09763  0.49343  0.73213  1.0000
  C   C16       1.0  0.59763  0.00658  0.26788  1.0000
  C   C17       1.0  0.70802  0.58460  0.43713  1.0000
  C   C18       1.0  0.20805  0.91542  0.56287  1.0000
  C   C19       1.0  0.29196  0.41540  0.56287  1.0000
  C   C20       1.0  0.79197  0.08460  0.43713  1.0000
  S   S1        1.0  0.91609  0.65966  0.36393  1.0000
  S   S2        1.0  0.41611  0.84036  0.63608  1.0000
  S   S3        1.0  0.08389  0.34034  0.63607  1.0000
  S   S4        1.0  0.58389  0.15965  0.36392  1.0000
  O   O1        1.0  0.25617  0.36950  0.04570  1.0000
  O   O2        1.0  0.75617  0.13049  0.95430  1.0000
  O   O3        1.0  0.74382  0.63048  0.95430  1.0000
  O   O4        1.0  0.24383  0.86951  0.04569  1.0000
  O   O5        1.0  0.23459  0.21192  0.13547  1.0000
  O   O6        1.0  0.73457  0.28808  0.86454  1.0000
  O   O7        1.0  0.76541  0.78806  0.86453  1.0000
  O   O8        1.0  0.26543  0.71192  0.13547  1.0000
  O   O9        1.0  0.75635  0.45456  0.08495  1.0000
  O   O10       1.0  0.25636  0.04543  0.91505  1.0000
  O   O11       1.0  0.24364  0.54542  0.91505  1.0000
  O   O12       1.0  0.74364  0.95458  0.08495  1.0000
