data_image0
_chemical_formula_structural       Cu8H32C32I8N16
_chemical_formula_sum              "Cu8 H32 C32 I8 N16"
_cell_length_a       7.85852
_cell_length_b       9.72315
_cell_length_c       16.6571
_cell_angle_alpha    90.0004
_cell_angle_beta     90
_cell_angle_gamma    112.127

_space_group_name_H-M_alt    "P 1"
_space_group_IT_number       1

loop_
  _space_group_symop_operation_xyz
  'x, y, z'

loop_
  _atom_site_type_symbol
  _atom_site_label
  _atom_site_symmetry_multiplicity
  _atom_site_fract_x
  _atom_site_fract_y
  _atom_site_fract_z
  _atom_site_occupancy
  Cu  Cu1       1.0  0.46787  0.67626  0.20991  1.0000
  Cu  Cu2       1.0  0.03213  0.32374  0.70991  1.0000
  Cu  Cu3       1.0  0.53213  0.32374  0.79009  1.0000
  Cu  Cu4       1.0  0.96787  0.67626  0.29009  1.0000
  Cu  Cu5       1.0  0.72855  0.79668  0.32086  1.0000
  Cu  Cu6       1.0  0.77146  0.20331  0.82086  1.0000
  Cu  Cu7       1.0  0.27145  0.20332  0.67914  1.0000
  Cu  Cu8       1.0  0.22855  0.79669  0.17914  1.0000
  H   H1        1.0  0.66840  0.90567  0.62270  1.0000
  H   H2        1.0  0.83160  0.09433  0.12270  1.0000
  H   H3        1.0  0.33160  0.09434  0.37730  1.0000
  H   H4        1.0  0.16840  0.90567  0.87730  1.0000
  H   H5        1.0  0.33056  0.62009  0.53981  1.0000
  H   H6        1.0  0.16944  0.37991  0.03981  1.0000
  H   H7        1.0  0.66944  0.37991  0.46019  1.0000
  H   H8        1.0  0.83057  0.62009  0.96019  1.0000
  H   H9        1.0  0.81624  0.63712  0.64459  1.0000
  H   H10       1.0  0.68376  0.36288  0.14459  1.0000
  H   H11       1.0  0.18376  0.36288  0.35541  1.0000
  H   H12       1.0  0.31624  0.63712  0.85541  1.0000
  H   H13       1.0  0.91941  0.81818  0.68610  1.0000
  H   H14       1.0  0.58059  0.18181  0.18610  1.0000
  H   H15       1.0  0.08058  0.18182  0.31390  1.0000
  H   H16       1.0  0.41941  0.81819  0.81390  1.0000
  H   H17       1.0  0.57704  0.93242  0.46297  1.0000
  H   H18       1.0  0.92297  0.06759  0.96298  1.0000
  H   H19       1.0  0.42296  0.06759  0.53703  1.0000
  H   H20       1.0  0.07703  0.93241  0.03703  1.0000
  H   H21       1.0  0.20819  0.86686  0.62173  1.0000
  H   H22       1.0  0.29180  0.13314  0.12173  1.0000
  H   H23       1.0  0.79180  0.13314  0.37827  1.0000
  H   H24       1.0  0.70820  0.86686  0.87827  1.0000
  H   H25       1.0  0.13746  0.67988  0.65622  1.0000
  H   H26       1.0  0.36254  0.32012  0.15622  1.0000
  H   H27       1.0  0.86254  0.32012  0.34378  1.0000
  H   H28       1.0  0.63746  0.67988  0.84378  1.0000
  H   H29       1.0  0.27763  0.59979  0.37384  1.0000
  H   H30       1.0  0.22238  0.40022  0.87384  1.0000
  H   H31       1.0  0.72237  0.40022  0.62616  1.0000
  H   H32       1.0  0.77763  0.59978  0.12616  1.0000
  C   C1        1.0  0.01390  0.72622  0.46973  1.0000
  C   C2        1.0  0.48610  0.27377  0.96973  1.0000
  C   C3        1.0  0.98610  0.27377  0.53027  1.0000
  C   C4        1.0  0.51390  0.72623  0.03027  1.0000
  C   C5        1.0  0.71610  0.87484  0.56696  1.0000
  C   C6        1.0  0.78389  0.12515  0.06697  1.0000
  C   C7        1.0  0.28389  0.12516  0.43303  1.0000
  C   C8        1.0  0.21610  0.87484  0.93304  1.0000
  C   C9        1.0  0.23671  0.64769  0.50138  1.0000
  C   C10       1.0  0.26329  0.35231  0.00137  1.0000
  C   C11       1.0  0.76329  0.35231  0.49863  1.0000
  C   C12       1.0  0.73671  0.64769  0.99862  1.0000
  C   C13       1.0  0.87884  0.78843  0.48676  1.0000
  C   C14       1.0  0.62116  0.21156  0.98676  1.0000
  C   C15       1.0  0.12116  0.21157  0.51324  1.0000
  C   C16       1.0  0.37884  0.78844  0.01324  1.0000
  C   C17       1.0  0.91375  0.75059  0.63268  1.0000
  C   C18       1.0  0.58625  0.24941  0.13268  1.0000
  C   C19       1.0  0.08625  0.24941  0.36732  1.0000
  C   C20       1.0  0.41375  0.75059  0.86732  1.0000
  C   C21       1.0  0.67483  0.88978  0.48791  1.0000
  C   C22       1.0  0.82517  0.11022  0.98791  1.0000
  C   C23       1.0  0.32518  0.11022  0.51209  1.0000
  C   C24       1.0  0.17483  0.88978  0.01209  1.0000
  C   C25       1.0  0.10485  0.75374  0.61436  1.0000
  C   C26       1.0  0.39515  0.24626  0.11436  1.0000
  C   C27       1.0  0.89515  0.24626  0.38564  1.0000
  C   C28       1.0  0.60485  0.75374  0.88564  1.0000
  C   C29       1.0  0.20646  0.63634  0.41985  1.0000
  C   C30       1.0  0.29355  0.36366  0.91985  1.0000
  C   C31       1.0  0.79354  0.36365  0.58015  1.0000
  C   C32       1.0  0.70646  0.63634  0.08015  1.0000
  I   I1        1.0  0.50155  0.92848  0.28091  1.0000
  I   I2        1.0  0.99845  0.07152  0.78091  1.0000
  I   I3        1.0  0.49845  0.07152  0.71909  1.0000
  I   I4        1.0  0.00155  0.92848  0.21909  1.0000
  I   I5        1.0  0.59205  0.50530  0.30131  1.0000
  I   I6        1.0  0.90793  0.49471  0.80132  1.0000
  I   I7        1.0  0.40794  0.49470  0.69869  1.0000
  I   I8        1.0  0.09206  0.50529  0.19868  1.0000
  N   N1        1.0  0.77585  0.83566  0.43810  1.0000
  N   N2        1.0  0.72415  0.16434  0.93810  1.0000
  N   N3        1.0  0.22415  0.16434  0.56190  1.0000
  N   N4        1.0  0.27585  0.83565  0.06190  1.0000
  N   N5        1.0  0.11426  0.70416  0.53230  1.0000
  N   N6        1.0  0.38574  0.29584  0.03230  1.0000
  N   N7        1.0  0.88573  0.29584  0.46770  1.0000
  N   N8        1.0  0.61426  0.70416  0.96770  1.0000
  N   N9        1.0  0.84500  0.81092  0.56545  1.0000
  N   N10       1.0  0.65499  0.18907  0.06545  1.0000
  N   N11       1.0  0.15499  0.18908  0.43455  1.0000
  N   N12       1.0  0.34501  0.81093  0.93455  1.0000
  N   N13       1.0  0.06662  0.68383  0.40046  1.0000
  N   N14       1.0  0.43338  0.31616  0.90046  1.0000
  N   N15       1.0  0.93338  0.31616  0.59954  1.0000
  N   N16       1.0  0.56662  0.68383  0.09954  1.0000
