data_image0
_chemical_formula_structural       Mn2H54C60N12O8
_chemical_formula_sum              "Mn2 H54 C60 N12 O8"
_cell_length_a       10.212
_cell_length_b       11.0741
_cell_length_c       13.91
_cell_angle_alpha    107.7
_cell_angle_beta     95.826
_cell_angle_gamma    97.2564

_space_group_name_H-M_alt    "P 1"
_space_group_IT_number       1

loop_
  _space_group_symop_operation_xyz
  'x, y, z'

loop_
  _atom_site_type_symbol
  _atom_site_label
  _atom_site_symmetry_multiplicity
  _atom_site_fract_x
  _atom_site_fract_y
  _atom_site_fract_z
  _atom_site_occupancy
  Mn  Mn1       1.0  0.19254  0.36119  0.81862  1.0000
  Mn  Mn2       1.0  0.80746  0.63880  0.18138  1.0000
  H   H1        1.0  0.83755  0.02931  0.65125  1.0000
  H   H2        1.0  0.16245  0.97069  0.34874  1.0000
  H   H3        1.0  0.41728  0.05226  0.64633  1.0000
  H   H4        1.0  0.58273  0.94775  0.35367  1.0000
  H   H5        1.0  0.71176  0.37630  0.82208  1.0000
  H   H6        1.0  0.28824  0.62370  0.17792  1.0000
  H   H7        1.0  0.64281  0.87033  0.50579  1.0000
  H   H8        1.0  0.35718  0.12967  0.49420  1.0000
  H   H9        1.0  0.48192  0.85915  0.54218  1.0000
  H   H10       1.0  0.51808  0.14086  0.45782  1.0000
  H   H11       1.0  0.61610  0.81853  0.61189  1.0000
  H   H12       1.0  0.38390  0.18148  0.38811  1.0000
  H   H13       1.0  0.43702  0.62079  0.89463  1.0000
  H   H14       1.0  0.56298  0.37921  0.10537  1.0000
  H   H15       1.0  0.04639  0.58932  0.96638  1.0000
  H   H16       1.0  0.95362  0.41068  0.03362  1.0000
  H   H17       1.0  0.15794  0.84870  0.03074  1.0000
  H   H18       1.0  0.84206  0.15129  0.96926  1.0000
  H   H19       1.0  0.43467  0.93156  0.14452  1.0000
  H   H20       1.0  0.56533  0.06843  0.85547  1.0000
  H   H21       1.0  0.10369  0.61074  0.73806  1.0000
  H   H22       1.0  0.89631  0.38926  0.26194  1.0000
  H   H23       1.0  0.12749  0.61884  0.54129  1.0000
  H   H24       1.0  0.87251  0.38116  0.45872  1.0000
  H   H25       1.0  0.24438  0.27836  0.57472  1.0000
  H   H26       1.0  0.75562  0.72164  0.42528  1.0000
  H   H27       1.0  0.36580  0.47190  0.24057  1.0000
  H   H28       1.0  0.63420  0.52810  0.75944  1.0000
  H   H29       1.0  0.06024  0.22773  0.39616  1.0000
  H   H30       1.0  0.93976  0.77228  0.60384  1.0000
  H   H31       1.0  0.99333  0.11892  0.11812  1.0000
  H   H32       1.0  0.00667  0.88108  0.88188  1.0000
  H   H33       1.0  0.95026  0.09393  0.23244  1.0000
  H   H34       1.0  0.04974  0.90607  0.76756  1.0000
  H   H35       1.0  0.08283  0.02703  0.17773  1.0000
  H   H36       1.0  0.91716  0.97296  0.82228  1.0000
  H   H37       1.0  0.33138  0.67299  0.44908  1.0000
  H   H38       1.0  0.66862  0.32701  0.55092  1.0000
  H   H39       1.0  0.47210  0.60684  0.40797  1.0000
  H   H40       1.0  0.52791  0.39316  0.59203  1.0000
  H   H41       1.0  0.41554  0.59169  0.52191  1.0000
  H   H42       1.0  0.58446  0.40831  0.47809  1.0000
  H   H43       1.0  0.18484  0.45071  0.08275  1.0000
  H   H44       1.0  0.81516  0.54930  0.91725  1.0000
  H   H45       1.0  0.24327  0.10189  0.87483  1.0000
  H   H46       1.0  0.75672  0.89810  0.12517  1.0000
  H   H47       1.0  0.24896  0.07585  0.06899  1.0000
  H   H48       1.0  0.75103  0.92415  0.93101  1.0000
  H   H49       1.0  0.70600  0.20707  0.21906  1.0000
  H   H50       1.0  0.29400  0.79293  0.78093  1.0000
  H   H51       1.0  0.59391  0.10442  0.26212  1.0000
  H   H52       1.0  0.40609  0.89558  0.73788  1.0000
  H   H53       1.0  0.54463  0.24132  0.23709  1.0000
  H   H54       1.0  0.45538  0.75868  0.76291  1.0000
  C   C1        1.0  0.93224  0.27147  0.77465  1.0000
  C   C2        1.0  0.06776  0.72854  0.22535  1.0000
  C   C3        1.0  0.78902  0.20864  0.73991  1.0000
  C   C4        1.0  0.21098  0.79137  0.26009  1.0000
  C   C5        1.0  0.75619  0.08134  0.67503  1.0000
  C   C6        1.0  0.24381  0.91866  0.32497  1.0000
  C   C7        1.0  0.62267  0.02254  0.64065  1.0000
  C   C8        1.0  0.37733  0.97746  0.35935  1.0000
  C   C9        1.0  0.52236  0.09451  0.67213  1.0000
  C   C10       1.0  0.47764  0.90550  0.32788  1.0000
  C   C11       1.0  0.55366  0.22233  0.73687  1.0000
  C   C12       1.0  0.44634  0.77768  0.26313  1.0000
  C   C13       1.0  0.68720  0.27806  0.77089  1.0000
  C   C14       1.0  0.31281  0.72195  0.22911  1.0000
  C   C15       1.0  0.44622  0.30070  0.76983  1.0000
  C   C16       1.0  0.55378  0.69930  0.23018  1.0000
  C   C17       1.0  0.58874  0.88539  0.57172  1.0000
  C   C18       1.0  0.41126  0.11461  0.42827  1.0000
  C   C19       1.0  0.34529  0.64688  0.92168  1.0000
  C   C20       1.0  0.65471  0.35311  0.07831  1.0000
  C   C21       1.0  0.14381  0.63506  0.96064  1.0000
  C   C22       1.0  0.85619  0.36494  0.03936  1.0000
  C   C23       1.0  0.19707  0.76317  0.99241  1.0000
  C   C24       1.0  0.80293  0.23683  0.00758  1.0000
  C   C25       1.0  0.41528  0.88568  0.98184  1.0000
  C   C26       1.0  0.58473  0.11431  0.01815  1.0000
  C   C27       1.0  0.46316  0.96390  0.08179  1.0000
  C   C28       1.0  0.53684  0.03609  0.91821  1.0000
  C   C29       1.0  0.54927  0.08035  0.10268  1.0000
  C   C30       1.0  0.45072  0.91965  0.89732  1.0000
  C   C31       1.0  0.13862  0.54400  0.67518  1.0000
  C   C32       1.0  0.86139  0.45600  0.32483  1.0000
  C   C33       1.0  0.14977  0.55002  0.57906  1.0000
  C   C34       1.0  0.85023  0.44998  0.42094  1.0000
  C   C35       1.0  0.20923  0.36991  0.59392  1.0000
  C   C36       1.0  0.79077  0.63009  0.40608  1.0000
  C   C37       1.0  0.20762  0.39493  0.42177  1.0000
  C   C38       1.0  0.79238  0.60507  0.57823  1.0000
  C   C39       1.0  0.29533  0.46718  0.38066  1.0000
  C   C40       1.0  0.70467  0.53282  0.61934  1.0000
  C   C41       1.0  0.29708  0.41962  0.27550  1.0000
  C   C42       1.0  0.70292  0.58038  0.72450  1.0000
  C   C43       1.0  0.21338  0.30690  0.21422  1.0000
  C   C44       1.0  0.78662  0.69309  0.78578  1.0000
  C   C45       1.0  0.12709  0.23280  0.25540  1.0000
  C   C46       1.0  0.87290  0.76720  0.74460  1.0000
  C   C47       1.0  0.12760  0.27986  0.36073  1.0000
  C   C48       1.0  0.87240  0.72014  0.63927  1.0000
  C   C49       1.0  0.03367  0.11237  0.19221  1.0000
  C   C50       1.0  0.96632  0.88763  0.80779  1.0000
  C   C51       1.0  0.38366  0.59070  0.44389  1.0000
  C   C52       1.0  0.61634  0.40930  0.55611  1.0000
  C   C53       1.0  0.20351  0.35314  0.05035  1.0000
  C   C54       1.0  0.79648  0.64686  0.94965  1.0000
  C   C55       1.0  0.23074  0.16946  0.94681  1.0000
  C   C56       1.0  0.76925  0.83054  0.05319  1.0000
  C   C57       1.0  0.23191  0.15453  0.04124  1.0000
  C   C58       1.0  0.76808  0.84547  0.95876  1.0000
  C   C59       1.0  0.60150  0.16232  0.21085  1.0000
  C   C60       1.0  0.39850  0.83768  0.78914  1.0000
  N   N1        1.0  0.23680  0.56383  0.91686  1.0000
  N   N2        1.0  0.76320  0.43617  0.08314  1.0000
  N   N3        1.0  0.32512  0.76973  0.96665  1.0000
  N   N4        1.0  0.67488  0.23026  0.03334  1.0000
  N   N5        1.0  0.17693  0.43208  0.68353  1.0000
  N   N6        1.0  0.82307  0.56791  0.31647  1.0000
  N   N7        1.0  0.19485  0.43823  0.52763  1.0000
  N   N8        1.0  0.80515  0.56178  0.47237  1.0000
  N   N9        1.0  0.21466  0.27205  0.10690  1.0000
  N   N10       1.0  0.78535  0.72795  0.89311  1.0000
  N   N11       1.0  0.21240  0.29319  0.95359  1.0000
  N   N12       1.0  0.78760  0.70681  0.04642  1.0000
  O   O1        1.0  0.02277  0.20358  0.74705  1.0000
  O   O2        1.0  0.97723  0.79643  0.25296  1.0000
  O   O3        1.0  0.95958  0.38937  0.82916  1.0000
  O   O4        1.0  0.04043  0.61063  0.17084  1.0000
  O   O5        1.0  0.32604  0.23849  0.75099  1.0000
  O   O6        1.0  0.67396  0.76152  0.24901  1.0000
  O   O7        1.0  0.47808  0.42042  0.81274  1.0000
  O   O8        1.0  0.52192  0.57958  0.18726  1.0000
