data_image0
_chemical_formula_structural       K4Gd4H8C8S4O36
_chemical_formula_sum              "K4 Gd4 H8 C8 S4 O36"
_cell_length_a       6.58877
_cell_length_b       8.56133
_cell_length_c       13.5127
_cell_angle_alpha    90.0003
_cell_angle_beta     93.9437
_cell_angle_gamma    90.0001

_space_group_name_H-M_alt    "P 1"
_space_group_IT_number       1

loop_
  _space_group_symop_operation_xyz
  'x, y, z'

loop_
  _atom_site_type_symbol
  _atom_site_label
  _atom_site_symmetry_multiplicity
  _atom_site_fract_x
  _atom_site_fract_y
  _atom_site_fract_z
  _atom_site_occupancy
  K   K1        1.0  0.76475  0.64803  0.80246  1.0000
  K   K2        1.0  0.73524  0.14804  0.69754  1.0000
  K   K3        1.0  0.23524  0.35198  0.19753  1.0000
  K   K4        1.0  0.26477  0.85197  0.30246  1.0000
  Gd  Gd1       1.0  0.75466  0.74498  0.08461  1.0000
  Gd  Gd2       1.0  0.74534  0.24498  0.41539  1.0000
  Gd  Gd3       1.0  0.24534  0.25502  0.91539  1.0000
  Gd  Gd4       1.0  0.25466  0.75502  0.58461  1.0000
  H   H1        1.0  0.88637  0.96050  0.91713  1.0000
  H   H2        1.0  0.61362  0.46051  0.58287  1.0000
  H   H3        1.0  0.11363  0.03950  0.08287  1.0000
  H   H4        1.0  0.38638  0.53950  0.41712  1.0000
  H   H5        1.0  0.64737  0.96534  0.91409  1.0000
  H   H6        1.0  0.85262  0.46534  0.58591  1.0000
  H   H7        1.0  0.35262  0.03466  0.08591  1.0000
  H   H8        1.0  0.14738  0.53466  0.41409  1.0000
  C   C1        1.0  0.63348  0.04128  0.21896  1.0000
  C   C2        1.0  0.86654  0.54127  0.28104  1.0000
  C   C3        1.0  0.36652  0.95872  0.78104  1.0000
  C   C4        1.0  0.13348  0.45872  0.71896  1.0000
  C   C5        1.0  0.86594  0.03634  0.23137  1.0000
  C   C6        1.0  0.63408  0.53633  0.26864  1.0000
  C   C7        1.0  0.13406  0.96366  0.76863  1.0000
  C   C8        1.0  0.36594  0.46367  0.73137  1.0000
  S   S1        1.0  0.23455  0.66404  0.97410  1.0000
  S   S2        1.0  0.26546  0.16404  0.52590  1.0000
  S   S3        1.0  0.76545  0.33596  0.02590  1.0000
  S   S4        1.0  0.73454  0.83596  0.47410  1.0000
  O   O1        1.0  0.43941  0.73531  0.99315  1.0000
  O   O2        1.0  0.06059  0.23531  0.50686  1.0000
  O   O3        1.0  0.56059  0.26470  0.00685  1.0000
  O   O4        1.0  0.93941  0.76469  0.49314  1.0000
  O   O5        1.0  0.76821  0.90577  0.94204  1.0000
  O   O6        1.0  0.73179  0.40577  0.55796  1.0000
  O   O7        1.0  0.23178  0.09423  0.05795  1.0000
  O   O8        1.0  0.26821  0.59423  0.44204  1.0000
  O   O9        1.0  0.16410  0.68674  0.86928  1.0000
  O   O10       1.0  0.33590  0.18674  0.63072  1.0000
  O   O11       1.0  0.83590  0.31326  0.13072  1.0000
  O   O12       1.0  0.66410  0.81326  0.36928  1.0000
  O   O13       1.0  0.09329  0.73951  0.04094  1.0000
  O   O14       1.0  0.40672  0.23952  0.45906  1.0000
  O   O15       1.0  0.90671  0.26049  0.95905  1.0000
  O   O16       1.0  0.59328  0.76049  0.54094  1.0000
  O   O17       1.0  0.24428  0.49280  0.99789  1.0000
  O   O18       1.0  0.25571  0.99280  0.50212  1.0000
  O   O19       1.0  0.75572  0.50720  0.00211  1.0000
  O   O20       1.0  0.74429  0.00720  0.49789  1.0000
  O   O21       1.0  0.54962  0.95091  0.15312  1.0000
  O   O22       1.0  0.95039  0.45090  0.34688  1.0000
  O   O23       1.0  0.45038  0.04910  0.84689  1.0000
  O   O24       1.0  0.04961  0.54910  0.65312  1.0000
  O   O25       1.0  0.95313  0.95157  0.16953  1.0000
  O   O26       1.0  0.54688  0.45156  0.33047  1.0000
  O   O27       1.0  0.04686  0.04843  0.83047  1.0000
  O   O28       1.0  0.45312  0.54844  0.66952  1.0000
  O   O29       1.0  0.54149  0.13128  0.27456  1.0000
  O   O30       1.0  0.95852  0.63126  0.22545  1.0000
  O   O31       1.0  0.45851  0.86872  0.72545  1.0000
  O   O32       1.0  0.04148  0.36873  0.77456  1.0000
  O   O33       1.0  0.95448  0.11114  0.30225  1.0000
  O   O34       1.0  0.54553  0.61114  0.19775  1.0000
  O   O35       1.0  0.04552  0.88886  0.69775  1.0000
  O   O36       1.0  0.45447  0.38886  0.80225  1.0000
