data_image0
_chemical_formula_structural       Sr2H20C16S2O20
_chemical_formula_sum              "Sr2 H20 C16 S2 O20"
_cell_length_a       7.20544
_cell_length_b       8.34181
_cell_length_c       11.9366
_cell_angle_alpha    110.466
_cell_angle_beta     90.0001
_cell_angle_gamma    89.9999

_space_group_name_H-M_alt    "P 1"
_space_group_IT_number       1

loop_
  _space_group_symop_operation_xyz
  'x, y, z'

loop_
  _atom_site_type_symbol
  _atom_site_label
  _atom_site_symmetry_multiplicity
  _atom_site_fract_x
  _atom_site_fract_y
  _atom_site_fract_z
  _atom_site_occupancy
  Sr  Sr1       1.0  0.75000  0.75853  0.36265  1.0000
  Sr  Sr2       1.0  0.25000  0.39572  0.63746  1.0000
  H   H1        1.0  0.75000  0.74419  0.05463  1.0000
  H   H2        1.0  0.25000  0.68922  0.94534  1.0000
  H   H3        1.0  0.93245  0.09629  0.31601  1.0000
  H   H4        1.0  0.06760  0.78020  0.68392  1.0000
  H   H5        1.0  0.43240  0.78020  0.68392  1.0000
  H   H6        1.0  0.56755  0.09629  0.31601  1.0000
  H   H7        1.0  0.06667  0.94139  0.25637  1.0000
  H   H8        1.0  0.93334  0.68505  0.74359  1.0000
  H   H9        1.0  0.56665  0.68505  0.74359  1.0000
  H   H10       1.0  0.43333  0.94139  0.25637  1.0000
  H   H11       1.0  0.85873  0.59590  0.55456  1.0000
  H   H12       1.0  0.14127  0.04108  0.44547  1.0000
  H   H13       1.0  0.35873  0.04108  0.44547  1.0000
  H   H14       1.0  0.64127  0.59590  0.55456  1.0000
  H   H15       1.0  0.75000  0.46951  0.87703  1.0000
  H   H16       1.0  0.25000  0.59233  0.12310  1.0000
  H   H17       1.0  0.75000  0.16268  0.10054  1.0000
  H   H18       1.0  0.25000  0.06194  0.89949  1.0000
  H   H19       1.0  0.75000  0.91976  0.71585  1.0000
  H   H20       1.0  0.25000  0.20374  0.28421  1.0000
  C   C1        1.0  0.75000  0.47947  0.11739  1.0000
  C   C2        1.0  0.25000  0.36150  0.88257  1.0000
  C   C3        1.0  0.75000  0.85318  0.92757  1.0000
  C   C4        1.0  0.25000  0.92532  0.07242  1.0000
  C   C5        1.0  0.75000  0.19455  0.78575  1.0000
  C   C6        1.0  0.25000  0.40859  0.21430  1.0000
  C   C7        1.0  0.75000  0.34443  0.88713  1.0000
  C   C8        1.0  0.25000  0.45709  0.11292  1.0000
  C   C9        1.0  0.75000  0.33089  0.00081  1.0000
  C   C10       1.0  0.25000  0.32983  0.99923  1.0000
  C   C11       1.0  0.75000  0.16967  0.01139  1.0000
  C   C12       1.0  0.25000  0.15802  0.98868  1.0000
  C   C13       1.0  0.75000  0.02112  0.91070  1.0000
  C   C14       1.0  0.24999  0.11012  0.08933  1.0000
  C   C15       1.0  0.75000  0.03352  0.79642  1.0000
  C   C16       1.0  0.25000  0.23687  0.20363  1.0000
  S   S1        1.0  0.75000  0.20806  0.63893  1.0000
  S   S2        1.0  0.25000  0.56908  0.36104  1.0000
  O   O1        1.0  0.75000  0.03025  0.55584  1.0000
  O   O2        1.0  0.25000  0.47456  0.44419  1.0000
  O   O3        1.0  0.91783  0.30299  0.63130  1.0000
  O   O4        1.0  0.08217  0.67162  0.36861  1.0000
  O   O5        1.0  0.41783  0.67162  0.36861  1.0000
  O   O6        1.0  0.58218  0.30299  0.63130  1.0000
  O   O7        1.0  0.74999  0.44619  0.21234  1.0000
  O   O8        1.0  0.25000  0.23314  0.78766  1.0000
  O   O9        1.0  0.75000  0.63542  0.11991  1.0000
  O   O10       1.0  0.25000  0.51493  0.87997  1.0000
  O   O11       1.0  0.75000  0.86308  0.03885  1.0000
  O   O12       1.0  0.25000  0.82385  0.96113  1.0000
  O   O13       1.0  0.75000  0.71322  0.84100  1.0000
  O   O14       1.0  0.25000  0.87195  0.15897  1.0000
  O   O15       1.0  0.97016  0.98605  0.31922  1.0000
  O   O16       1.0  0.02986  0.66677  0.68074  1.0000
  O   O17       1.0  0.47014  0.66677  0.68074  1.0000
  O   O18       1.0  0.52984  0.98605  0.31922  1.0000
  O   O19       1.0  0.75000  0.59515  0.50451  1.0000
  O   O20       1.0  0.25000  0.09030  0.49555  1.0000
