data_image0
_chemical_formula_structural       Zn2H28C44S2N6O8
_chemical_formula_sum              "Zn2 H28 C44 S2 N6 O8"
_cell_length_a       10.0578
_cell_length_b       11.2689
_cell_length_c       11.2133
_cell_angle_alpha    83.0501
_cell_angle_beta     63.3376
_cell_angle_gamma    63.4632

_space_group_name_H-M_alt    "P 1"
_space_group_IT_number       1

loop_
  _space_group_symop_operation_xyz
  'x, y, z'

loop_
  _atom_site_type_symbol
  _atom_site_label
  _atom_site_symmetry_multiplicity
  _atom_site_fract_x
  _atom_site_fract_y
  _atom_site_fract_z
  _atom_site_occupancy
  Zn  Zn1       1.0  0.18481  0.49978  0.49985  1.0000
  Zn  Zn2       1.0  0.97875  0.00019  0.99999  1.0000
  H   H1        1.0  0.35708  0.31264  0.22057  1.0000
  H   H2        1.0  0.88993  0.68805  0.77958  1.0000
  H   H3        1.0  0.33171  0.54751  0.06490  1.0000
  H   H4        1.0  0.94397  0.45316  0.93485  1.0000
  H   H5        1.0  0.51341  0.63216  0.88658  1.0000
  H   H6        1.0  0.03207  0.36814  0.11323  1.0000
  H   H7        1.0  0.82001  0.48987  0.76651  1.0000
  H   H8        1.0  0.07601  0.51031  0.23349  1.0000
  H   H9        1.0  0.94996  0.25940  0.82551  1.0000
  H   H10       1.0  0.03421  0.74078  0.17478  1.0000
  H   H11       1.0  0.66708  0.13870  0.35509  1.0000
  H   H12       1.0  0.16053  0.86093  0.64469  1.0000
  H   H13       1.0  0.44475  0.20441  0.43319  1.0000
  H   H14       1.0  0.08109  0.79595  0.56702  1.0000
  H   H15       1.0  0.83464  0.89611  0.37029  1.0000
  H   H16       1.0  0.10056  0.10377  0.62971  1.0000
  H   H17       1.0  0.61393  0.74855  0.74580  1.0000
  H   H18       1.0  0.10866  0.25129  0.25393  1.0000
  H   H19       1.0  0.31135  0.10147  0.62655  1.0000
  H   H20       1.0  0.03950  0.89866  0.37297  1.0000
  H   H21       1.0  0.27372  0.67967  0.26124  1.0000
  H   H22       1.0  0.21429  0.32012  0.73877  1.0000
  H   H23       1.0  0.48481  0.76843  0.16160  1.0000
  H   H24       1.0  0.41407  0.23148  0.83893  1.0000
  H   H25       1.0  0.69509  0.70599  0.24980  1.0000
  H   H26       1.0  0.65043  0.29372  0.75073  1.0000
  H   H27       1.0  0.81045  0.57443  0.40937  1.0000
  H   H28       1.0  0.79398  0.42492  0.59140  1.0000
  C   C1        1.0  0.60591  0.16323  0.13575  1.0000
  C   C2        1.0  0.90438  0.83737  0.86452  1.0000
  C   C3        1.0  0.53968  0.35781  0.04967  1.0000
  C   C4        1.0  0.94687  0.64272  0.95039  1.0000
  C   C5        1.0  0.46521  0.48626  0.01595  1.0000
  C   C6        1.0  0.96732  0.51421  0.98389  1.0000
  C   C7        1.0  0.56967  0.53184  0.91394  1.0000
  C   C8        1.0  0.01543  0.46842  0.08582  1.0000
  C   C9        1.0  0.74239  0.45104  0.84666  1.0000
  C   C10       1.0  0.03984  0.54916  0.15329  1.0000
  C   C11       1.0  0.81698  0.32217  0.87865  1.0000
  C   C12       1.0  0.01739  0.67805  0.12147  1.0000
  C   C13       1.0  0.71347  0.27620  0.98274  1.0000
  C   C14       1.0  0.97201  0.72423  0.01741  1.0000
  C   C15       1.0  0.56226  0.11403  0.39112  1.0000
  C   C16       1.0  0.06672  0.88610  0.60890  1.0000
  C   C17       1.0  0.57264  0.01202  0.48974  1.0000
  C   C18       1.0  0.07410  0.98800  0.51013  1.0000
  C   C19       1.0  0.72672  0.90526  0.46331  1.0000
  C   C20       1.0  0.09514  0.09463  0.53656  1.0000
  C   C21       1.0  0.74329  0.81151  0.55598  1.0000
  C   C22       1.0  0.11085  0.18832  0.44383  1.0000
  C   C23       1.0  0.60344  0.82131  0.67323  1.0000
  C   C24       1.0  0.09821  0.17859  0.32653  1.0000
  C   C25       1.0  0.44674  0.92326  0.69688  1.0000
  C   C26       1.0  0.06702  0.07680  0.30290  1.0000
  C   C27       1.0  0.43270  0.01968  0.60579  1.0000
  C   C28       1.0  0.05812  0.98039  0.39398  1.0000
  C   C29       1.0  0.91142  0.70192  0.52281  1.0000
  C   C30       1.0  0.13621  0.29782  0.47699  1.0000
  C   C31       1.0  0.29611  0.92481  0.81780  1.0000
  C   C32       1.0  0.03918  0.07521  0.18184  1.0000
  C   C33       1.0  0.36695  0.65414  0.29658  1.0000
  C   C34       1.0  0.31750  0.34543  0.70344  1.0000
  C   C35       1.0  0.47159  0.54118  0.44567  1.0000
  C   C36       1.0  0.45881  0.45796  0.55418  1.0000
  C   C37       1.0  0.48583  0.70372  0.24188  1.0000
  C   C38       1.0  0.43100  0.29594  0.75844  1.0000
  C   C39       1.0  0.60106  0.66937  0.29073  1.0000
  C   C40       1.0  0.56084  0.33016  0.70965  1.0000
  C   C41       1.0  0.59758  0.58468  0.39499  1.0000
  C   C42       1.0  0.57728  0.41458  0.60519  1.0000
  C   C43       1.0  0.71360  0.54105  0.45023  1.0000
  C   C44       1.0  0.70486  0.45826  0.55026  1.0000
  S   S1        1.0  0.58068  0.04087  0.24225  1.0000
  S   S2        1.0  0.86328  0.95978  0.75805  1.0000
  N   N1        1.0  0.75038  0.15596  0.03908  1.0000
  N   N2        1.0  0.94490  0.84455  0.96117  1.0000
  N   N3        1.0  0.47642  0.28231  0.14390  1.0000
  N   N4        1.0  0.90232  0.71829  0.85622  1.0000
  N   N5        1.0  0.35957  0.57559  0.39611  1.0000
  N   N6        1.0  0.33154  0.42368  0.60366  1.0000
  O   O1        1.0  0.02399  0.67735  0.40435  1.0000
  O   O2        1.0  0.10601  0.32218  0.59539  1.0000
  O   O3        1.0  0.94185  0.63135  0.61689  1.0000
  O   O4        1.0  0.18986  0.36860  0.38302  1.0000
  O   O5        1.0  0.31316  0.84049  0.89988  1.0000
  O   O6        1.0  0.05456  0.15927  0.09960  1.0000
  O   O7        1.0  0.15326  0.01517  0.82704  1.0000
  O   O8        1.0  0.99556  0.98512  0.17274  1.0000
