data_image0
_chemical_formula_structural       La2P4H16C8O16
_chemical_formula_sum              "La2 P4 H16 C8 O16"
_cell_length_a       5.99777
_cell_length_b       10.0911
_cell_length_c       9.22946
_cell_angle_alpha    92.5101
_cell_angle_beta     106.738
_cell_angle_gamma    107.963

_space_group_name_H-M_alt    "P 1"
_space_group_IT_number       1

loop_
  _space_group_symop_operation_xyz
  'x, y, z'

loop_
  _atom_site_type_symbol
  _atom_site_label
  _atom_site_symmetry_multiplicity
  _atom_site_fract_x
  _atom_site_fract_y
  _atom_site_fract_z
  _atom_site_occupancy
  La  La1       1.0  0.78457  0.48038  0.18025  1.0000
  La  La2       1.0  0.21542  0.51962  0.81974  1.0000
  P   P1        1.0  0.44370  0.63537  0.26356  1.0000
  P   P2        1.0  0.55631  0.36463  0.73644  1.0000
  P   P3        1.0  0.19733  0.80545  0.06521  1.0000
  P   P4        1.0  0.80266  0.19455  0.93479  1.0000
  H   H1        1.0  0.62523  0.86071  0.19620  1.0000
  H   H2        1.0  0.37477  0.13929  0.80380  1.0000
  H   H3        1.0  0.09792  0.81484  0.36545  1.0000
  H   H4        1.0  0.90208  0.18516  0.63455  1.0000
  H   H5        1.0  0.85920  0.03386  0.40664  1.0000
  H   H6        1.0  0.14079  0.96614  0.59336  1.0000
  H   H7        1.0  0.12903  0.99985  0.11993  1.0000
  H   H8        1.0  0.87098  0.00015  0.88007  1.0000
  H   H9        1.0  0.26465  0.27760  0.08065  1.0000
  H   H10       1.0  0.73535  0.72240  0.91935  1.0000
  H   H11       1.0  0.45589  0.20247  0.15414  1.0000
  H   H12       1.0  0.54412  0.79754  0.84585  1.0000
  H   H13       1.0  0.79549  0.36921  0.49149  1.0000
  H   H14       1.0  0.20450  0.63079  0.50851  1.0000
  H   H15       1.0  0.03375  0.35617  0.46251  1.0000
  H   H16       1.0  0.96625  0.64383  0.53748  1.0000
  C   C1        1.0  0.46006  0.81652  0.23168  1.0000
  C   C2        1.0  0.53994  0.18347  0.76832  1.0000
  C   C3        1.0  0.47739  0.91047  0.36990  1.0000
  C   C4        1.0  0.52261  0.08953  0.63009  1.0000
  C   C5        1.0  0.27554  0.89579  0.42331  1.0000
  C   C6        1.0  0.72447  0.10422  0.57669  1.0000
  C   C7        1.0  0.70105  0.01694  0.44801  1.0000
  C   C8        1.0  0.29895  0.98307  0.55199  1.0000
  O   O1        1.0  0.22691  0.57633  0.32520  1.0000
  O   O2        1.0  0.77310  0.42368  0.67480  1.0000
  O   O3        1.0  0.95625  0.72128  0.09203  1.0000
  O   O4        1.0  0.04375  0.27872  0.90798  1.0000
  O   O5        1.0  0.69389  0.63118  0.36364  1.0000
  O   O6        1.0  0.30612  0.36882  0.63636  1.0000
  O   O7        1.0  0.39177  0.55465  0.10242  1.0000
  O   O8        1.0  0.60824  0.44535  0.89758  1.0000
  O   O9        1.0  0.20927  0.96671  0.05454  1.0000
  O   O10       1.0  0.79073  0.03328  0.94545  1.0000
  O   O11       1.0  0.23029  0.75489  0.91886  1.0000
  O   O12       1.0  0.76969  0.24510  0.08114  1.0000
  O   O13       1.0  0.39383  0.27752  0.17675  1.0000
  O   O14       1.0  0.60616  0.72248  0.82325  1.0000
  O   O15       1.0  0.86554  0.35587  0.40914  1.0000
  O   O16       1.0  0.13445  0.64413  0.59086  1.0000
