data_image0
_chemical_formula_structural       Cd4H36C40S16N20
_chemical_formula_sum              "Cd4 H36 C40 S16 N20"
_cell_length_a       7.91281
_cell_length_b       8.04482
_cell_length_c       25.5551
_cell_angle_alpha    90
_cell_angle_beta     90
_cell_angle_gamma    109.212

_space_group_name_H-M_alt    "P 1"
_space_group_IT_number       1

loop_
  _space_group_symop_operation_xyz
  'x, y, z'

loop_
  _atom_site_type_symbol
  _atom_site_label
  _atom_site_symmetry_multiplicity
  _atom_site_fract_x
  _atom_site_fract_y
  _atom_site_fract_z
  _atom_site_occupancy
  Cd  Cd1       1.0  0.11924  0.25852  0.34302  1.0000
  Cd  Cd2       1.0  0.38076  0.74147  0.84302  1.0000
  Cd  Cd3       1.0  0.88076  0.74147  0.65699  1.0000
  Cd  Cd4       1.0  0.61924  0.25853  0.15699  1.0000
  H   H1        1.0  0.90839  0.15682  0.50087  1.0000
  H   H2        1.0  0.59162  0.84319  0.00087  1.0000
  H   H3        1.0  0.09162  0.84319  0.49913  1.0000
  H   H4        1.0  0.40838  0.15681  0.99913  1.0000
  H   H5        1.0  0.93510  0.00504  0.24479  1.0000
  H   H6        1.0  0.56490  0.99496  0.74479  1.0000
  H   H7        1.0  0.06490  0.99496  0.75521  1.0000
  H   H8        1.0  0.43511  0.00504  0.25521  1.0000
  H   H9        1.0  0.67062  0.73829  0.22405  1.0000
  H   H10       1.0  0.82938  0.26171  0.72404  1.0000
  H   H11       1.0  0.32938  0.26171  0.77595  1.0000
  H   H12       1.0  0.17062  0.73829  0.27596  1.0000
  H   H13       1.0  0.46631  0.58866  0.29725  1.0000
  H   H14       1.0  0.03369  0.41134  0.79725  1.0000
  H   H15       1.0  0.53368  0.41134  0.70275  1.0000
  H   H16       1.0  0.96631  0.58866  0.20275  1.0000
  H   H17       1.0  0.53098  0.71689  0.38811  1.0000
  H   H18       1.0  0.96902  0.28311  0.88811  1.0000
  H   H19       1.0  0.46901  0.28311  0.61189  1.0000
  H   H20       1.0  0.03098  0.71690  0.11189  1.0000
  H   H21       1.0  0.71624  0.94154  0.44788  1.0000
  H   H22       1.0  0.78377  0.05846  0.94787  1.0000
  H   H23       1.0  0.28376  0.05846  0.55213  1.0000
  H   H24       1.0  0.21624  0.94154  0.05213  1.0000
  H   H25       1.0  0.48047  0.61319  0.52500  1.0000
  H   H26       1.0  0.01953  0.38681  0.02499  1.0000
  H   H27       1.0  0.51953  0.38681  0.47501  1.0000
  H   H28       1.0  0.98047  0.61319  0.97501  1.0000
  H   H29       1.0  0.36162  0.68542  0.57436  1.0000
  H   H30       1.0  0.13838  0.31457  0.07436  1.0000
  H   H31       1.0  0.63838  0.31457  0.42564  1.0000
  H   H32       1.0  0.86162  0.68542  0.92564  1.0000
  H   H33       1.0  0.32040  0.71757  0.50599  1.0000
  H   H34       1.0  0.17960  0.28243  0.00598  1.0000
  H   H35       1.0  0.67960  0.28243  0.49401  1.0000
  H   H36       1.0  0.82040  0.71756  0.99401  1.0000
  C   C1        1.0  0.84183  0.93641  0.27528  1.0000
  C   C2        1.0  0.65817  0.06359  0.77528  1.0000
  C   C3        1.0  0.15817  0.06359  0.72472  1.0000
  C   C4        1.0  0.34183  0.93641  0.22472  1.0000
  C   C5        1.0  0.69487  0.78781  0.26397  1.0000
  C   C6        1.0  0.80513  0.21219  0.76397  1.0000
  C   C7        1.0  0.30513  0.21219  0.73603  1.0000
  C   C8        1.0  0.19488  0.78781  0.23603  1.0000
  C   C9        1.0  0.58107  0.70571  0.30475  1.0000
  C   C10       1.0  0.91893  0.29429  0.80475  1.0000
  C   C11       1.0  0.41893  0.29429  0.69525  1.0000
  C   C12       1.0  0.08107  0.70571  0.19525  1.0000
  C   C13       1.0  0.61633  0.77572  0.35500  1.0000
  C   C14       1.0  0.88367  0.22428  0.85500  1.0000
  C   C15       1.0  0.38367  0.22428  0.64500  1.0000
  C   C16       1.0  0.11633  0.77572  0.14500  1.0000
  C   C17       1.0  0.76578  0.92511  0.36318  1.0000
  C   C18       1.0  0.73422  0.07489  0.86318  1.0000
  C   C19       1.0  0.23422  0.07489  0.63682  1.0000
  C   C20       1.0  0.26578  0.92511  0.13682  1.0000
  C   C21       1.0  0.80585  0.00117  0.41537  1.0000
  C   C22       1.0  0.69415  0.99882  0.91537  1.0000
  C   C23       1.0  0.19415  0.99882  0.58463  1.0000
  C   C24       1.0  0.30585  0.00118  0.08463  1.0000
  C   C25       1.0  0.13584  0.36176  0.47305  1.0000
  C   C26       1.0  0.36416  0.63824  0.97305  1.0000
  C   C27       1.0  0.86415  0.63824  0.52695  1.0000
  C   C28       1.0  0.63584  0.36176  0.02695  1.0000
  C   C29       1.0  0.35276  0.63113  0.53462  1.0000
  C   C30       1.0  0.14724  0.36888  0.03462  1.0000
  C   C31       1.0  0.64723  0.36887  0.46538  1.0000
  C   C32       1.0  0.85277  0.63113  0.96538  1.0000
  C   C33       1.0  0.29044  0.37755  0.22101  1.0000
  C   C34       1.0  0.20956  0.62244  0.72101  1.0000
  C   C35       1.0  0.70957  0.62245  0.77899  1.0000
  C   C36       1.0  0.79045  0.37755  0.27899  1.0000
  C   C37       1.0  0.29552  0.00482  0.41302  1.0000
  C   C38       1.0  0.20449  0.99518  0.91302  1.0000
  C   C39       1.0  0.70448  0.99517  0.58697  1.0000
  C   C40       1.0  0.79551  0.00482  0.08698  1.0000
  S   S1        1.0  0.25806  0.47551  0.42342  1.0000
  S   S2        1.0  0.24194  0.52449  0.92342  1.0000
  S   S3        1.0  0.74194  0.52449  0.57658  1.0000
  S   S4        1.0  0.75806  0.47551  0.07658  1.0000
  S   S5        1.0  0.17678  0.42287  0.53841  1.0000
  S   S6        1.0  0.32321  0.57713  0.03841  1.0000
  S   S7        1.0  0.82321  0.57713  0.46159  1.0000
  S   S8        1.0  0.67679  0.42287  0.96159  1.0000
  S   S9        1.0  0.39638  0.46356  0.16779  1.0000
  S   S10       1.0  0.10362  0.53644  0.66779  1.0000
  S   S11       1.0  0.60363  0.53644  0.83221  1.0000
  S   S12       1.0  0.89638  0.46356  0.33221  1.0000
  S   S13       1.0  0.36727  0.09305  0.35612  1.0000
  S   S14       1.0  0.13274  0.90695  0.85612  1.0000
  S   S15       1.0  0.63273  0.90695  0.64388  1.0000
  S   S16       1.0  0.86727  0.09305  0.14388  1.0000
  N   N1        1.0  0.87690  0.00296  0.32349  1.0000
  N   N2        1.0  0.62310  0.99704  0.82349  1.0000
  N   N3        1.0  0.12310  0.99704  0.67651  1.0000
  N   N4        1.0  0.37691  0.00296  0.17651  1.0000
  N   N5        1.0  0.94688  0.13809  0.42111  1.0000
  N   N6        1.0  0.55312  0.86191  0.92111  1.0000
  N   N7        1.0  0.05311  0.86191  0.57889  1.0000
  N   N8        1.0  0.44688  0.13809  0.07889  1.0000
  N   N9        1.0  0.99214  0.21249  0.46822  1.0000
  N   N10       1.0  0.50786  0.78751  0.96822  1.0000
  N   N11       1.0  0.00786  0.78751  0.53178  1.0000
  N   N12       1.0  0.49214  0.21249  0.03178  1.0000
  N   N13       1.0  0.21248  0.31600  0.25972  1.0000
  N   N14       1.0  0.28753  0.68402  0.75972  1.0000
  N   N15       1.0  0.78753  0.68401  0.74028  1.0000
  N   N16       1.0  0.71248  0.31600  0.24028  1.0000
  N   N17       1.0  0.24660  0.94199  0.45454  1.0000
  N   N18       1.0  0.25341  0.05801  0.95454  1.0000
  N   N19       1.0  0.75340  0.05800  0.54546  1.0000
  N   N20       1.0  0.74660  0.94199  0.04546  1.0000
