data_image0
_chemical_formula_structural       Gd4H32C32N4O36
_chemical_formula_sum              "Gd4 H32 C32 N4 O36"
_cell_length_a       7.156
_cell_length_b       11.9485
_cell_length_c       13.505
_cell_angle_alpha    96.2314
_cell_angle_beta     90
_cell_angle_gamma    90

_space_group_name_H-M_alt    "P 1"
_space_group_IT_number       1

loop_
  _space_group_symop_operation_xyz
  'x, y, z'

loop_
  _atom_site_type_symbol
  _atom_site_label
  _atom_site_symmetry_multiplicity
  _atom_site_fract_x
  _atom_site_fract_y
  _atom_site_fract_z
  _atom_site_occupancy
  Gd  Gd1       1.0  0.73375  0.71794  0.29220  1.0000
  Gd  Gd2       1.0  0.23375  0.28206  0.20780  1.0000
  Gd  Gd3       1.0  0.26624  0.28206  0.70780  1.0000
  Gd  Gd4       1.0  0.76625  0.71794  0.79220  1.0000
  H   H1        1.0  0.97393  0.56293  0.16500  1.0000
  H   H2        1.0  0.47393  0.43707  0.33500  1.0000
  H   H3        1.0  0.02607  0.43707  0.83500  1.0000
  H   H4        1.0  0.52607  0.56293  0.66500  1.0000
  H   H5        1.0  0.90077  0.63610  0.07798  1.0000
  H   H6        1.0  0.40076  0.36390  0.42202  1.0000
  H   H7        1.0  0.09923  0.36390  0.92202  1.0000
  H   H8        1.0  0.59924  0.63609  0.57798  1.0000
  H   H9        1.0  0.05343  0.87941  0.30458  1.0000
  H   H10       1.0  0.55344  0.12059  0.19542  1.0000
  H   H11       1.0  0.94656  0.12059  0.69542  1.0000
  H   H12       1.0  0.44656  0.87940  0.80458  1.0000
  H   H13       1.0  0.16111  0.76540  0.30187  1.0000
  H   H14       1.0  0.66111  0.23460  0.19813  1.0000
  H   H15       1.0  0.83889  0.23460  0.69813  1.0000
  H   H16       1.0  0.33889  0.76540  0.80187  1.0000
  H   H17       1.0  0.84078  0.93566  0.41773  1.0000
  H   H18       1.0  0.34079  0.06435  0.08227  1.0000
  H   H19       1.0  0.15922  0.06434  0.58227  1.0000
  H   H20       1.0  0.65922  0.93565  0.91772  1.0000
  H   H21       1.0  0.71727  0.87365  0.49366  1.0000
  H   H22       1.0  0.21727  0.12635  0.00635  1.0000
  H   H23       1.0  0.28273  0.12635  0.50635  1.0000
  H   H24       1.0  0.78273  0.87365  0.99365  1.0000
  H   H25       1.0  0.21999  0.52201  0.02343  1.0000
  H   H26       1.0  0.71999  0.47799  0.47656  1.0000
  H   H27       1.0  0.78000  0.47799  0.97657  1.0000
  H   H28       1.0  0.28001  0.52202  0.52343  1.0000
  H   H29       1.0  0.30275  0.87759  0.99990  1.0000
  H   H30       1.0  0.80274  0.12241  0.50009  1.0000
  H   H31       1.0  0.69726  0.12240  0.00009  1.0000
  H   H32       1.0  0.19726  0.87760  0.49990  1.0000
  C   C1        1.0  0.42666  0.60959  0.11827  1.0000
  C   C2        1.0  0.92665  0.39041  0.38173  1.0000
  C   C3        1.0  0.57335  0.39040  0.88173  1.0000
  C   C4        1.0  0.07335  0.60960  0.61827  1.0000
  C   C5        1.0  0.28840  0.60234  0.04513  1.0000
  C   C6        1.0  0.78839  0.39766  0.45487  1.0000
  C   C7        1.0  0.71160  0.39766  0.95487  1.0000
  C   C8        1.0  0.21161  0.60234  0.54513  1.0000
  C   C9        1.0  0.24092  0.70019  0.00264  1.0000
  C   C10       1.0  0.74092  0.29981  0.49736  1.0000
  C   C11       1.0  0.75907  0.29981  0.99736  1.0000
  C   C12       1.0  0.25908  0.70019  0.50264  1.0000
  C   C13       1.0  0.33449  0.80063  0.03297  1.0000
  C   C14       1.0  0.83449  0.19937  0.46703  1.0000
  C   C15       1.0  0.66551  0.19937  0.96703  1.0000
  C   C16       1.0  0.16551  0.80063  0.53297  1.0000
  C   C17       1.0  0.46807  0.80056  0.10799  1.0000
  C   C18       1.0  0.96807  0.19944  0.39201  1.0000
  C   C19       1.0  0.53193  0.19944  0.89201  1.0000
  C   C20       1.0  0.03193  0.80056  0.60799  1.0000
  C   C21       1.0  0.47854  0.51249  0.17532  1.0000
  C   C22       1.0  0.97854  0.48751  0.32468  1.0000
  C   C23       1.0  0.52146  0.48750  0.82468  1.0000
  C   C24       1.0  0.02146  0.51249  0.67532  1.0000
  C   C25       1.0  0.08276  0.70294  0.93048  1.0000
  C   C26       1.0  0.58276  0.29706  0.56953  1.0000
  C   C27       1.0  0.91724  0.29706  0.06952  1.0000
  C   C28       1.0  0.41724  0.70294  0.43048  1.0000
  C   C29       1.0  0.57202  0.90419  0.15216  1.0000
  C   C30       1.0  0.07202  0.09581  0.34784  1.0000
  C   C31       1.0  0.42797  0.09582  0.84784  1.0000
  C   C32       1.0  0.92798  0.90419  0.65216  1.0000
  N   N1        1.0  0.51202  0.70694  0.14892  1.0000
  N   N2        1.0  0.01202  0.29306  0.35108  1.0000
  N   N3        1.0  0.48797  0.29306  0.85108  1.0000
  N   N4        1.0  0.98798  0.70694  0.64892  1.0000
  O   O1        1.0  0.57109  0.53602  0.25558  1.0000
  O   O2        1.0  0.07109  0.46398  0.24442  1.0000
  O   O3        1.0  0.42891  0.46398  0.74442  1.0000
  O   O4        1.0  0.92892  0.53602  0.75558  1.0000
  O   O5        1.0  0.42238  0.41513  0.14244  1.0000
  O   O6        1.0  0.92238  0.58487  0.35756  1.0000
  O   O7        1.0  0.57762  0.58487  0.85756  1.0000
  O   O8        1.0  0.07762  0.41513  0.64244  1.0000
  O   O9        1.0  0.92346  0.66673  0.95567  1.0000
  O   O10       1.0  0.42346  0.33328  0.54433  1.0000
  O   O11       1.0  0.07654  0.33328  0.04433  1.0000
  O   O12       1.0  0.57654  0.66672  0.45567  1.0000
  O   O13       1.0  0.10699  0.74521  0.84924  1.0000
  O   O14       1.0  0.60699  0.25479  0.65076  1.0000
  O   O15       1.0  0.89301  0.25479  0.15076  1.0000
  O   O16       1.0  0.39301  0.74521  0.34924  1.0000
  O   O17       1.0  0.69576  0.88843  0.21660  1.0000
  O   O18       1.0  0.19577  0.11158  0.28340  1.0000
  O   O19       1.0  0.30424  0.11157  0.78341  1.0000
  O   O20       1.0  0.80423  0.88842  0.71660  1.0000
  O   O21       1.0  0.53248  0.99777  0.12129  1.0000
  O   O22       1.0  0.03248  0.00224  0.37870  1.0000
  O   O23       1.0  0.46752  0.00223  0.87871  1.0000
  O   O24       1.0  0.96751  0.99776  0.62130  1.0000
  O   O25       1.0  0.87486  0.61403  0.14558  1.0000
  O   O26       1.0  0.37486  0.38597  0.35442  1.0000
  O   O27       1.0  0.12514  0.38597  0.85442  1.0000
  O   O28       1.0  0.62514  0.61403  0.64558  1.0000
  O   O29       1.0  0.04307  0.79792  0.27956  1.0000
  O   O30       1.0  0.54307  0.20207  0.22044  1.0000
  O   O31       1.0  0.95693  0.20208  0.72044  1.0000
  O   O32       1.0  0.45693  0.79792  0.77956  1.0000
  O   O33       1.0  0.74389  0.87650  0.42355  1.0000
  O   O34       1.0  0.24390  0.12350  0.07645  1.0000
  O   O35       1.0  0.25611  0.12350  0.57645  1.0000
  O   O36       1.0  0.75610  0.87650  0.92355  1.0000
