data_image0
_chemical_formula_structural       Dy4H28C56N8O32
_chemical_formula_sum              "Dy4 H28 C56 N8 O32"
_cell_length_a       8.35422
_cell_length_b       12.2228
_cell_length_c       13.4698
_cell_angle_alpha    102.324
_cell_angle_beta     90
_cell_angle_gamma    90

_space_group_name_H-M_alt    "P 1"
_space_group_IT_number       1

loop_
  _space_group_symop_operation_xyz
  'x, y, z'

loop_
  _atom_site_type_symbol
  _atom_site_label
  _atom_site_symmetry_multiplicity
  _atom_site_fract_x
  _atom_site_fract_y
  _atom_site_fract_z
  _atom_site_occupancy
  Dy  Dy1       1.0  0.77278  0.80153  0.18292  1.0000
  Dy  Dy2       1.0  0.27278  0.19848  0.31708  1.0000
  Dy  Dy3       1.0  0.22722  0.19848  0.81708  1.0000
  Dy  Dy4       1.0  0.72722  0.80153  0.68292  1.0000
  H   H1        1.0  0.31016  0.47629  0.12469  1.0000
  H   H2        1.0  0.81016  0.52371  0.37531  1.0000
  H   H3        1.0  0.68984  0.52371  0.87531  1.0000
  H   H4        1.0  0.18984  0.47629  0.62469  1.0000
  H   H5        1.0  0.48741  0.30734  0.09083  1.0000
  H   H6        1.0  0.98741  0.69266  0.40917  1.0000
  H   H7        1.0  0.51259  0.69266  0.90917  1.0000
  H   H8        1.0  0.01259  0.30734  0.59083  1.0000
  H   H9        1.0  0.78852  0.33614  0.09320  1.0000
  H   H10       1.0  0.28852  0.66386  0.40680  1.0000
  H   H11       1.0  0.21148  0.66386  0.90679  1.0000
  H   H12       1.0  0.71148  0.33614  0.59320  1.0000
  H   H13       1.0  0.35723  0.97383  0.11209  1.0000
  H   H14       1.0  0.85723  0.02617  0.38791  1.0000
  H   H15       1.0  0.64277  0.02617  0.88791  1.0000
  H   H16       1.0  0.14277  0.97383  0.61209  1.0000
  H   H17       1.0  0.09323  0.84396  0.83533  1.0000
  H   H18       1.0  0.59324  0.15604  0.66467  1.0000
  H   H19       1.0  0.90677  0.15604  0.16467  1.0000
  H   H20       1.0  0.40676  0.84396  0.33533  1.0000
  H   H21       1.0  0.34955  0.91859  0.92093  1.0000
  H   H22       1.0  0.84955  0.08141  0.57907  1.0000
  H   H23       1.0  0.65045  0.08141  0.07907  1.0000
  H   H24       1.0  0.15044  0.91859  0.42093  1.0000
  H   H25       1.0  0.09989  0.65958  0.15948  1.0000
  H   H26       1.0  0.59990  0.34042  0.34052  1.0000
  H   H27       1.0  0.90011  0.34042  0.84052  1.0000
  H   H28       1.0  0.40011  0.65958  0.65948  1.0000
  C   C1        1.0  0.44024  0.48466  0.12562  1.0000
  C   C2        1.0  0.94024  0.51534  0.37438  1.0000
  C   C3        1.0  0.55976  0.51534  0.87438  1.0000
  C   C4        1.0  0.05976  0.48466  0.62562  1.0000
  C   C5        1.0  0.50969  0.59113  0.14461  1.0000
  C   C6        1.0  0.00969  0.40887  0.35539  1.0000
  C   C7        1.0  0.49031  0.40887  0.85539  1.0000
  C   C8        1.0  0.99031  0.59113  0.64461  1.0000
  C   C9        1.0  0.76480  0.51529  0.12746  1.0000
  C   C10       1.0  0.26480  0.48471  0.37254  1.0000
  C   C11       1.0  0.23520  0.48471  0.87254  1.0000
  C   C12       1.0  0.73520  0.51529  0.62746  1.0000
  C   C13       1.0  0.54006  0.39082  0.10696  1.0000
  C   C14       1.0  0.04006  0.60918  0.39304  1.0000
  C   C15       1.0  0.45994  0.60918  0.89304  1.0000
  C   C16       1.0  0.95994  0.39082  0.60696  1.0000
  C   C17       1.0  0.70539  0.40620  0.10753  1.0000
  C   C18       1.0  0.20539  0.59380  0.39247  1.0000
  C   C19       1.0  0.29461  0.59380  0.89247  1.0000
  C   C20       1.0  0.79461  0.40620  0.60753  1.0000
  C   C21       1.0  0.41408  0.69892  0.16589  1.0000
  C   C22       1.0  0.91408  0.30108  0.33411  1.0000
  C   C23       1.0  0.58592  0.30108  0.83411  1.0000
  C   C24       1.0  0.08592  0.69892  0.66589  1.0000
  C   C25       1.0  0.94070  0.53655  0.12945  1.0000
  C   C26       1.0  0.44070  0.46345  0.37055  1.0000
  C   C27       1.0  0.05930  0.46345  0.87055  1.0000
  C   C28       1.0  0.55930  0.53655  0.62945  1.0000
  C   C29       1.0  0.81651  0.79203  0.93866  1.0000
  C   C30       1.0  0.31651  0.20797  0.56134  1.0000
  C   C31       1.0  0.18349  0.20797  0.06134  1.0000
  C   C32       1.0  0.68349  0.79203  0.43866  1.0000
  C   C33       1.0  0.97616  0.84148  0.97773  1.0000
  C   C34       1.0  0.47616  0.15852  0.52227  1.0000
  C   C35       1.0  0.02384  0.15852  0.02228  1.0000
  C   C36       1.0  0.52384  0.84148  0.47772  1.0000
  C   C37       1.0  0.25173  0.93541  0.07167  1.0000
  C   C38       1.0  0.75173  0.06459  0.42833  1.0000
  C   C39       1.0  0.74827  0.06459  0.92833  1.0000
  C   C40       1.0  0.24827  0.93541  0.57167  1.0000
  C   C41       1.0  0.11726  0.91354  0.12567  1.0000
  C   C42       1.0  0.61726  0.08646  0.37433  1.0000
  C   C43       1.0  0.88274  0.08646  0.87433  1.0000
  C   C44       1.0  0.38274  0.91354  0.62567  1.0000
  C   C45       1.0  0.10373  0.94282  0.23931  1.0000
  C   C46       1.0  0.60373  0.05718  0.26069  1.0000
  C   C47       1.0  0.89627  0.05718  0.76069  1.0000
  C   C48       1.0  0.39627  0.94282  0.73931  1.0000
  C   C49       1.0  0.10417  0.86211  0.91779  1.0000
  C   C50       1.0  0.60418  0.13789  0.58221  1.0000
  C   C51       1.0  0.89582  0.13789  0.08221  1.0000
  C   C52       1.0  0.39582  0.86211  0.41779  1.0000
  C   C53       1.0  0.24575  0.90603  0.96603  1.0000
  C   C54       1.0  0.74574  0.09397  0.53397  1.0000
  C   C55       1.0  0.75426  0.09397  0.03397  1.0000
  C   C56       1.0  0.25425  0.90603  0.46603  1.0000
  N   N1        1.0  0.66921  0.60559  0.14582  1.0000
  N   N2        1.0  0.16921  0.39441  0.35418  1.0000
  N   N3        1.0  0.33079  0.39441  0.85418  1.0000
  N   N4        1.0  0.83079  0.60559  0.64582  1.0000
  N   N5        1.0  0.98587  0.86432  0.07966  1.0000
  N   N6        1.0  0.48587  0.13568  0.42034  1.0000
  N   N7        1.0  0.01413  0.13568  0.92034  1.0000
  N   N8        1.0  0.51413  0.86433  0.57966  1.0000
  O   O1        1.0  0.49488  0.78895  0.17542  1.0000
  O   O2        1.0  0.99487  0.21105  0.32458  1.0000
  O   O3        1.0  0.50513  0.21105  0.82458  1.0000
  O   O4        1.0  0.00512  0.78895  0.67542  1.0000
  O   O5        1.0  0.26449  0.69594  0.17621  1.0000
  O   O6        1.0  0.76449  0.30406  0.32379  1.0000
  O   O7        1.0  0.73551  0.30406  0.82379  1.0000
  O   O8        1.0  0.23551  0.69594  0.67621  1.0000
  O   O9        1.0  0.97614  0.64687  0.15395  1.0000
  O   O10       1.0  0.47614  0.35313  0.34605  1.0000
  O   O11       1.0  0.02386  0.35313  0.84605  1.0000
  O   O12       1.0  0.52386  0.64687  0.65395  1.0000
  O   O13       1.0  0.04128  0.46223  0.11160  1.0000
  O   O14       1.0  0.54128  0.53777  0.38840  1.0000
  O   O15       1.0  0.95872  0.53778  0.88840  1.0000
  O   O16       1.0  0.45872  0.46223  0.61160  1.0000
  O   O17       1.0  0.72457  0.76626  0.00551  1.0000
  O   O18       1.0  0.22457  0.23374  0.49449  1.0000
  O   O19       1.0  0.27543  0.23374  0.99449  1.0000
  O   O20       1.0  0.77543  0.76626  0.50551  1.0000
  O   O21       1.0  0.99743  0.89169  0.27914  1.0000
  O   O22       1.0  0.49743  0.10831  0.22086  1.0000
  O   O23       1.0  0.00257  0.10831  0.72086  1.0000
  O   O24       1.0  0.50257  0.89169  0.77914  1.0000
  O   O25       1.0  0.78258  0.78045  0.84540  1.0000
  O   O26       1.0  0.28258  0.21955  0.65460  1.0000
  O   O27       1.0  0.21742  0.21955  0.15460  1.0000
  O   O28       1.0  0.71742  0.78045  0.34540  1.0000
  O   O29       1.0  0.19609  0.01792  0.28816  1.0000
  O   O30       1.0  0.69609  0.98208  0.21184  1.0000
  O   O31       1.0  0.80391  0.98208  0.71184  1.0000
  O   O32       1.0  0.30391  0.01792  0.78816  1.0000
