data_image0
_chemical_formula_structural       Cd2H14C20N6O8
_chemical_formula_sum              "Cd2 H14 C20 N6 O8"
_cell_length_a       7.03279
_cell_length_b       10.2254
_cell_length_c       9.19094
_cell_angle_alpha    92.9353
_cell_angle_beta     116.729
_cell_angle_gamma    104.815

_space_group_name_H-M_alt    "P 1"
_space_group_IT_number       1

loop_
  _space_group_symop_operation_xyz
  'x, y, z'

loop_
  _atom_site_type_symbol
  _atom_site_label
  _atom_site_symmetry_multiplicity
  _atom_site_fract_x
  _atom_site_fract_y
  _atom_site_fract_z
  _atom_site_occupancy
  Cd  Cd1       1.0  0.56618  0.75062  0.86517  1.0000
  Cd  Cd2       1.0  0.43382  0.24937  0.13483  1.0000
  H   H1        1.0  0.23133  0.42463  0.70137  1.0000
  H   H2        1.0  0.76866  0.57537  0.29863  1.0000
  H   H3        1.0  0.00862  0.26537  0.42444  1.0000
  H   H4        1.0  0.99137  0.73463  0.57556  1.0000
  H   H5        1.0  0.00500  0.35628  0.17551  1.0000
  H   H6        1.0  0.99499  0.64372  0.82449  1.0000
  H   H7        1.0  0.23213  0.59661  0.21170  1.0000
  H   H8        1.0  0.76786  0.40339  0.78829  1.0000
  H   H9        1.0  0.46449  0.83050  0.26685  1.0000
  H   H10       1.0  0.53557  0.16950  0.73315  1.0000
  H   H11       1.0  0.83619  0.05032  0.47009  1.0000
  H   H12       1.0  0.16386  0.94967  0.52993  1.0000
  H   H13       1.0  0.96154  0.00004  0.76553  1.0000
  H   H14       1.0  0.03845  0.99996  0.23449  1.0000
  C   C1        1.0  0.23008  0.45921  0.59086  1.0000
  C   C2        1.0  0.76990  0.54079  0.40913  1.0000
  C   C3        1.0  0.10577  0.37085  0.43729  1.0000
  C   C4        1.0  0.89423  0.62915  0.56270  1.0000
  C   C5        1.0  0.10330  0.42121  0.29852  1.0000
  C   C6        1.0  0.89669  0.57879  0.70147  1.0000
  C   C7        1.0  0.22860  0.55677  0.31841  1.0000
  C   C8        1.0  0.77139  0.44323  0.68159  1.0000
  C   C9        1.0  0.35623  0.63810  0.47813  1.0000
  C   C10       1.0  0.64378  0.36191  0.52187  1.0000
  C   C11       1.0  0.51640  0.77443  0.51201  1.0000
  C   C12       1.0  0.48359  0.22559  0.48799  1.0000
  C   C13       1.0  0.55711  0.85316  0.40126  1.0000
  C   C14       1.0  0.44291  0.14685  0.59874  1.0000
  C   C15       1.0  0.37719  0.98058  0.92501  1.0000
  C   C16       1.0  0.62283  0.01940  0.07499  1.0000
  C   C17       1.0  0.39472  0.51091  0.00367  1.0000
  C   C18       1.0  0.60523  0.48909  0.99634  1.0000
  C   C19       1.0  0.74541  0.96434  0.50199  1.0000
  C   C20       1.0  0.25462  0.03565  0.49802  1.0000
  N   N1        1.0  0.35157  0.58984  0.61121  1.0000
  N   N2        1.0  0.64842  0.41017  0.38878  1.0000
  N   N3        1.0  0.67155  0.83533  0.67029  1.0000
  N   N4        1.0  0.32844  0.16467  0.32971  1.0000
  N   N5        1.0  0.80763  0.95051  0.66170  1.0000
  N   N6        1.0  0.19237  0.04950  0.33832  1.0000
  O   O1        1.0  0.31546  0.88175  0.80995  1.0000
  O   O2        1.0  0.68456  0.11824  0.19003  1.0000
  O   O3        1.0  0.25444  0.05255  0.92887  1.0000
  O   O4        1.0  0.74562  0.94743  0.07112  1.0000
  O   O5        1.0  0.36931  0.62886  0.99147  1.0000
  O   O6        1.0  0.63064  0.37115  0.00852  1.0000
  O   O7        1.0  0.26350  0.40933  0.02082  1.0000
  O   O8        1.0  0.73648  0.59068  0.97918  1.0000
