data_image0
_chemical_formula_structural       Hg4H24C12N4Cl8
_chemical_formula_sum              "Hg4 H24 C12 N4 Cl8"
_cell_length_a       6.26343
_cell_length_b       6.26346
_cell_length_c       14.9147
_cell_angle_alpha    90.0003
_cell_angle_beta     89.9999
_cell_angle_gamma    92.6331

_space_group_name_H-M_alt    "P 1"
_space_group_IT_number       1

loop_
  _space_group_symop_operation_xyz
  'x, y, z'

loop_
  _atom_site_type_symbol
  _atom_site_label
  _atom_site_symmetry_multiplicity
  _atom_site_fract_x
  _atom_site_fract_y
  _atom_site_fract_z
  _atom_site_occupancy
  Hg  Hg1       1.0  0.73738  0.73737  0.51390  1.0000
  Hg  Hg2       1.0  0.26262  0.26263  0.01390  1.0000
  Hg  Hg3       1.0  0.73737  0.73737  0.98610  1.0000
  Hg  Hg4       1.0  0.26264  0.26263  0.48610  1.0000
  H   H1        1.0  0.62031  0.42564  0.67051  1.0000
  H   H2        1.0  0.37967  0.57438  0.17051  1.0000
  H   H3        1.0  0.42564  0.62032  0.82949  1.0000
  H   H4        1.0  0.57438  0.37967  0.32949  1.0000
  H   H5        1.0  0.37968  0.57438  0.32949  1.0000
  H   H6        1.0  0.62033  0.42561  0.82949  1.0000
  H   H7        1.0  0.57437  0.37968  0.17051  1.0000
  H   H8        1.0  0.42561  0.62033  0.67051  1.0000
  H   H9        1.0  0.53132  0.99398  0.67154  1.0000
  H   H10       1.0  0.46867  0.00602  0.17154  1.0000
  H   H11       1.0  0.99400  0.53134  0.82846  1.0000
  H   H12       1.0  0.00601  0.46868  0.32846  1.0000
  H   H13       1.0  0.46868  0.00601  0.32846  1.0000
  H   H14       1.0  0.53131  0.99399  0.82846  1.0000
  H   H15       1.0  0.00601  0.46867  0.17155  1.0000
  H   H16       1.0  0.99398  0.53131  0.67154  1.0000
  H   H17       1.0  0.80728  0.07438  0.67129  1.0000
  H   H18       1.0  0.19272  0.92561  0.17129  1.0000
  H   H19       1.0  0.07438  0.80730  0.82871  1.0000
  H   H20       1.0  0.92562  0.19272  0.32871  1.0000
  H   H21       1.0  0.19272  0.92562  0.32870  1.0000
  H   H22       1.0  0.80727  0.07437  0.82870  1.0000
  H   H23       1.0  0.92561  0.19271  0.17129  1.0000
  H   H24       1.0  0.07438  0.80727  0.67129  1.0000
  C   C1        1.0  0.58086  0.58083  0.69812  1.0000
  C   C2        1.0  0.41915  0.41915  0.19812  1.0000
  C   C3        1.0  0.58084  0.58087  0.80188  1.0000
  C   C4        1.0  0.41916  0.41914  0.30188  1.0000
  C   C5        1.0  0.68859  0.95731  0.69811  1.0000
  C   C6        1.0  0.31142  0.04268  0.19811  1.0000
  C   C7        1.0  0.95733  0.68861  0.80189  1.0000
  C   C8        1.0  0.04267  0.31140  0.30189  1.0000
  C   C9        1.0  0.31139  0.04267  0.30188  1.0000
  C   C10       1.0  0.68863  0.95735  0.80189  1.0000
  C   C11       1.0  0.04267  0.31140  0.19812  1.0000
  C   C12       1.0  0.95733  0.68861  0.69811  1.0000
  N   N1        1.0  0.74262  0.74262  0.66419  1.0000
  N   N2        1.0  0.25737  0.25738  0.16419  1.0000
  N   N3        1.0  0.74262  0.74262  0.83580  1.0000
  N   N4        1.0  0.25739  0.25738  0.33581  1.0000
  Cl  Cl1       1.0  0.28488  0.71512  0.50000  1.0000
  Cl  Cl2       1.0  0.71512  0.28488  0.00000  1.0000
  Cl  Cl3       1.0  0.71513  0.28487  0.50000  1.0000
  Cl  Cl4       1.0  0.28487  0.71513  1.00000  1.0000
  Cl  Cl5       1.0  0.80234  0.80234  0.35933  1.0000
  Cl  Cl6       1.0  0.19766  0.19767  0.85933  1.0000
  Cl  Cl7       1.0  0.80234  0.80234  0.14068  1.0000
  Cl  Cl8       1.0  0.19766  0.19766  0.64067  1.0000
