data_image0
_chemical_formula_structural       CuH16C16N4O4
_chemical_formula_sum              "Cu1 H16 C16 N4 O4"
_cell_length_a       4.53618
_cell_length_b       9.34108
_cell_length_c       10.7872
_cell_angle_alpha    73.6755
_cell_angle_beta     85.7809
_cell_angle_gamma    78.3588

_space_group_name_H-M_alt    "P 1"
_space_group_IT_number       1

loop_
  _space_group_symop_operation_xyz
  'x, y, z'

loop_
  _atom_site_type_symbol
  _atom_site_label
  _atom_site_symmetry_multiplicity
  _atom_site_fract_x
  _atom_site_fract_y
  _atom_site_fract_z
  _atom_site_occupancy
  Cu  Cu1       1.0  0.50000  0.50000  0.50000  1.0000
  H   H1        1.0  0.57003  0.96499  0.65646  1.0000
  H   H2        1.0  0.42997  0.03501  0.34354  1.0000
  H   H3        1.0  0.18835  0.05995  0.61887  1.0000
  H   H4        1.0  0.81166  0.94006  0.38113  1.0000
  H   H5        1.0  0.32065  0.01151  0.78017  1.0000
  H   H6        1.0  0.67935  0.98850  0.21983  1.0000
  H   H7        1.0  0.35485  0.78864  0.60600  1.0000
  H   H8        1.0  0.64515  0.21135  0.39401  1.0000
  H   H9        1.0  0.95514  0.80577  0.80963  1.0000
  H   H10       1.0  0.04487  0.19422  0.19038  1.0000
  H   H11       1.0  0.97478  0.39406  0.70985  1.0000
  H   H12       1.0  0.02521  0.60594  0.29015  1.0000
  H   H13       1.0  0.69170  0.73808  0.96876  1.0000
  H   H14       1.0  0.30830  0.26192  0.03123  1.0000
  H   H15       1.0  0.64796  0.33623  0.85062  1.0000
  H   H16       1.0  0.35204  0.66376  0.14938  1.0000
  C   C1        1.0  0.38212  0.04997  0.67748  1.0000
  C   C2        1.0  0.61790  0.95003  0.32251  1.0000
  C   C3        1.0  0.48792  0.20012  0.65070  1.0000
  C   C4        1.0  0.51209  0.79988  0.34929  1.0000
  C   C5        1.0  0.21369  0.71034  0.65804  1.0000
  C   C6        1.0  0.78630  0.28966  0.34196  1.0000
  C   C7        1.0  0.01627  0.71921  0.75882  1.0000
  C   C8        1.0  0.98373  0.28079  0.24118  1.0000
  C   C9        1.0  0.02915  0.50214  0.70986  1.0000
  C   C10       1.0  0.97084  0.49786  0.29014  1.0000
  C   C11       1.0  0.60730  0.63387  0.98062  1.0000
  C   C12       1.0  0.39269  0.36613  0.01937  1.0000
  C   C13       1.0  0.58855  0.40826  0.91618  1.0000
  C   C14       1.0  0.41144  0.59174  0.08382  1.0000
  C   C15       1.0  0.69693  0.54309  0.89611  1.0000
  C   C16       1.0  0.30305  0.45691  0.10388  1.0000
  N   N1        1.0  0.22116  0.57477  0.62907  1.0000
  N   N2        1.0  0.77883  0.42523  0.37094  1.0000
  N   N3        1.0  0.89905  0.58675  0.79146  1.0000
  N   N4        1.0  0.10095  0.41325  0.20854  1.0000
  O   O1        1.0  0.68527  0.21443  0.71923  1.0000
  O   O2        1.0  0.31474  0.78557  0.28076  1.0000
  O   O3        1.0  0.36148  0.30480  0.55263  1.0000
  O   O4        1.0  0.63852  0.69520  0.44737  1.0000
