data_image0
_chemical_formula_structural       Zn2H32C46N12O8
_chemical_formula_sum              "Zn2 H32 C46 N12 O8"
_cell_length_a       8.0669
_cell_length_b       14.6336
_cell_length_c       14.6333
_cell_angle_alpha    94.487
_cell_angle_beta     103.416
_cell_angle_gamma    103.416

_space_group_name_H-M_alt    "P 1"
_space_group_IT_number       1

loop_
  _space_group_symop_operation_xyz
  'x, y, z'

loop_
  _atom_site_type_symbol
  _atom_site_label
  _atom_site_symmetry_multiplicity
  _atom_site_fract_x
  _atom_site_fract_y
  _atom_site_fract_z
  _atom_site_occupancy
  Zn  Zn1       1.0  0.59411  0.73173  0.74791  1.0000
  Zn  Zn2       1.0  0.40589  0.25209  0.26827  1.0000
  H   H1        1.0  0.13777  0.60623  0.50309  1.0000
  H   H2        1.0  0.86222  0.49692  0.39376  1.0000
  H   H3        1.0  0.13251  0.40858  0.70411  1.0000
  H   H4        1.0  0.86749  0.29590  0.59143  1.0000
  H   H5        1.0  0.29100  0.85435  0.89548  1.0000
  H   H6        1.0  0.70900  0.10451  0.14565  1.0000
  H   H7        1.0  0.82386  0.00373  0.04050  1.0000
  H   H8        1.0  0.17613  0.95950  0.99627  1.0000
  H   H9        1.0  0.89727  0.92753  0.76547  1.0000
  H   H10       1.0  0.10274  0.23453  0.07246  1.0000
  H   H11       1.0  0.61072  0.96224  0.49302  1.0000
  H   H12       1.0  0.38928  0.50698  0.03776  1.0000
  H   H13       1.0  0.45139  0.79077  0.54395  1.0000
  H   H14       1.0  0.54861  0.45604  0.20924  1.0000
  H   H15       1.0  0.02313  0.08383  0.78277  1.0000
  H   H16       1.0  0.97687  0.21724  0.91616  1.0000
  H   H17       1.0  0.30233  0.12139  0.88744  1.0000
  H   H18       1.0  0.69768  0.11257  0.87861  1.0000
  H   H19       1.0  0.53768  0.26799  0.01701  1.0000
  H   H20       1.0  0.46234  0.98300  0.73200  1.0000
  H   H21       1.0  0.36332  0.37825  0.76597  1.0000
  H   H22       1.0  0.63668  0.23403  0.62173  1.0000
  H   H23       1.0  0.29687  0.27551  0.62401  1.0000
  H   H24       1.0  0.70313  0.37599  0.72448  1.0000
  H   H25       1.0  0.37448  0.20862  0.47201  1.0000
  H   H26       1.0  0.62551  0.52799  0.79138  1.0000
  H   H27       1.0  0.97869  0.22005  0.23120  1.0000
  H   H28       1.0  0.02130  0.76879  0.77995  1.0000
  H   H29       1.0  0.82087  0.17916  0.37833  1.0000
  H   H30       1.0  0.17913  0.62167  0.82084  1.0000
  H   H31       1.0  0.85811  0.04385  0.47639  1.0000
  H   H32       1.0  0.14188  0.52361  0.95615  1.0000
  C   C1        1.0  0.31403  0.57611  0.67686  1.0000
  C   C2        1.0  0.68597  0.32314  0.42389  1.0000
  C   C3        1.0  0.15170  0.51289  0.60933  1.0000
  C   C4        1.0  0.84830  0.39067  0.48712  1.0000
  C   C5        1.0  0.07591  0.53845  0.52198  1.0000
  C   C6        1.0  0.92409  0.47802  0.46155  1.0000
  C   C7        1.0  0.07440  0.42615  0.63505  1.0000
  C   C8        1.0  0.92559  0.36496  0.57386  1.0000
  C   C9        1.0  0.62934  0.86335  0.89740  1.0000
  C   C10       1.0  0.37066  0.10260  0.13665  1.0000
  C   C11       1.0  0.56308  0.92383  0.96096  1.0000
  C   C12       1.0  0.43693  0.03904  0.07617  1.0000
  C   C13       1.0  0.38100  0.91085  0.94939  1.0000
  C   C14       1.0  0.61900  0.05061  0.08915  1.0000
  C   C15       1.0  0.68241  0.99440  0.03139  1.0000
  C   C16       1.0  0.31759  0.96861  0.00560  1.0000
  C   C17       1.0  0.80109  0.91232  0.69724  1.0000
  C   C18       1.0  0.19891  0.30276  0.08767  1.0000
  C   C19       1.0  0.64937  0.92788  0.55429  1.0000
  C   C20       1.0  0.35063  0.44570  0.07212  1.0000
  C   C21       1.0  0.57007  0.84469  0.58081  1.0000
  C   C22       1.0  0.42993  0.41919  0.15531  1.0000
  C   C23       1.0  0.92611  0.05478  0.62978  1.0000
  C   C24       1.0  0.07389  0.37023  0.94522  1.0000
  C   C25       1.0  0.04009  0.10504  0.71522  1.0000
  C   C26       1.0  0.95991  0.28479  0.89496  1.0000
  C   C27       1.0  0.17484  0.18420  0.71305  1.0000
  C   C28       1.0  0.82517  0.28696  0.81579  1.0000
  C   C29       1.0  0.34702  0.19602  0.88193  1.0000
  C   C30       1.0  0.65300  0.11808  0.80397  1.0000
  C   C31       1.0  0.46633  0.26979  0.94473  1.0000
  C   C32       1.0  0.53367  0.05528  0.73020  1.0000
  C   C33       1.0  0.38433  0.32899  0.81661  1.0000
  C   C34       1.0  0.61567  0.18339  0.67099  1.0000
  C   C35       1.0  0.19200  0.21457  0.62651  1.0000
  C   C36       1.0  0.80800  0.37350  0.78542  1.0000
  C   C37       1.0  0.07367  0.16439  0.54278  1.0000
  C   C38       1.0  0.92633  0.45722  0.83561  1.0000
  C   C39       1.0  0.24684  0.20918  0.42752  1.0000
  C   C40       1.0  0.75316  0.57247  0.79082  1.0000
  C   C41       1.0  0.03714  0.21163  0.30350  1.0000
  C   C42       1.0  0.96285  0.69650  0.78837  1.0000
  C   C43       1.0  0.95691  0.19042  0.37483  1.0000
  C   C44       1.0  0.04308  0.62517  0.80957  1.0000
  C   C45       1.0  0.94151  0.08439  0.54328  1.0000
  C   C46       1.0  0.05849  0.45673  0.91560  1.0000
  N   N1        1.0  0.66618  0.83604  0.66979  1.0000
  N   N2        1.0  0.33383  0.33021  0.16396  1.0000
  N   N3        1.0  0.79702  0.97027  0.62851  1.0000
  N   N4        1.0  0.20298  0.37149  0.02973  1.0000
  N   N5        1.0  0.48770  0.35233  0.90361  1.0000
  N   N6        1.0  0.51231  0.09639  0.64767  1.0000
  N   N7        1.0  0.29494  0.23376  0.79880  1.0000
  N   N8        1.0  0.70507  0.20121  0.76623  1.0000
  N   N9        1.0  0.21675  0.22270  0.33708  1.0000
  N   N10       1.0  0.78324  0.66292  0.77730  1.0000
  N   N11       1.0  0.09222  0.19006  0.45346  1.0000
  N   N12       1.0  0.90777  0.54654  0.80994  1.0000
  O   O1        1.0  0.38473  0.65375  0.64857  1.0000
  O   O2        1.0  0.61527  0.35143  0.34625  1.0000
  O   O3        1.0  0.37213  0.55153  0.75623  1.0000
  O   O4        1.0  0.62786  0.24378  0.44847  1.0000
  O   O5        1.0  0.50950  0.79007  0.84642  1.0000
  O   O6        1.0  0.49050  0.15357  0.20994  1.0000
  O   O7        1.0  0.78737  0.88521  0.89424  1.0000
  O   O8        1.0  0.21264  0.10576  0.11479  1.0000
