data_image0
_chemical_formula_structural       Sc4H20C24N8O24
_chemical_formula_sum              "Sc4 H20 C24 N8 O24"
_cell_length_a       6.62014
_cell_length_b       9.7371
_cell_length_c       13.2106
_cell_angle_alpha    89.9999
_cell_angle_beta     90.0007
_cell_angle_gamma    102.17

_space_group_name_H-M_alt    "P 1"
_space_group_IT_number       1

loop_
  _space_group_symop_operation_xyz
  'x, y, z'

loop_
  _atom_site_type_symbol
  _atom_site_label
  _atom_site_symmetry_multiplicity
  _atom_site_fract_x
  _atom_site_fract_y
  _atom_site_fract_z
  _atom_site_occupancy
  Sc  Sc1       1.0  0.89121  0.62580  0.95448  1.0000
  Sc  Sc2       1.0  0.10879  0.87420  0.45447  1.0000
  Sc  Sc3       1.0  0.10879  0.37420  0.04553  1.0000
  Sc  Sc4       1.0  0.89121  0.12580  0.54552  1.0000
  H   H1        1.0  0.06278  0.82217  0.73075  1.0000
  H   H2        1.0  0.93722  0.67783  0.23075  1.0000
  H   H3        1.0  0.93724  0.17783  0.26924  1.0000
  H   H4        1.0  0.06277  0.32218  0.76924  1.0000
  H   H5        1.0  0.59868  0.40326  0.60147  1.0000
  H   H6        1.0  0.40131  0.09674  0.10147  1.0000
  H   H7        1.0  0.40131  0.59674  0.39853  1.0000
  H   H8        1.0  0.59870  0.90325  0.89853  1.0000
  H   H9        1.0  0.24943  0.56430  0.88893  1.0000
  H   H10       1.0  0.75057  0.93570  0.38893  1.0000
  H   H11       1.0  0.75057  0.43569  0.11107  1.0000
  H   H12       1.0  0.24943  0.06431  0.61107  1.0000
  H   H13       1.0  0.66485  0.81048  0.03658  1.0000
  H   H14       1.0  0.33514  0.68952  0.53658  1.0000
  H   H15       1.0  0.33514  0.18953  0.96343  1.0000
  H   H16       1.0  0.66485  0.31048  0.46343  1.0000
  H   H17       1.0  0.52246  0.65290  0.03432  1.0000
  H   H18       1.0  0.47753  0.84710  0.53432  1.0000
  H   H19       1.0  0.47753  0.34711  0.96568  1.0000
  H   H20       1.0  0.52247  0.15290  0.46568  1.0000
  C   C1        1.0  0.95711  0.73033  0.70058  1.0000
  C   C2        1.0  0.04289  0.76967  0.20058  1.0000
  C   C3        1.0  0.04290  0.26967  0.29942  1.0000
  C   C4        1.0  0.95711  0.23033  0.79942  1.0000
  C   C5        1.0  0.81534  0.59820  0.56429  1.0000
  C   C6        1.0  0.18466  0.90179  0.06429  1.0000
  C   C7        1.0  0.18466  0.40179  0.43571  1.0000
  C   C8        1.0  0.81535  0.09821  0.93570  1.0000
  C   C9        1.0  0.69989  0.49878  0.62818  1.0000
  C   C10       1.0  0.30011  0.00122  0.12818  1.0000
  C   C11       1.0  0.30011  0.50122  0.37182  1.0000
  C   C12       1.0  0.69990  0.99878  0.87182  1.0000
  C   C13       1.0  0.72324  0.52435  0.73119  1.0000
  C   C14       1.0  0.27676  0.97565  0.23119  1.0000
  C   C15       1.0  0.27677  0.47564  0.26881  1.0000
  C   C16       1.0  0.72325  0.02435  0.76881  1.0000
  C   C17       1.0  0.60182  0.42374  0.80665  1.0000
  C   C18       1.0  0.39818  0.07627  0.30665  1.0000
  C   C19       1.0  0.39818  0.57627  0.19335  1.0000
  C   C20       1.0  0.60183  0.92373  0.69334  1.0000
  C   C21       1.0  0.81909  0.57885  0.45102  1.0000
  C   C22       1.0  0.18089  0.92115  0.95102  1.0000
  C   C23       1.0  0.18090  0.42114  0.54897  1.0000
  C   C24       1.0  0.81910  0.07885  0.04898  1.0000
  N   N1        1.0  0.85471  0.63746  0.76796  1.0000
  N   N2        1.0  0.14529  0.86254  0.26797  1.0000
  N   N3        1.0  0.14529  0.36254  0.23203  1.0000
  N   N4        1.0  0.85472  0.13746  0.73203  1.0000
  N   N5        1.0  0.93905  0.71625  0.59992  1.0000
  N   N6        1.0  0.06095  0.78375  0.09992  1.0000
  N   N7        1.0  0.06096  0.28374  0.40008  1.0000
  N   N8        1.0  0.93905  0.21626  0.90008  1.0000
  O   O1        1.0  0.63974  0.46133  0.90108  1.0000
  O   O2        1.0  0.36024  0.03867  0.40108  1.0000
  O   O3        1.0  0.36025  0.53868  0.09892  1.0000
  O   O4        1.0  0.63977  0.96132  0.59892  1.0000
  O   O5        1.0  0.47975  0.31711  0.77764  1.0000
  O   O6        1.0  0.52025  0.18289  0.27764  1.0000
  O   O7        1.0  0.52024  0.68290  0.22236  1.0000
  O   O8        1.0  0.47976  0.81710  0.72236  1.0000
  O   O9        1.0  0.92654  0.68311  0.40242  1.0000
  O   O10       1.0  0.07345  0.81688  0.90243  1.0000
  O   O11       1.0  0.07346  0.31689  0.59758  1.0000
  O   O12       1.0  0.92655  0.18312  0.09757  1.0000
  O   O13       1.0  0.72800  0.46620  0.41155  1.0000
  O   O14       1.0  0.27198  0.03380  0.91155  1.0000
  O   O15       1.0  0.27199  0.53380  0.58846  1.0000
  O   O16       1.0  0.72802  0.96620  0.08845  1.0000
  O   O17       1.0  0.12448  0.51914  0.92440  1.0000
  O   O18       1.0  0.87552  0.98087  0.42440  1.0000
  O   O19       1.0  0.87552  0.48086  0.07560  1.0000
  O   O20       1.0  0.12448  0.01913  0.57560  1.0000
  O   O21       1.0  0.63660  0.71959  0.99752  1.0000
  O   O22       1.0  0.36340  0.78041  0.49751  1.0000
  O   O23       1.0  0.36340  0.28042  0.00249  1.0000
  O   O24       1.0  0.63660  0.21959  0.50249  1.0000
