data_image0
_chemical_formula_structural       Zn2H48C60N8O8
_chemical_formula_sum              "Zn2 H48 C60 N8 O8"
_cell_length_a       9.25058
_cell_length_b       10.9379
_cell_length_c       16.192
_cell_angle_alpha    107.663
_cell_angle_beta     90
_cell_angle_gamma    115.016

_space_group_name_H-M_alt    "P 1"
_space_group_IT_number       1

loop_
  _space_group_symop_operation_xyz
  'x, y, z'

loop_
  _atom_site_type_symbol
  _atom_site_label
  _atom_site_symmetry_multiplicity
  _atom_site_fract_x
  _atom_site_fract_y
  _atom_site_fract_z
  _atom_site_occupancy
  Zn  Zn1       1.0  0.22196  0.99999  0.75004  1.0000
  Zn  Zn2       1.0  0.77804  0.00001  0.24996  1.0000
  H   H1        1.0  0.46612  0.10636  0.54404  1.0000
  H   H2        1.0  0.35969  0.89347  0.95603  1.0000
  H   H3        1.0  0.53388  0.89364  0.45596  1.0000
  H   H4        1.0  0.64031  0.10653  0.04397  1.0000
  H   H5        1.0  0.65188  0.20657  0.44428  1.0000
  H   H6        1.0  0.44555  0.79336  0.05572  1.0000
  H   H7        1.0  0.34812  0.79343  0.55572  1.0000
  H   H8        1.0  0.55445  0.20664  0.94428  1.0000
  H   H9        1.0  0.99983  0.52575  0.66947  1.0000
  H   H10       1.0  0.47433  0.47427  0.83046  1.0000
  H   H11       1.0  0.00017  0.47425  0.33053  1.0000
  H   H12       1.0  0.52567  0.52573  0.16954  1.0000
  H   H13       1.0  0.81464  0.42320  0.76726  1.0000
  H   H14       1.0  0.39148  0.57682  0.73272  1.0000
  H   H15       1.0  0.18536  0.57680  0.23274  1.0000
  H   H16       1.0  0.60852  0.42318  0.26728  1.0000
  H   H17       1.0  0.89483  0.36731  0.41997  1.0000
  H   H18       1.0  0.52745  0.63264  0.08004  1.0000
  H   H19       1.0  0.10517  0.63269  0.58003  1.0000
  H   H20       1.0  0.47255  0.36736  0.91996  1.0000
  H   H21       1.0  0.16811  0.24087  0.73220  1.0000
  H   H22       1.0  0.92724  0.75893  0.76781  1.0000
  H   H23       1.0  0.83189  0.75913  0.26780  1.0000
  H   H24       1.0  0.07276  0.24107  0.23219  1.0000
  H   H25       1.0  0.10503  0.36833  0.79662  1.0000
  H   H26       1.0  0.73668  0.63144  0.70335  1.0000
  H   H27       1.0  0.89497  0.63167  0.20338  1.0000
  H   H28       1.0  0.26332  0.36856  0.29665  1.0000
  H   H29       1.0  0.95962  0.19062  0.73811  1.0000
  H   H30       1.0  0.76900  0.80916  0.76186  1.0000
  H   H31       1.0  0.04038  0.80938  0.26189  1.0000
  H   H32       1.0  0.23100  0.19085  0.23814  1.0000
  H   H33       1.0  0.18535  0.02597  0.94694  1.0000
  H   H34       1.0  0.15940  0.97409  0.55316  1.0000
  H   H35       1.0  0.81465  0.97403  0.05306  1.0000
  H   H36       1.0  0.84060  0.02591  0.44684  1.0000
  H   H37       1.0  0.08751  0.22103  0.05497  1.0000
  H   H38       1.0  0.86653  0.77904  0.44508  1.0000
  H   H39       1.0  0.91249  0.77897  0.94503  1.0000
  H   H40       1.0  0.13347  0.22096  0.55492  1.0000
  H   H41       1.0  0.83577  0.30384  0.86272  1.0000
  H   H42       1.0  0.53187  0.69614  0.63728  1.0000
  H   H43       1.0  0.16423  0.69616  0.13728  1.0000
  H   H44       1.0  0.46813  0.30386  0.36272  1.0000
  H   H45       1.0  0.22007  0.48850  0.08045  1.0000
  H   H46       1.0  0.73156  0.51150  0.41959  1.0000
  H   H47       1.0  0.77993  0.51150  0.91955  1.0000
  H   H48       1.0  0.26844  0.48849  0.58041  1.0000
  C   C1        1.0  0.51678  0.20073  0.72229  1.0000
  C   C2        1.0  0.31605  0.79929  0.77779  1.0000
  C   C3        1.0  0.48322  0.79927  0.27771  1.0000
  C   C4        1.0  0.68395  0.20071  0.22221  1.0000
  C   C5        1.0  0.62766  0.25973  0.66200  1.0000
  C   C6        1.0  0.36788  0.74019  0.83802  1.0000
  C   C7        1.0  0.37234  0.74027  0.33800  1.0000
  C   C8        1.0  0.63212  0.25981  0.16198  1.0000
  C   C9        1.0  0.58305  0.19846  0.57073  1.0000
  C   C10       1.0  0.38461  0.80142  0.92929  1.0000
  C   C11       1.0  0.41695  0.80154  0.42927  1.0000
  C   C12       1.0  0.61539  0.19858  0.07071  1.0000
  C   C13       1.0  0.68650  0.25401  0.51530  1.0000
  C   C14       1.0  0.43280  0.74599  0.98470  1.0000
  C   C15       1.0  0.31350  0.74598  0.48470  1.0000
  C   C16       1.0  0.56720  0.25401  0.01530  1.0000
  C   C17       1.0  0.83665  0.37525  0.54961  1.0000
  C   C18       1.0  0.46177  0.62482  0.95036  1.0000
  C   C19       1.0  0.16335  0.62475  0.45039  1.0000
  C   C20       1.0  0.53824  0.37518  0.04964  1.0000
  C   C21       1.0  0.88246  0.43430  0.64137  1.0000
  C   C22       1.0  0.44847  0.56575  0.85858  1.0000
  C   C23       1.0  0.11754  0.56570  0.35863  1.0000
  C   C24       1.0  0.55154  0.43425  0.14142  1.0000
  C   C25       1.0  0.77952  0.37705  0.69639  1.0000
  C   C26       1.0  0.40256  0.62294  0.80359  1.0000
  C   C27       1.0  0.22048  0.62295  0.30361  1.0000
  C   C28       1.0  0.59744  0.37706  0.19641  1.0000
  C   C29       1.0  0.93547  0.43493  0.48885  1.0000
  C   C30       1.0  0.50062  0.56509  0.01115  1.0000
  C   C31       1.0  0.06453  0.56507  0.51115  1.0000
  C   C32       1.0  0.49939  0.43491  0.98885  1.0000
  C   C33       1.0  0.09976  0.21169  0.85196  1.0000
  C   C34       1.0  0.88811  0.78819  0.64806  1.0000
  C   C35       1.0  0.90024  0.78831  0.14804  1.0000
  C   C36       1.0  0.11189  0.21181  0.35194  1.0000
  C   C37       1.0  0.08170  0.25572  0.77584  1.0000
  C   C38       1.0  0.82599  0.74403  0.72414  1.0000
  C   C39       1.0  0.91830  0.74428  0.22416  1.0000
  C   C40       1.0  0.17401  0.25597  0.27586  1.0000
  C   C41       1.0  0.14894  0.10039  0.93293  1.0000
  C   C42       1.0  0.04854  0.89969  0.56717  1.0000
  C   C43       1.0  0.85106  0.89961  0.06707  1.0000
  C   C44       1.0  0.95146  0.10031  0.43283  1.0000
  C   C45       1.0  0.10252  0.19622  0.98651  1.0000
  C   C46       1.0  0.90632  0.80386  0.51355  1.0000
  C   C47       1.0  0.89748  0.80378  0.01349  1.0000
  C   C48       1.0  0.09368  0.19614  0.48645  1.0000
  C   C49       1.0  0.03320  0.38356  0.96775  1.0000
  C   C50       1.0  0.64968  0.61648  0.53227  1.0000
  C   C51       1.0  0.96680  0.61644  0.03225  1.0000
  C   C52       1.0  0.35032  0.38352  0.46773  1.0000
  C   C53       1.0  0.91147  0.39082  0.92146  1.0000
  C   C54       1.0  0.52063  0.60919  0.57853  1.0000
  C   C55       1.0  0.08853  0.60918  0.07854  1.0000
  C   C56       1.0  0.47937  0.39081  0.42147  1.0000
  C   C57       1.0  0.12103  0.49176  0.04630  1.0000
  C   C58       1.0  0.62929  0.50824  0.45374  1.0000
  C   C59       1.0  0.87896  0.50824  0.95370  1.0000
  C   C60       1.0  0.37071  0.49176  0.54626  1.0000
  N   N1        1.0  0.14738  0.11156  0.85018  1.0000
  N   N2        1.0  0.03584  0.88840  0.64988  1.0000
  N   N3        1.0  0.85262  0.88844  0.14982  1.0000
  N   N4        1.0  0.96416  0.11160  0.35012  1.0000
  N   N5        1.0  0.07124  0.26605  0.93515  1.0000
  N   N6        1.0  0.80523  0.73393  0.56488  1.0000
  N   N7        1.0  0.92876  0.73395  0.06485  1.0000
  N   N8        1.0  0.19477  0.26607  0.43512  1.0000
  O   O1        1.0  0.37108  0.10682  0.68410  1.0000
  O   O2        1.0  0.26421  0.89315  0.81598  1.0000
  O   O3        1.0  0.62892  0.89318  0.31590  1.0000
  O   O4        1.0  0.73579  0.10685  0.18402  1.0000
  O   O5        1.0  0.56512  0.24181  0.80257  1.0000
  O   O6        1.0  0.32341  0.75836  0.69750  1.0000
  O   O7        1.0  0.43488  0.75819  0.19743  1.0000
  O   O8        1.0  0.67659  0.24164  0.30250  1.0000
