data_image0
_chemical_formula_structural       Y2H36C42S4N8O22
_chemical_formula_sum              "Y2 H36 C42 S4 N8 O22"
_cell_length_a       8.05689
_cell_length_b       11.6185
_cell_length_c       14.3976
_cell_angle_alpha    110.66
_cell_angle_beta     101.675
_cell_angle_gamma    93.582

_space_group_name_H-M_alt    "P 1"
_space_group_IT_number       1

loop_
  _space_group_symop_operation_xyz
  'x, y, z'

loop_
  _atom_site_type_symbol
  _atom_site_label
  _atom_site_symmetry_multiplicity
  _atom_site_fract_x
  _atom_site_fract_y
  _atom_site_fract_z
  _atom_site_occupancy
  Y   Y1        1.0  0.44541  0.76592  0.91253  1.0000
  Y   Y2        1.0  0.55459  0.23408  0.08747  1.0000
  H   H1        1.0  0.12292  0.11485  0.48615  1.0000
  H   H2        1.0  0.87708  0.88515  0.51384  1.0000
  H   H3        1.0  0.07343  0.59194  0.87773  1.0000
  H   H4        1.0  0.92656  0.40805  0.12227  1.0000
  H   H5        1.0  0.88669  0.39304  0.76893  1.0000
  H   H6        1.0  0.11331  0.60695  0.23107  1.0000
  H   H7        1.0  0.98592  0.24126  0.62399  1.0000
  H   H8        1.0  0.01407  0.75874  0.37601  1.0000
  H   H9        1.0  0.74326  0.43623  0.53774  1.0000
  H   H10       1.0  0.25674  0.56377  0.46226  1.0000
  H   H11       1.0  0.88707  0.65671  0.64985  1.0000
  H   H12       1.0  0.11292  0.34329  0.35015  1.0000
  H   H13       1.0  0.75456  0.78158  0.78665  1.0000
  H   H14       1.0  0.24543  0.21842  0.21335  1.0000
  H   H15       1.0  0.10357  0.78272  0.15750  1.0000
  H   H16       1.0  0.89644  0.21728  0.84250  1.0000
  H   H17       1.0  0.65044  0.84040  0.27977  1.0000
  H   H18       1.0  0.34957  0.15960  0.72023  1.0000
  H   H19       1.0  0.62623  0.03905  0.41464  1.0000
  H   H20       1.0  0.37377  0.96095  0.58537  1.0000
  H   H21       1.0  0.06100  0.07341  0.11590  1.0000
  H   H22       1.0  0.93901  0.92659  0.88410  1.0000
  H   H23       1.0  0.08398  0.13335  0.02231  1.0000
  H   H24       1.0  0.91602  0.86665  0.97769  1.0000
  H   H25       1.0  0.53475  0.97141  0.10751  1.0000
  H   H26       1.0  0.46525  0.02860  0.89249  1.0000
  H   H27       1.0  0.69545  0.89855  0.12824  1.0000
  H   H28       1.0  0.30455  0.10146  0.87176  1.0000
  H   H29       1.0  0.69214  0.58727  0.92880  1.0000
  H   H30       1.0  0.30786  0.41273  0.07121  1.0000
  H   H31       1.0  0.66327  0.66872  0.03566  1.0000
  H   H32       1.0  0.33673  0.33128  0.96434  1.0000
  H   H33       1.0  0.18697  0.83909  0.74992  1.0000
  H   H34       1.0  0.81303  0.16091  0.25008  1.0000
  H   H35       1.0  0.35031  0.79694  0.70777  1.0000
  H   H36       1.0  0.64969  0.20307  0.29223  1.0000
  C   C1        1.0  0.11062  0.52807  0.81174  1.0000
  C   C2        1.0  0.88937  0.47192  0.18825  1.0000
  C   C3        1.0  0.00672  0.41419  0.75071  1.0000
  C   C4        1.0  0.99327  0.58580  0.24928  1.0000
  C   C5        1.0  0.06079  0.33235  0.67057  1.0000
  C   C6        1.0  0.93920  0.66765  0.32942  1.0000
  C   C7        1.0  0.21676  0.36709  0.65078  1.0000
  C   C8        1.0  0.78323  0.63291  0.34922  1.0000
  C   C9        1.0  0.28958  0.29121  0.57221  1.0000
  C   C10       1.0  0.71042  0.70879  0.42779  1.0000
  C   C11       1.0  0.44649  0.32868  0.55579  1.0000
  C   C12       1.0  0.55351  0.67132  0.44421  1.0000
  C   C13       1.0  0.53949  0.44997  0.61591  1.0000
  C   C14       1.0  0.46051  0.55003  0.38409  1.0000
  C   C15       1.0  0.69191  0.49603  0.59924  1.0000
  C   C16       1.0  0.30809  0.50397  0.40076  1.0000
  C   C17       1.0  0.77053  0.61559  0.66029  1.0000
  C   C18       1.0  0.22947  0.38441  0.33971  1.0000
  C   C19       1.0  0.69691  0.68668  0.73810  1.0000
  C   C20       1.0  0.30308  0.31331  0.26190  1.0000
  C   C21       1.0  0.47204  0.52827  0.69598  1.0000
  C   C22       1.0  0.52795  0.47173  0.30402  1.0000
  C   C23       1.0  0.31261  0.48625  0.71467  1.0000
  C   C24       1.0  0.68738  0.51375  0.28533  1.0000
  C   C25       1.0  0.35642  0.14341  0.44495  1.0000
  C   C26       1.0  0.64358  0.85659  0.55505  1.0000
  C   C27       1.0  0.35266  0.02333  0.36392  1.0000
  C   C28       1.0  0.64734  0.97667  0.63608  1.0000
  C   C29       1.0  0.20471  0.94824  0.29080  1.0000
  C   C30       1.0  0.79529  0.05177  0.70920  1.0000
  C   C31       1.0  0.21860  0.83749  0.21442  1.0000
  C   C32       1.0  0.78141  0.16251  0.78559  1.0000
  C   C33       1.0  0.37884  0.79925  0.21132  1.0000
  C   C34       1.0  0.62117  0.20076  0.78868  1.0000
  C   C35       1.0  0.52600  0.87051  0.28350  1.0000
  C   C36       1.0  0.47400  0.12949  0.71650  1.0000
  C   C37       1.0  0.51205  0.98183  0.35834  1.0000
  C   C38       1.0  0.48796  0.01817  0.64167  1.0000
  C   C39       1.0  0.24590  0.00072  0.03304  1.0000
  C   C40       1.0  0.75410  0.99928  0.96696  1.0000
  C   C41       1.0  0.07579  0.04654  0.03706  1.0000
  C   C42       1.0  0.92421  0.95346  0.96294  1.0000
  S   S1        1.0  0.99337  0.98881  0.28968  1.0000
  S   S2        1.0  0.00663  0.01119  0.71032  1.0000
  S   S3        1.0  0.39430  0.65869  0.11239  1.0000
  S   S4        1.0  0.60572  0.34131  0.88761  1.0000
  N   N1        1.0  0.25882  0.56363  0.79479  1.0000
  N   N2        1.0  0.74117  0.43637  0.20521  1.0000
  N   N3        1.0  0.55362  0.64494  0.75661  1.0000
  N   N4        1.0  0.44638  0.35506  0.24339  1.0000
  N   N5        1.0  0.23478  0.17325  0.50073  1.0000
  N   N6        1.0  0.76522  0.82675  0.49927  1.0000
  N   N7        1.0  0.48712  0.23620  0.47704  1.0000
  N   N8        1.0  0.51288  0.76380  0.52296  1.0000
  O   O1        1.0  0.00015  0.11295  0.28258  1.0000
  O   O2        1.0  0.99986  0.88705  0.71742  1.0000
  O   O3        1.0  0.95766  0.99023  0.38644  1.0000
  O   O4        1.0  0.04235  0.00977  0.61356  1.0000
  O   O5        1.0  0.88171  0.89105  0.19920  1.0000
  O   O6        1.0  0.11829  0.10895  0.80080  1.0000
  O   O7        1.0  0.28277  0.56204  0.12399  1.0000
  O   O8        1.0  0.71725  0.43796  0.87602  1.0000
  O   O9        1.0  0.32657  0.67489  0.01462  1.0000
  O   O10       1.0  0.67344  0.32511  0.98538  1.0000
  O   O11       1.0  0.57533  0.64256  0.12806  1.0000
  O   O12       1.0  0.42469  0.35745  0.87194  1.0000
  O   O13       1.0  0.25206  0.89467  0.96858  1.0000
  O   O14       1.0  0.74795  0.10533  0.03141  1.0000
  O   O15       1.0  0.37971  0.07395  0.09691  1.0000
  O   O16       1.0  0.62029  0.92605  0.90308  1.0000
  O   O17       1.0  0.58207  0.89271  0.08273  1.0000
  O   O18       1.0  0.41793  0.10730  0.91727  1.0000
  O   O19       1.0  0.67400  0.67315  0.96912  1.0000
  O   O20       1.0  0.32599  0.32685  0.03088  1.0000
  O   O21       1.0  0.29921  0.80929  0.76568  1.0000
  O   O22       1.0  0.70079  0.19071  0.23432  1.0000
