data_image0
_chemical_formula_structural       Sr4H48C56Br8O24
_chemical_formula_sum              "Sr4 H48 C56 Br8 O24"
_cell_length_a       8.01114
_cell_length_b       11.5264
_cell_length_c       18.74
_cell_angle_alpha    90
_cell_angle_beta     90
_cell_angle_gamma    90

_space_group_name_H-M_alt    "P 1"
_space_group_IT_number       1

loop_
  _space_group_symop_operation_xyz
  'x, y, z'

loop_
  _atom_site_type_symbol
  _atom_site_label
  _atom_site_symmetry_multiplicity
  _atom_site_fract_x
  _atom_site_fract_y
  _atom_site_fract_z
  _atom_site_occupancy
  Sr  Sr1       1.0  0.75000  0.05297  0.50000  1.0000
  Sr  Sr2       1.0  0.25000  0.44703  1.00000  1.0000
  Sr  Sr3       1.0  0.25000  0.94702  0.50000  1.0000
  Sr  Sr4       1.0  0.75000  0.55297  0.00000  1.0000
  H   H1        1.0  0.01542  0.17258  0.59685  1.0000
  H   H2        1.0  0.51542  0.32742  0.90315  1.0000
  H   H3        1.0  0.48458  0.17258  0.40315  1.0000
  H   H4        1.0  0.98458  0.32742  0.09685  1.0000
  H   H5        1.0  0.98458  0.82742  0.40314  1.0000
  H   H6        1.0  0.48458  0.67258  0.09685  1.0000
  H   H7        1.0  0.51542  0.82742  0.59685  1.0000
  H   H8        1.0  0.01542  0.67258  0.90315  1.0000
  H   H9        1.0  0.85119  0.21272  0.63724  1.0000
  H   H10       1.0  0.35119  0.28728  0.86276  1.0000
  H   H11       1.0  0.64881  0.21272  0.36276  1.0000
  H   H12       1.0  0.14881  0.28728  0.13724  1.0000
  H   H13       1.0  0.14881  0.78728  0.36276  1.0000
  H   H14       1.0  0.64881  0.71272  0.13724  1.0000
  H   H15       1.0  0.35119  0.78728  0.63724  1.0000
  H   H16       1.0  0.85119  0.71272  0.86276  1.0000
  H   H17       1.0  0.84704  0.53246  0.75265  1.0000
  H   H18       1.0  0.34705  0.96755  0.74735  1.0000
  H   H19       1.0  0.65295  0.53246  0.24734  1.0000
  H   H20       1.0  0.15297  0.96754  0.25265  1.0000
  H   H21       1.0  0.15295  0.46754  0.24735  1.0000
  H   H22       1.0  0.65296  0.03246  0.25265  1.0000
  H   H23       1.0  0.34705  0.46755  0.75265  1.0000
  H   H24       1.0  0.84703  0.03246  0.74734  1.0000
  H   H25       1.0  0.01747  0.40682  0.67392  1.0000
  H   H26       1.0  0.51747  0.09319  0.82608  1.0000
  H   H27       1.0  0.48252  0.40682  0.32607  1.0000
  H   H28       1.0  0.98254  0.09318  0.17393  1.0000
  H   H29       1.0  0.98251  0.59318  0.32608  1.0000
  H   H30       1.0  0.48253  0.90681  0.17393  1.0000
  H   H31       1.0  0.51747  0.59318  0.67392  1.0000
  H   H32       1.0  0.01746  0.90682  0.82607  1.0000
  H   H33       1.0  0.12248  0.48286  0.55743  1.0000
  H   H34       1.0  0.62249  0.01713  0.94257  1.0000
  H   H35       1.0  0.37751  0.48287  0.44257  1.0000
  H   H36       1.0  0.87753  0.01714  0.05743  1.0000
  H   H37       1.0  0.87752  0.51713  0.44257  1.0000
  H   H38       1.0  0.37752  0.98286  0.05743  1.0000
  H   H39       1.0  0.62248  0.51714  0.55743  1.0000
  H   H40       1.0  0.12246  0.98286  0.94256  1.0000
  H   H41       1.0  0.04912  0.68392  0.51970  1.0000
  H   H42       1.0  0.54913  0.81607  0.98030  1.0000
  H   H43       1.0  0.45088  0.68393  0.48030  1.0000
  H   H44       1.0  0.95088  0.81608  0.01970  1.0000
  H   H45       1.0  0.95089  0.31607  0.48030  1.0000
  H   H46       1.0  0.45087  0.18393  0.01971  1.0000
  H   H47       1.0  0.54912  0.31608  0.51970  1.0000
  H   H48       1.0  0.04912  0.18392  0.98029  1.0000
  C   C1        1.0  0.86157  0.84034  0.58614  1.0000
  C   C2        1.0  0.36158  0.65966  0.91386  1.0000
  C   C3        1.0  0.63844  0.84034  0.41386  1.0000
  C   C4        1.0  0.13844  0.65966  0.08614  1.0000
  C   C5        1.0  0.13844  0.15966  0.41386  1.0000
  C   C6        1.0  0.63842  0.34034  0.08614  1.0000
  C   C7        1.0  0.36157  0.15966  0.58614  1.0000
  C   C8        1.0  0.86155  0.34034  0.91386  1.0000
  C   C9        1.0  0.90365  0.72116  0.61342  1.0000
  C   C10       1.0  0.40366  0.77884  0.88659  1.0000
  C   C11       1.0  0.59635  0.72116  0.38658  1.0000
  C   C12       1.0  0.09635  0.77884  0.11342  1.0000
  C   C13       1.0  0.09635  0.27884  0.38659  1.0000
  C   C14       1.0  0.59634  0.22116  0.11342  1.0000
  C   C15       1.0  0.40365  0.27885  0.61341  1.0000
  C   C16       1.0  0.90365  0.22115  0.88658  1.0000
  C   C17       1.0  0.84914  0.67652  0.67895  1.0000
  C   C18       1.0  0.34915  0.82349  0.82105  1.0000
  C   C19       1.0  0.65087  0.67652  0.32105  1.0000
  C   C20       1.0  0.15088  0.82348  0.17895  1.0000
  C   C21       1.0  0.15086  0.32348  0.32105  1.0000
  C   C22       1.0  0.65087  0.17651  0.17895  1.0000
  C   C23       1.0  0.34913  0.32349  0.67895  1.0000
  C   C24       1.0  0.84912  0.17652  0.82105  1.0000
  C   C25       1.0  0.89052  0.56462  0.70122  1.0000
  C   C26       1.0  0.39051  0.93538  0.79878  1.0000
  C   C27       1.0  0.60949  0.56462  0.29877  1.0000
  C   C28       1.0  0.10950  0.93538  0.20122  1.0000
  C   C29       1.0  0.10949  0.43538  0.29878  1.0000
  C   C30       1.0  0.60950  0.06462  0.20123  1.0000
  C   C31       1.0  0.39051  0.43538  0.70122  1.0000
  C   C32       1.0  0.89049  0.06463  0.79877  1.0000
  C   C33       1.0  0.98718  0.49457  0.65682  1.0000
  C   C34       1.0  0.48719  0.00544  0.84318  1.0000
  C   C35       1.0  0.51283  0.49457  0.34317  1.0000
  C   C36       1.0  0.01284  0.00544  0.15683  1.0000
  C   C37       1.0  0.01282  0.50543  0.34318  1.0000
  C   C38       1.0  0.51283  0.99456  0.15682  1.0000
  C   C39       1.0  0.48717  0.50544  0.65682  1.0000
  C   C40       1.0  0.98717  0.99456  0.84317  1.0000
  C   C41       1.0  0.04482  0.53712  0.59157  1.0000
  C   C42       1.0  0.54483  0.96288  0.90843  1.0000
  C   C43       1.0  0.45518  0.53713  0.40843  1.0000
  C   C44       1.0  0.95519  0.96287  0.09157  1.0000
  C   C45       1.0  0.95518  0.46288  0.40843  1.0000
  C   C46       1.0  0.45518  0.03712  0.09157  1.0000
  C   C47       1.0  0.54482  0.46288  0.59157  1.0000
  C   C48       1.0  0.04481  0.03712  0.90843  1.0000
  C   C49       1.0  0.00425  0.64947  0.57045  1.0000
  C   C50       1.0  0.50426  0.85054  0.92955  1.0000
  C   C51       1.0  0.49575  0.64946  0.42955  1.0000
  C   C52       1.0  0.99575  0.85054  0.07045  1.0000
  C   C53       1.0  0.99575  0.35054  0.42955  1.0000
  C   C54       1.0  0.49575  0.14946  0.07045  1.0000
  C   C55       1.0  0.50425  0.35054  0.57045  1.0000
  C   C56       1.0  0.00424  0.14946  0.92954  1.0000
  Br  Br1       1.0  0.72031  0.76907  0.74337  1.0000
  Br  Br2       1.0  0.22032  0.73093  0.75663  1.0000
  Br  Br3       1.0  0.77968  0.76908  0.25663  1.0000
  Br  Br4       1.0  0.27969  0.73092  0.24337  1.0000
  Br  Br5       1.0  0.27968  0.23092  0.25663  1.0000
  Br  Br6       1.0  0.77968  0.26908  0.24337  1.0000
  Br  Br7       1.0  0.22032  0.23092  0.74337  1.0000
  Br  Br8       1.0  0.72031  0.26908  0.75663  1.0000
  O   O1        1.0  0.89388  0.18936  0.59060  1.0000
  O   O2        1.0  0.39387  0.31064  0.90940  1.0000
  O   O3        1.0  0.60612  0.18936  0.40940  1.0000
  O   O4        1.0  0.10612  0.31064  0.09060  1.0000
  O   O5        1.0  0.10612  0.81064  0.40940  1.0000
  O   O6        1.0  0.60613  0.68936  0.09060  1.0000
  O   O7        1.0  0.39388  0.81064  0.59060  1.0000
  O   O8        1.0  0.89388  0.68936  0.90940  1.0000
  O   O9        1.0  0.71257  0.87779  0.59034  1.0000
  O   O10       1.0  0.21258  0.62221  0.90966  1.0000
  O   O11       1.0  0.78743  0.87779  0.40966  1.0000
  O   O12       1.0  0.28743  0.62221  0.09034  1.0000
  O   O13       1.0  0.28743  0.12221  0.40966  1.0000
  O   O14       1.0  0.78743  0.37780  0.09034  1.0000
  O   O15       1.0  0.21256  0.12221  0.59034  1.0000
  O   O16       1.0  0.71257  0.37779  0.90966  1.0000
  O   O17       1.0  0.97800  0.89887  0.55725  1.0000
  O   O18       1.0  0.47800  0.60113  0.94275  1.0000
  O   O19       1.0  0.52201  0.89887  0.44275  1.0000
  O   O20       1.0  0.02200  0.60112  0.05725  1.0000
  O   O21       1.0  0.02201  0.10113  0.44275  1.0000
  O   O22       1.0  0.52201  0.39887  0.05725  1.0000
  O   O23       1.0  0.47799  0.10114  0.55726  1.0000
  O   O24       1.0  0.97800  0.39887  0.94275  1.0000
