data_image0
_chemical_formula_structural       Dy2H50C34N12O16
_chemical_formula_sum              "Dy2 H50 C34 N12 O16"
_cell_length_a       8.591
_cell_length_b       11.0083
_cell_length_c       13.3944
_cell_angle_alpha    101.347
_cell_angle_beta     107.633
_cell_angle_gamma    106.581

_space_group_name_H-M_alt    "P 1"
_space_group_IT_number       1

loop_
  _space_group_symop_operation_xyz
  'x, y, z'

loop_
  _atom_site_type_symbol
  _atom_site_label
  _atom_site_symmetry_multiplicity
  _atom_site_fract_x
  _atom_site_fract_y
  _atom_site_fract_z
  _atom_site_occupancy
  Dy  Dy1       1.0  0.25771  0.11016  0.06162  1.0000
  Dy  Dy2       1.0  0.74229  0.88984  0.93838  1.0000
  H   H1        1.0  0.20487  0.53305  0.04407  1.0000
  H   H2        1.0  0.79513  0.46695  0.95593  1.0000
  H   H3        1.0  0.05335  0.43896  0.20804  1.0000
  H   H4        1.0  0.94665  0.56104  0.79196  1.0000
  H   H5        1.0  0.13062  0.70559  0.15061  1.0000
  H   H6        1.0  0.86938  0.29440  0.84939  1.0000
  H   H7        1.0  0.15509  0.69172  0.28445  1.0000
  H   H8        1.0  0.84491  0.30828  0.71555  1.0000
  H   H9        1.0  0.94377  0.63066  0.18027  1.0000
  H   H10       1.0  0.05623  0.36933  0.81973  1.0000
  H   H11       1.0  0.83728  0.39964  0.33072  1.0000
  H   H12       1.0  0.16272  0.60036  0.66928  1.0000
  H   H13       1.0  0.87254  0.12793  0.26300  1.0000
  H   H14       1.0  0.12746  0.87207  0.73700  1.0000
  H   H15       1.0  0.13970  0.40553  0.42628  1.0000
  H   H16       1.0  0.86030  0.59447  0.57372  1.0000
  H   H17       1.0  0.18636  0.30105  0.32835  1.0000
  H   H18       1.0  0.81364  0.69896  0.67165  1.0000
  H   H19       1.0  0.14628  0.24731  0.43604  1.0000
  H   H20       1.0  0.85372  0.75269  0.56396  1.0000
  H   H21       1.0  0.88037  0.86070  0.21940  1.0000
  H   H22       1.0  0.11963  0.13930  0.78060  1.0000
  H   H23       1.0  0.24736  0.00259  0.40515  1.0000
  H   H24       1.0  0.75264  0.99741  0.59485  1.0000
  H   H25       1.0  0.89969  0.79367  0.38818  1.0000
  H   H26       1.0  0.10031  0.20633  0.61182  1.0000
  H   H27       1.0  0.06182  0.91983  0.51206  1.0000
  H   H28       1.0  0.93818  0.08017  0.48794  1.0000
  H   H29       1.0  0.11395  0.78995  0.45055  1.0000
  H   H30       1.0  0.88606  0.21005  0.54945  1.0000
  H   H31       1.0  0.11333  0.81828  0.94731  1.0000
  H   H32       1.0  0.88667  0.18172  0.05269  1.0000
  H   H33       1.0  0.32745  0.85498  0.99924  1.0000
  H   H34       1.0  0.67255  0.14502  0.00076  1.0000
  H   H35       1.0  0.40770  0.02738  0.90028  1.0000
  H   H36       1.0  0.59230  0.97262  0.09972  1.0000
  H   H37       1.0  0.41916  0.17097  0.88941  1.0000
  H   H38       1.0  0.58083  0.82903  0.11059  1.0000
  H   H39       1.0  0.48234  0.58583  0.57638  1.0000
  H   H40       1.0  0.51766  0.41417  0.42362  1.0000
  H   H41       1.0  0.51723  0.75248  0.62898  1.0000
  H   H42       1.0  0.48277  0.24752  0.37102  1.0000
  H   H43       1.0  0.52244  0.03434  0.41940  1.0000
  H   H44       1.0  0.47755  0.96566  0.58060  1.0000
  H   H45       1.0  0.53850  0.99009  0.29151  1.0000
  H   H46       1.0  0.46150  0.00991  0.70849  1.0000
  H   H47       1.0  0.61142  0.59061  0.09015  1.0000
  H   H48       1.0  0.38859  0.40940  0.90985  1.0000
  H   H49       1.0  0.55839  0.45455  0.22187  1.0000
  H   H50       1.0  0.44160  0.54545  0.77813  1.0000
  C   C1        1.0  0.17751  0.33863  0.06880  1.0000
  C   C2        1.0  0.82249  0.66137  0.93120  1.0000
  C   C3        1.0  0.15790  0.46826  0.08916  1.0000
  C   C4        1.0  0.84210  0.53174  0.91084  1.0000
  C   C5        1.0  0.09508  0.50856  0.16470  1.0000
  C   C6        1.0  0.90492  0.49144  0.83530  1.0000
  C   C7        1.0  0.08096  0.64082  0.19555  1.0000
  C   C8        1.0  0.91903  0.35918  0.80445  1.0000
  C   C9        1.0  0.61604  0.22306  0.21407  1.0000
  C   C10       1.0  0.38396  0.77694  0.78593  1.0000
  C   C11       1.0  0.80005  0.29383  0.28928  1.0000
  C   C12       1.0  0.19995  0.70617  0.71072  1.0000
  C   C13       1.0  0.91800  0.23432  0.30670  1.0000
  C   C14       1.0  0.08199  0.76568  0.69330  1.0000
  C   C15       1.0  0.10636  0.30200  0.37882  1.0000
  C   C16       1.0  0.89364  0.69800  0.62118  1.0000
  C   C17       1.0  0.09750  0.99717  0.19733  1.0000
  C   C18       1.0  0.90250  0.00284  0.80267  1.0000
  C   C19       1.0  0.01788  0.92670  0.26245  1.0000
  C   C20       1.0  0.98212  0.07331  0.73755  1.0000
  C   C21       1.0  0.10986  0.93473  0.36611  1.0000
  C   C22       1.0  0.89014  0.06527  0.63389  1.0000
  C   C23       1.0  0.04002  0.85508  0.43134  1.0000
  C   C24       1.0  0.95998  0.14492  0.56866  1.0000
  C   C25       1.0  0.49444  0.69475  0.47084  1.0000
  C   C26       1.0  0.50556  0.30525  0.52916  1.0000
  C   C27       1.0  0.53562  0.62782  0.31555  1.0000
  C   C28       1.0  0.46438  0.37218  0.68445  1.0000
  C   C29       1.0  0.54431  0.74805  0.29220  1.0000
  C   C30       1.0  0.45569  0.25195  0.70780  1.0000
  C   C31       1.0  0.52824  0.84651  0.37038  1.0000
  C   C32       1.0  0.47176  0.15349  0.62962  1.0000
  C   C33       1.0  0.58532  0.62490  0.16299  1.0000
  C   C34       1.0  0.41468  0.37510  0.83701  1.0000
  N   N1        1.0  0.50335  0.81652  0.45909  1.0000
  N   N2        1.0  0.49665  0.18348  0.54091  1.0000
  N   N3        1.0  0.46751  0.67093  0.56155  1.0000
  N   N4        1.0  0.53250  0.32907  0.43845  1.0000
  N   N5        1.0  0.50823  0.59458  0.40138  1.0000
  N   N6        1.0  0.49177  0.40542  0.59862  1.0000
  N   N7        1.0  0.54068  0.96860  0.36223  1.0000
  N   N8        1.0  0.45932  0.03140  0.63777  1.0000
  N   N9        1.0  0.57458  0.74322  0.19534  1.0000
  N   N10       1.0  0.42542  0.25678  0.80466  1.0000
  N   N11       1.0  0.56473  0.55257  0.23323  1.0000
  N   N12       1.0  0.43527  0.44743  0.76677  1.0000
  O   O1        1.0  0.11253  0.25272  0.11329  1.0000
  O   O2        1.0  0.88747  0.74728  0.88671  1.0000
  O   O3        1.0  0.26302  0.31074  0.01034  1.0000
  O   O4        1.0  0.73698  0.68925  0.98966  1.0000
  O   O5        1.0  0.54835  0.09630  0.16768  1.0000
  O   O6        1.0  0.45165  0.90370  0.83232  1.0000
  O   O7        1.0  0.51616  0.29027  0.19348  1.0000
  O   O8        1.0  0.48384  0.70973  0.80652  1.0000
  O   O9        1.0  0.25735  0.07544  0.23472  1.0000
  O   O10       1.0  0.74265  0.92456  0.76528  1.0000
  O   O11       1.0  0.00094  0.97539  0.09515  1.0000
  O   O12       1.0  0.99906  0.02461  0.90485  1.0000
  O   O13       1.0  0.23034  0.88515  0.99991  1.0000
  O   O14       1.0  0.76966  0.11485  0.00009  1.0000
  O   O15       1.0  0.42078  0.11663  0.94420  1.0000
  O   O16       1.0  0.57921  0.88337  0.05580  1.0000
