data_image0
_chemical_formula_structural       Ho2H50C34N12O16
_chemical_formula_sum              "Ho2 H50 C34 N12 O16"
_cell_length_a       8.58619
_cell_length_b       11.0087
_cell_length_c       13.412
_cell_angle_alpha    101.498
_cell_angle_beta     107.659
_cell_angle_gamma    106.531

_space_group_name_H-M_alt    "P 1"
_space_group_IT_number       1

loop_
  _space_group_symop_operation_xyz
  'x, y, z'

loop_
  _atom_site_type_symbol
  _atom_site_label
  _atom_site_symmetry_multiplicity
  _atom_site_fract_x
  _atom_site_fract_y
  _atom_site_fract_z
  _atom_site_occupancy
  Ho  Ho1       1.0  0.25750  0.11004  0.06156  1.0000
  Ho  Ho2       1.0  0.74250  0.88996  0.93844  1.0000
  H   H1        1.0  0.20221  0.53132  0.04353  1.0000
  H   H2        1.0  0.79779  0.46868  0.95648  1.0000
  H   H3        1.0  0.05307  0.43817  0.20840  1.0000
  H   H4        1.0  0.94693  0.56183  0.79160  1.0000
  H   H5        1.0  0.12665  0.70338  0.14941  1.0000
  H   H6        1.0  0.87334  0.29662  0.85058  1.0000
  H   H7        1.0  0.15690  0.69170  0.28408  1.0000
  H   H8        1.0  0.84309  0.30830  0.71592  1.0000
  H   H9        1.0  0.94328  0.62946  0.18257  1.0000
  H   H10       1.0  0.05672  0.37054  0.81742  1.0000
  H   H11       1.0  0.83677  0.39956  0.32989  1.0000
  H   H12       1.0  0.16324  0.60044  0.67010  1.0000
  H   H13       1.0  0.87242  0.12733  0.26324  1.0000
  H   H14       1.0  0.12758  0.87267  0.73676  1.0000
  H   H15       1.0  0.13958  0.40654  0.42473  1.0000
  H   H16       1.0  0.86041  0.59346  0.57527  1.0000
  H   H17       1.0  0.18632  0.29863  0.32917  1.0000
  H   H18       1.0  0.81368  0.70136  0.67083  1.0000
  H   H19       1.0  0.14451  0.24911  0.43786  1.0000
  H   H20       1.0  0.85550  0.75089  0.56214  1.0000
  H   H21       1.0  0.88128  0.85881  0.21771  1.0000
  H   H22       1.0  0.11871  0.14119  0.78229  1.0000
  H   H23       1.0  0.24701  0.00463  0.40493  1.0000
  H   H24       1.0  0.75299  0.99537  0.59507  1.0000
  H   H25       1.0  0.90111  0.79086  0.38548  1.0000
  H   H26       1.0  0.09889  0.20914  0.61452  1.0000
  H   H27       1.0  0.05803  0.91965  0.50975  1.0000
  H   H28       1.0  0.94197  0.08035  0.49025  1.0000
  H   H29       1.0  0.11750  0.79256  0.45105  1.0000
  H   H30       1.0  0.88250  0.20744  0.54896  1.0000
  H   H31       1.0  0.11302  0.81972  0.94754  1.0000
  H   H32       1.0  0.88698  0.18029  0.05246  1.0000
  H   H33       1.0  0.32771  0.85633  0.99942  1.0000
  H   H34       1.0  0.67228  0.14367  0.00058  1.0000
  H   H35       1.0  0.40672  0.02716  0.90061  1.0000
  H   H36       1.0  0.59328  0.97284  0.09938  1.0000
  H   H37       1.0  0.41768  0.17074  0.88982  1.0000
  H   H38       1.0  0.58232  0.82926  0.11017  1.0000
  H   H39       1.0  0.48214  0.58601  0.57574  1.0000
  H   H40       1.0  0.51786  0.41399  0.42426  1.0000
  H   H41       1.0  0.51672  0.75283  0.62828  1.0000
  H   H42       1.0  0.48327  0.24717  0.37172  1.0000
  H   H43       1.0  0.52188  0.03441  0.41946  1.0000
  H   H44       1.0  0.47812  0.96559  0.58054  1.0000
  H   H45       1.0  0.53802  0.98984  0.29155  1.0000
  H   H46       1.0  0.46198  0.01017  0.70845  1.0000
  H   H47       1.0  0.61086  0.59050  0.08960  1.0000
  H   H48       1.0  0.38914  0.40951  0.91040  1.0000
  H   H49       1.0  0.55747  0.45408  0.22108  1.0000
  H   H50       1.0  0.44253  0.54592  0.77892  1.0000
  C   C1        1.0  0.17697  0.33760  0.06880  1.0000
  C   C2        1.0  0.82304  0.66240  0.93120  1.0000
  C   C3        1.0  0.15601  0.46679  0.08882  1.0000
  C   C4        1.0  0.84399  0.53322  0.91119  1.0000
  C   C5        1.0  0.09387  0.50735  0.16465  1.0000
  C   C6        1.0  0.90613  0.49266  0.83535  1.0000
  C   C7        1.0  0.07992  0.63965  0.19563  1.0000
  C   C8        1.0  0.92008  0.36035  0.80437  1.0000
  C   C9        1.0  0.61516  0.22251  0.21356  1.0000
  C   C10       1.0  0.38484  0.77748  0.78644  1.0000
  C   C11       1.0  0.79926  0.29344  0.28889  1.0000
  C   C12       1.0  0.20075  0.70656  0.71111  1.0000
  C   C13       1.0  0.91731  0.23393  0.30664  1.0000
  C   C14       1.0  0.08269  0.76607  0.69336  1.0000
  C   C15       1.0  0.10575  0.30208  0.37900  1.0000
  C   C16       1.0  0.89425  0.69792  0.62100  1.0000
  C   C17       1.0  0.09732  0.99679  0.19613  1.0000
  C   C18       1.0  0.90268  0.00321  0.80387  1.0000
  C   C19       1.0  0.01839  0.92597  0.26115  1.0000
  C   C20       1.0  0.98161  0.07403  0.73885  1.0000
  C   C21       1.0  0.11006  0.93536  0.36519  1.0000
  C   C22       1.0  0.88993  0.06464  0.63481  1.0000
  C   C23       1.0  0.04038  0.85512  0.42994  1.0000
  C   C24       1.0  0.95962  0.14488  0.57006  1.0000
  C   C25       1.0  0.49446  0.69496  0.47043  1.0000
  C   C26       1.0  0.50554  0.30505  0.52957  1.0000
  C   C27       1.0  0.53518  0.62774  0.31498  1.0000
  C   C28       1.0  0.46482  0.37226  0.68502  1.0000
  C   C29       1.0  0.54444  0.74819  0.29203  1.0000
  C   C30       1.0  0.45556  0.25182  0.70797  1.0000
  C   C31       1.0  0.52828  0.84667  0.37039  1.0000
  C   C32       1.0  0.47173  0.15334  0.62961  1.0000
  C   C33       1.0  0.58547  0.62485  0.16275  1.0000
  C   C34       1.0  0.41453  0.37516  0.83724  1.0000
  N   N1        1.0  0.50348  0.81686  0.45904  1.0000
  N   N2        1.0  0.49652  0.18314  0.54096  1.0000
  N   N3        1.0  0.46725  0.67106  0.56088  1.0000
  N   N4        1.0  0.53275  0.32895  0.43911  1.0000
  N   N5        1.0  0.50802  0.59469  0.40078  1.0000
  N   N6        1.0  0.49198  0.40532  0.59922  1.0000
  N   N7        1.0  0.54051  0.96874  0.36234  1.0000
  N   N8        1.0  0.45949  0.03126  0.63766  1.0000
  N   N9        1.0  0.57532  0.74343  0.19544  1.0000
  N   N10       1.0  0.42468  0.25657  0.80456  1.0000
  N   N11       1.0  0.56440  0.55235  0.23269  1.0000
  N   N12       1.0  0.43560  0.44766  0.76731  1.0000
  O   O1        1.0  0.11217  0.25148  0.11296  1.0000
  O   O2        1.0  0.88783  0.74852  0.88704  1.0000
  O   O3        1.0  0.26346  0.31005  0.01098  1.0000
  O   O4        1.0  0.73654  0.68995  0.98902  1.0000
  O   O5        1.0  0.54778  0.09573  0.16686  1.0000
  O   O6        1.0  0.45222  0.90426  0.83314  1.0000
  O   O7        1.0  0.51492  0.28951  0.19302  1.0000
  O   O8        1.0  0.48508  0.71048  0.80698  1.0000
  O   O9        1.0  0.25710  0.07559  0.23343  1.0000
  O   O10       1.0  0.74290  0.92441  0.76657  1.0000
  O   O11       1.0  0.00047  0.97472  0.09404  1.0000
  O   O12       1.0  0.99952  0.02528  0.90596  1.0000
  O   O13       1.0  0.23056  0.88656  0.99999  1.0000
  O   O14       1.0  0.76944  0.11344  0.00001  1.0000
  O   O15       1.0  0.41897  0.11642  0.94439  1.0000
  O   O16       1.0  0.58103  0.88358  0.05561  1.0000
