data_image0
_chemical_formula_structural       Co2H40C54Br8N8O8
_chemical_formula_sum              "Co2 H40 C54 Br8 N8 O8"
_cell_length_a       9.84376
_cell_length_b       11.7365
_cell_length_c       12.6795
_cell_angle_alpha    93.5404
_cell_angle_beta     90
_cell_angle_gamma    90

_space_group_name_H-M_alt    "P 1"
_space_group_IT_number       1

loop_
  _space_group_symop_operation_xyz
  'x, y, z'

loop_
  _atom_site_type_symbol
  _atom_site_label
  _atom_site_symmetry_multiplicity
  _atom_site_fract_x
  _atom_site_fract_y
  _atom_site_fract_z
  _atom_site_occupancy
  Co  Co1       1.0  0.82735  0.75000  0.75000  1.0000
  Co  Co2       1.0  0.17266  0.25000  0.25000  1.0000
  H   H1        1.0  0.62559  0.02323  0.07482  1.0000
  H   H2        1.0  0.62559  0.47677  0.42518  1.0000
  H   H3        1.0  0.37441  0.97677  0.92518  1.0000
  H   H4        1.0  0.37441  0.52323  0.57482  1.0000
  H   H5        1.0  0.06315  0.83651  0.63507  1.0000
  H   H6        1.0  0.06315  0.66349  0.86493  1.0000
  H   H7        1.0  0.93685  0.16348  0.36493  1.0000
  H   H8        1.0  0.93684  0.33651  0.13507  1.0000
  H   H9        1.0  0.21014  0.89883  0.69881  1.0000
  H   H10       1.0  0.21014  0.60117  0.80119  1.0000
  H   H11       1.0  0.78986  0.10117  0.30119  1.0000
  H   H12       1.0  0.78986  0.39883  0.19881  1.0000
  H   H13       1.0  0.11097  0.97886  0.61215  1.0000
  H   H14       1.0  0.11097  0.52114  0.88785  1.0000
  H   H15       1.0  0.88903  0.02114  0.38785  1.0000
  H   H16       1.0  0.88903  0.47886  0.11215  1.0000
  H   H17       1.0  0.68865  0.86782  0.94053  1.0000
  H   H18       1.0  0.68865  0.63219  0.55947  1.0000
  H   H19       1.0  0.31135  0.13218  0.05947  1.0000
  H   H20       1.0  0.31135  0.36781  0.44053  1.0000
  H   H21       1.0  0.75928  0.20126  0.09457  1.0000
  H   H22       1.0  0.75928  0.29874  0.40543  1.0000
  H   H23       1.0  0.24072  0.79874  0.90543  1.0000
  H   H24       1.0  0.24072  0.70126  0.59457  1.0000
  H   H25       1.0  0.19407  0.11959  0.73016  1.0000
  H   H26       1.0  0.19407  0.38041  0.76984  1.0000
  H   H27       1.0  0.80593  0.88041  0.26984  1.0000
  H   H28       1.0  0.80593  0.61959  0.23016  1.0000
  H   H29       1.0  0.17833  0.18064  0.86162  1.0000
  H   H30       1.0  0.17833  0.31936  0.63838  1.0000
  H   H31       1.0  0.82167  0.81936  0.13838  1.0000
  H   H32       1.0  0.82167  0.68064  0.36162  1.0000
  H   H33       1.0  0.96137  0.23189  0.97995  1.0000
  H   H34       1.0  0.96137  0.26811  0.52005  1.0000
  H   H35       1.0  0.03863  0.76811  0.02005  1.0000
  H   H36       1.0  0.03863  0.73189  0.47995  1.0000
  H   H37       1.0  0.97091  0.21534  0.68604  1.0000
  H   H38       1.0  0.97091  0.28466  0.81396  1.0000
  H   H39       1.0  0.02909  0.78466  0.31396  1.0000
  H   H40       1.0  0.02909  0.71534  0.18604  1.0000
  C   C1        1.0  0.85979  0.96339  0.88466  1.0000
  C   C2        1.0  0.85979  0.53661  0.61534  1.0000
  C   C3        1.0  0.14021  0.03661  0.11534  1.0000
  C   C4        1.0  0.14021  0.46339  0.38466  1.0000
  C   C5        1.0  0.48555  0.11176  0.54245  1.0000
  C   C6        1.0  0.48555  0.38824  0.95755  1.0000
  C   C7        1.0  0.51445  0.88823  0.45755  1.0000
  C   C8        1.0  0.51445  0.61177  0.04245  1.0000
  C   C9        1.0  0.01856  0.95442  0.76251  1.0000
  C   C10       1.0  0.01856  0.54558  0.73749  1.0000
  C   C11       1.0  0.98145  0.04558  0.23749  1.0000
  C   C12       1.0  0.98144  0.45442  0.26251  1.0000
  C   C13       1.0  0.93282  0.06699  0.89446  1.0000
  C   C14       1.0  0.93282  0.43301  0.60554  1.0000
  C   C15       1.0  0.06718  0.93300  0.10554  1.0000
  C   C16       1.0  0.06718  0.56699  0.39446  1.0000
  C   C17       1.0  0.60973  0.93203  0.53124  1.0000
  C   C18       1.0  0.60973  0.56797  0.96876  1.0000
  C   C19       1.0  0.39027  0.06796  0.46876  1.0000
  C   C20       1.0  0.39027  0.43204  0.03124  1.0000
  C   C21       1.0  0.72648  0.85947  0.56770  1.0000
  C   C22       1.0  0.72648  0.64053  0.93230  1.0000
  C   C23       1.0  0.27352  0.14053  0.43229  1.0000
  C   C24       1.0  0.27351  0.35947  0.06770  1.0000
  C   C25       1.0  0.71370  0.03340  0.02408  1.0000
  C   C26       1.0  0.71370  0.46660  0.47592  1.0000
  C   C27       1.0  0.28630  0.96660  0.97592  1.0000
  C   C28       1.0  0.28629  0.53340  0.52408  1.0000
  C   C29       1.0  0.59400  0.04433  0.57364  1.0000
  C   C30       1.0  0.59400  0.45567  0.92636  1.0000
  C   C31       1.0  0.40601  0.95566  0.42636  1.0000
  C   C32       1.0  0.40600  0.54434  0.07364  1.0000
  C   C33       1.0  0.10579  0.91521  0.67223  1.0000
  C   C34       1.0  0.10579  0.58480  0.82777  1.0000
  C   C35       1.0  0.89421  0.08479  0.32777  1.0000
  C   C36       1.0  0.89421  0.41521  0.17223  1.0000
  C   C37       1.0  0.74768  0.94610  0.94942  1.0000
  C   C38       1.0  0.74768  0.55390  0.55058  1.0000
  C   C39       1.0  0.25232  0.05390  0.05058  1.0000
  C   C40       1.0  0.25232  0.44610  0.44942  1.0000
  C   C41       1.0  0.78946  0.13518  0.03502  1.0000
  C   C42       1.0  0.78946  0.36482  0.46498  1.0000
  C   C43       1.0  0.21054  0.86482  0.96498  1.0000
  C   C44       1.0  0.21053  0.63518  0.53502  1.0000
  C   C45       1.0  0.12138  0.15226  0.79020  1.0000
  C   C46       1.0  0.12138  0.34774  0.70980  1.0000
  C   C47       1.0  0.87862  0.84774  0.20980  1.0000
  C   C48       1.0  0.87862  0.65226  0.29020  1.0000
  C   C49       1.0  0.90086  0.15407  0.97058  1.0000
  C   C50       1.0  0.90086  0.34593  0.52942  1.0000
  C   C51       1.0  0.09914  0.84593  0.02942  1.0000
  C   C52       1.0  0.09914  0.65407  0.47058  1.0000
  C   C53       1.0  0.03705  0.25000  0.75000  1.0000
  C   C54       1.0  0.96294  0.75000  0.25000  1.0000
  Br  Br1       1.0  0.46798  0.26475  0.59832  1.0000
  Br  Br2       1.0  0.46798  0.23525  0.90168  1.0000
  Br  Br3       1.0  0.53202  0.73525  0.40168  1.0000
  Br  Br4       1.0  0.53202  0.76475  0.09832  1.0000
  Br  Br5       1.0  0.71972  0.10278  0.67622  1.0000
  Br  Br6       1.0  0.71972  0.39722  0.82378  1.0000
  Br  Br7       1.0  0.28028  0.89721  0.32378  1.0000
  Br  Br8       1.0  0.28028  0.60279  0.17622  1.0000
  N   N1        1.0  0.91720  0.89409  0.80275  1.0000
  N   N2        1.0  0.91720  0.60591  0.69725  1.0000
  N   N3        1.0  0.08280  0.10591  0.19725  1.0000
  N   N4        1.0  0.08280  0.39409  0.30275  1.0000
  N   N5        1.0  0.03196  0.05860  0.81614  1.0000
  N   N6        1.0  0.03196  0.44140  0.68386  1.0000
  N   N7        1.0  0.96804  0.94140  0.18386  1.0000
  N   N8        1.0  0.96804  0.55860  0.31614  1.0000
  O   O1        1.0  0.69653  0.80931  0.65257  1.0000
  O   O2        1.0  0.69653  0.69069  0.84743  1.0000
  O   O3        1.0  0.30348  0.19069  0.34742  1.0000
  O   O4        1.0  0.30348  0.30931  0.15258  1.0000
  O   O5        1.0  0.83475  0.85423  0.51711  1.0000
  O   O6        1.0  0.83474  0.64577  0.98289  1.0000
  O   O7        1.0  0.16525  0.14576  0.48289  1.0000
  O   O8        1.0  0.16526  0.35424  0.01711  1.0000
