data_image0
_chemical_formula_structural       Cu4H40C40N4O16
_chemical_formula_sum              "Cu4 H40 C40 N4 O16"
_cell_length_a       6.51081
_cell_length_b       11.245
_cell_length_c       14.3863
_cell_angle_alpha    108.462
_cell_angle_beta     90
_cell_angle_gamma    90

_space_group_name_H-M_alt    "P 1"
_space_group_IT_number       1

loop_
  _space_group_symop_operation_xyz
  'x, y, z'

loop_
  _atom_site_type_symbol
  _atom_site_label
  _atom_site_symmetry_multiplicity
  _atom_site_fract_x
  _atom_site_fract_y
  _atom_site_fract_z
  _atom_site_occupancy
  Cu  Cu1       1.0  0.96772  0.54431  0.42685  1.0000
  Cu  Cu2       1.0  0.46772  0.95569  0.07315  1.0000
  Cu  Cu3       1.0  0.03228  0.45569  0.57316  1.0000
  Cu  Cu4       1.0  0.53229  0.04431  0.92685  1.0000
  H   H1        1.0  0.54293  0.55455  0.35821  1.0000
  H   H2        1.0  0.04294  0.94545  0.14179  1.0000
  H   H3        1.0  0.45706  0.44545  0.64179  1.0000
  H   H4        1.0  0.95705  0.05455  0.85821  1.0000
  H   H5        1.0  0.34653  0.53267  0.20701  1.0000
  H   H6        1.0  0.84654  0.96733  0.29298  1.0000
  H   H7        1.0  0.65347  0.46733  0.79299  1.0000
  H   H8        1.0  0.15347  0.03267  0.70701  1.0000
  H   H9        1.0  0.89630  0.63543  0.08325  1.0000
  H   H10       1.0  0.39631  0.86456  0.41674  1.0000
  H   H11       1.0  0.10370  0.36457  0.91675  1.0000
  H   H12       1.0  0.60371  0.13543  0.58325  1.0000
  H   H13       1.0  0.07566  0.64491  0.23877  1.0000
  H   H14       1.0  0.57566  0.85509  0.26123  1.0000
  H   H15       1.0  0.92434  0.35509  0.76123  1.0000
  H   H16       1.0  0.42434  0.14491  0.73877  1.0000
  H   H17       1.0  0.32927  0.59141  0.05278  1.0000
  H   H18       1.0  0.82928  0.90860  0.44722  1.0000
  H   H19       1.0  0.67073  0.40859  0.94722  1.0000
  H   H20       1.0  0.17074  0.09140  0.55278  1.0000
  H   H21       1.0  0.55423  0.63519  0.00350  1.0000
  H   H22       1.0  0.05422  0.86480  0.49649  1.0000
  H   H23       1.0  0.44578  0.36480  0.99649  1.0000
  H   H24       1.0  0.94579  0.13519  0.50351  1.0000
  H   H25       1.0  0.51380  0.70703  0.72331  1.0000
  H   H26       1.0  0.01380  0.79297  0.77669  1.0000
  H   H27       1.0  0.48619  0.29297  0.27670  1.0000
  H   H28       1.0  0.98619  0.20703  0.22331  1.0000
  H   H29       1.0  0.67186  0.82699  0.70960  1.0000
  H   H30       1.0  0.17186  0.67301  0.79040  1.0000
  H   H31       1.0  0.32813  0.17301  0.29042  1.0000
  H   H32       1.0  0.82812  0.32699  0.20958  1.0000
  H   H33       1.0  0.32528  0.85688  0.65696  1.0000
  H   H34       1.0  0.82529  0.64312  0.84304  1.0000
  H   H35       1.0  0.67471  0.14312  0.34305  1.0000
  H   H36       1.0  0.17470  0.35688  0.15695  1.0000
  H   H37       1.0  0.48692  0.81578  0.55177  1.0000
  H   H38       1.0  0.98692  0.68422  0.94823  1.0000
  H   H39       1.0  0.51308  0.18422  0.44824  1.0000
  H   H40       1.0  0.01308  0.31577  0.05176  1.0000
  C   C1        1.0  0.61810  0.56907  0.29514  1.0000
  C   C2        1.0  0.11811  0.93093  0.20486  1.0000
  C   C3        1.0  0.38189  0.43093  0.70486  1.0000
  C   C4        1.0  0.88189  0.06907  0.79514  1.0000
  C   C5        1.0  0.50848  0.55781  0.20993  1.0000
  C   C6        1.0  0.00849  0.94219  0.29007  1.0000
  C   C7        1.0  0.49151  0.44220  0.79007  1.0000
  C   C8        1.0  0.99152  0.05781  0.70993  1.0000
  C   C9        1.0  0.60548  0.57936  0.12994  1.0000
  C   C10       1.0  0.10549  0.92064  0.37006  1.0000
  C   C11       1.0  0.39452  0.42064  0.87006  1.0000
  C   C12       1.0  0.89452  0.07936  0.62994  1.0000
  C   C13       1.0  0.81384  0.61230  0.14123  1.0000
  C   C14       1.0  0.31385  0.88770  0.35877  1.0000
  C   C15       1.0  0.18616  0.38770  0.85877  1.0000
  C   C16       1.0  0.68616  0.11230  0.64122  1.0000
  C   C17       1.0  0.91382  0.61903  0.22835  1.0000
  C   C18       1.0  0.41382  0.88097  0.27165  1.0000
  C   C19       1.0  0.08618  0.38097  0.77165  1.0000
  C   C20       1.0  0.58618  0.11903  0.72835  1.0000
  C   C21       1.0  0.49205  0.56714  0.03649  1.0000
  C   C22       1.0  0.99205  0.93286  0.46350  1.0000
  C   C23       1.0  0.50796  0.43286  0.96350  1.0000
  C   C24       1.0  0.00797  0.06714  0.53649  1.0000
  C   C25       1.0  0.73410  0.64847  0.60731  1.0000
  C   C26       1.0  0.23409  0.85153  0.89269  1.0000
  C   C27       1.0  0.26590  0.35154  0.39269  1.0000
  C   C28       1.0  0.76590  0.14846  0.10731  1.0000
  C   C29       1.0  0.58250  0.74389  0.66861  1.0000
  C   C30       1.0  0.08250  0.75611  0.83139  1.0000
  C   C31       1.0  0.41750  0.25611  0.33140  1.0000
  C   C32       1.0  0.91749  0.24389  0.16861  1.0000
  C   C33       1.0  0.41821  0.78102  0.60773  1.0000
  C   C34       1.0  0.91821  0.71899  0.89227  1.0000
  C   C35       1.0  0.58179  0.21899  0.39228  1.0000
  C   C36       1.0  0.08178  0.28101  0.10772  1.0000
  C   C37       1.0  0.26912  0.67520  0.55934  1.0000
  C   C38       1.0  0.76912  0.82480  0.94065  1.0000
  C   C39       1.0  0.73088  0.32481  0.44066  1.0000
  C   C40       1.0  0.23088  0.17519  0.05934  1.0000
  N   N1        1.0  0.81993  0.59684  0.30451  1.0000
  N   N2        1.0  0.31994  0.90316  0.19548  1.0000
  N   N3        1.0  0.18007  0.40316  0.69549  1.0000
  N   N4        1.0  0.68007  0.09684  0.80451  1.0000
  O   O1        1.0  0.76916  0.65313  0.52147  1.0000
  O   O2        1.0  0.26916  0.84688  0.97853  1.0000
  O   O3        1.0  0.23084  0.34688  0.47854  1.0000
  O   O4        1.0  0.73084  0.15312  0.02146  1.0000
  O   O5        1.0  0.81662  0.57397  0.64743  1.0000
  O   O6        1.0  0.31662  0.92602  0.85257  1.0000
  O   O7        1.0  0.18339  0.42603  0.35258  1.0000
  O   O8        1.0  0.68338  0.07396  0.14742  1.0000
  O   O9        1.0  0.18778  0.67318  0.47828  1.0000
  O   O10       1.0  0.68778  0.82682  0.02172  1.0000
  O   O11       1.0  0.81222  0.32683  0.52173  1.0000
  O   O12       1.0  0.31221  0.17317  0.97827  1.0000
  O   O13       1.0  0.23305  0.59891  0.60636  1.0000
  O   O14       1.0  0.73305  0.90110  0.89364  1.0000
  O   O15       1.0  0.76696  0.40109  0.39365  1.0000
  O   O16       1.0  0.26696  0.09891  0.10635  1.0000
