data_image0
_chemical_formula_structural       Ag2H16C20N4Cl2
_chemical_formula_sum              "Ag2 H16 C20 N4 Cl2"
_cell_length_a       5.89395
_cell_length_b       9.27241
_cell_length_c       9.27221
_cell_angle_alpha    92.4615
_cell_angle_beta     107.939
_cell_angle_gamma    107.941

_space_group_name_H-M_alt    "P 1"
_space_group_IT_number       1

loop_
  _space_group_symop_operation_xyz
  'x, y, z'

loop_
  _atom_site_type_symbol
  _atom_site_label
  _atom_site_symmetry_multiplicity
  _atom_site_fract_x
  _atom_site_fract_y
  _atom_site_fract_z
  _atom_site_occupancy
  Ag  Ag1       1.0  0.24999  0.91853  0.08148  1.0000
  Ag  Ag2       1.0  0.75001  0.08147  0.91853  1.0000
  H   H1        1.0  0.11948  0.02451  0.37097  1.0000
  H   H2        1.0  0.38049  0.62904  0.97549  1.0000
  H   H3        1.0  0.88052  0.97549  0.62903  1.0000
  H   H4        1.0  0.61951  0.37096  0.02451  1.0000
  H   H5        1.0  0.32935  0.21617  0.61335  1.0000
  H   H6        1.0  0.17062  0.38666  0.78384  1.0000
  H   H7        1.0  0.67066  0.78385  0.38665  1.0000
  H   H8        1.0  0.82938  0.61333  0.21615  1.0000
  H   H9        1.0  0.01156  0.34274  0.49468  1.0000
  H   H10       1.0  0.48842  0.50533  0.65726  1.0000
  H   H11       1.0  0.98844  0.65726  0.50532  1.0000
  H   H12       1.0  0.51158  0.49467  0.34274  1.0000
  H   H13       1.0  0.77960  0.13490  0.26786  1.0000
  H   H14       1.0  0.72039  0.73215  0.86509  1.0000
  H   H15       1.0  0.22041  0.86509  0.73214  1.0000
  H   H16       1.0  0.27961  0.26785  0.13491  1.0000
  C   C1        1.0  0.31781  0.09770  0.40477  1.0000
  C   C2        1.0  0.18217  0.59525  0.90230  1.0000
  C   C3        1.0  0.68221  0.90231  0.59525  1.0000
  C   C4        1.0  0.81784  0.40475  0.09770  1.0000
  C   C5        1.0  0.43300  0.20750  0.53591  1.0000
  C   C6        1.0  0.06697  0.46410  0.79251  1.0000
  C   C7        1.0  0.56701  0.79251  0.46409  1.0000
  C   C8        1.0  0.93302  0.53589  0.20749  1.0000
  C   C9        1.0  0.68680  0.30047  0.57128  1.0000
  C   C10       1.0  0.81318  0.42872  0.69953  1.0000
  C   C11       1.0  0.31321  0.69954  0.42873  1.0000
  C   C12       1.0  0.18682  0.57127  0.30046  1.0000
  C   C13       1.0  0.81492  0.27316  0.47403  1.0000
  C   C14       1.0  0.68506  0.52598  0.72684  1.0000
  C   C15       1.0  0.18505  0.72682  0.52597  1.0000
  C   C16       1.0  0.31495  0.47402  0.27316  1.0000
  C   C17       1.0  0.68684  0.16002  0.34612  1.0000
  C   C18       1.0  0.81313  0.65388  0.83998  1.0000
  C   C19       1.0  0.31317  0.83998  0.65388  1.0000
  C   C20       1.0  0.18687  0.34612  0.16002  1.0000
  N   N1        1.0  0.44080  0.07441  0.31000  1.0000
  N   N2        1.0  0.05916  0.69001  0.92559  1.0000
  N   N3        1.0  0.55919  0.92558  0.68999  1.0000
  N   N4        1.0  0.94084  0.30999  0.07442  1.0000
  Cl  Cl1       1.0  0.25001  0.12160  0.87840  1.0000
  Cl  Cl2       1.0  0.74999  0.87840  0.12160  1.0000
