data_image0
_chemical_formula_structural       Cd8H48C56N32
_chemical_formula_sum              "Cd8 H48 C56 N32"
_cell_length_a       9.28612
_cell_length_b       14.7939
_cell_length_c       15.246
_cell_angle_alpha    90
_cell_angle_beta     90
_cell_angle_gamma    100.455

_space_group_name_H-M_alt    "P 1"
_space_group_IT_number       1

loop_
  _space_group_symop_operation_xyz
  'x, y, z'

loop_
  _atom_site_type_symbol
  _atom_site_label
  _atom_site_symmetry_multiplicity
  _atom_site_fract_x
  _atom_site_fract_y
  _atom_site_fract_z
  _atom_site_occupancy
  Cd  Cd1       1.0  0.69214  0.24393  0.79545  1.0000
  Cd  Cd2       1.0  0.30786  0.25607  0.29545  1.0000
  Cd  Cd3       1.0  0.30786  0.75607  0.20455  1.0000
  Cd  Cd4       1.0  0.69213  0.74393  0.70455  1.0000
  Cd  Cd5       1.0  0.76538  0.99809  0.76641  1.0000
  Cd  Cd6       1.0  0.23462  0.50191  0.26641  1.0000
  Cd  Cd7       1.0  0.23462  0.00191  0.23359  1.0000
  Cd  Cd8       1.0  0.76538  0.49809  0.73359  1.0000
  H   H1        1.0  0.46529  0.93622  0.65064  1.0000
  H   H2        1.0  0.53471  0.56378  0.15064  1.0000
  H   H3        1.0  0.53471  0.06378  0.34936  1.0000
  H   H4        1.0  0.46529  0.43622  0.84936  1.0000
  H   H5        1.0  0.33974  0.19318  0.72515  1.0000
  H   H6        1.0  0.66026  0.30681  0.22515  1.0000
  H   H7        1.0  0.66026  0.80682  0.27485  1.0000
  H   H8        1.0  0.33973  0.69318  0.77485  1.0000
  H   H9        1.0  0.16647  0.95917  0.61211  1.0000
  H   H10       1.0  0.83353  0.54083  0.11211  1.0000
  H   H11       1.0  0.83353  0.04083  0.38789  1.0000
  H   H12       1.0  0.16647  0.45917  0.88789  1.0000
  H   H13       1.0  0.12463  0.06676  0.63878  1.0000
  H   H14       1.0  0.87537  0.43324  0.13878  1.0000
  H   H15       1.0  0.87537  0.93324  0.36122  1.0000
  H   H16       1.0  0.12463  0.56676  0.86122  1.0000
  H   H17       1.0  0.36779  0.20467  0.51328  1.0000
  H   H18       1.0  0.63221  0.29533  0.01328  1.0000
  H   H19       1.0  0.63221  0.79533  0.48672  1.0000
  H   H20       1.0  0.36779  0.70467  0.98672  1.0000
  H   H21       1.0  0.11338  0.94154  0.43760  1.0000
  H   H22       1.0  0.88662  0.55846  0.93760  1.0000
  H   H23       1.0  0.88662  0.05846  0.56240  1.0000
  H   H24       1.0  0.11338  0.44154  0.06240  1.0000
  H   H25       1.0  0.78281  0.45868  0.51289  1.0000
  H   H26       1.0  0.21719  0.04133  0.01289  1.0000
  H   H27       1.0  0.21719  0.54133  0.48711  1.0000
  H   H28       1.0  0.78281  0.95868  0.98711  1.0000
  H   H29       1.0  0.66310  0.17257  0.58811  1.0000
  H   H30       1.0  0.33690  0.32743  0.08811  1.0000
  H   H31       1.0  0.33690  0.82743  0.41189  1.0000
  H   H32       1.0  0.66310  0.67257  0.91189  1.0000
  H   H33       1.0  0.64038  0.30788  0.37966  1.0000
  H   H34       1.0  0.35962  0.19212  0.87966  1.0000
  H   H35       1.0  0.35962  0.69212  0.62034  1.0000
  H   H36       1.0  0.64038  0.80788  0.12034  1.0000
  H   H37       1.0  0.68283  0.20103  0.41130  1.0000
  H   H38       1.0  0.31717  0.29897  0.91130  1.0000
  H   H39       1.0  0.31717  0.79897  0.58871  1.0000
  H   H40       1.0  0.68283  0.70103  0.08870  1.0000
  H   H41       1.0  0.98878  0.18490  0.39566  1.0000
  H   H42       1.0  0.01123  0.31510  0.89566  1.0000
  H   H43       1.0  0.01122  0.81510  0.60434  1.0000
  H   H44       1.0  0.98877  0.68490  0.10434  1.0000
  H   H45       1.0  0.87523  0.44541  0.32068  1.0000
  H   H46       1.0  0.12477  0.05459  0.82068  1.0000
  H   H47       1.0  0.12477  0.55459  0.67932  1.0000
  H   H48       1.0  0.87523  0.94542  0.17932  1.0000
  C   C1        1.0  0.21020  0.03337  0.60960  1.0000
  C   C2        1.0  0.78980  0.46663  0.10960  1.0000
  C   C3        1.0  0.78980  0.96663  0.39040  1.0000
  C   C4        1.0  0.21020  0.53337  0.89040  1.0000
  C   C5        1.0  0.34504  0.05505  0.66539  1.0000
  C   C6        1.0  0.65496  0.44495  0.16539  1.0000
  C   C7        1.0  0.65496  0.94495  0.33461  1.0000
  C   C8        1.0  0.34504  0.55505  0.83461  1.0000
  C   C9        1.0  0.45432  0.00235  0.67845  1.0000
  C   C10       1.0  0.54567  0.49765  0.17845  1.0000
  C   C11       1.0  0.54567  0.99764  0.32155  1.0000
  C   C12       1.0  0.45432  0.50235  0.82155  1.0000
  C   C13       1.0  0.39138  0.13353  0.71639  1.0000
  C   C14       1.0  0.60862  0.36647  0.21639  1.0000
  C   C15       1.0  0.60862  0.86647  0.28361  1.0000
  C   C16       1.0  0.39138  0.63353  0.78361  1.0000
  C   C17       1.0  0.23215  0.06173  0.51504  1.0000
  C   C18       1.0  0.76786  0.43827  0.01504  1.0000
  C   C19       1.0  0.76786  0.93827  0.48496  1.0000
  C   C20       1.0  0.23215  0.56173  0.98496  1.0000
  C   C21       1.0  0.30671  0.14479  0.47996  1.0000
  C   C22       1.0  0.69329  0.35521  0.97995  1.0000
  C   C23       1.0  0.69329  0.85521  0.52005  1.0000
  C   C24       1.0  0.30671  0.64479  0.02005  1.0000
  C   C25       1.0  0.17672  0.01088  0.44113  1.0000
  C   C26       1.0  0.82328  0.48912  0.94113  1.0000
  C   C27       1.0  0.82328  0.98912  0.55887  1.0000
  C   C28       1.0  0.17672  0.51088  0.05887  1.0000
  C   C29       1.0  0.72038  0.27582  0.41605  1.0000
  C   C30       1.0  0.27962  0.22418  0.91605  1.0000
  C   C31       1.0  0.27962  0.72418  0.58395  1.0000
  C   C32       1.0  0.72037  0.77582  0.08395  1.0000
  C   C33       1.0  0.72069  0.30387  0.51084  1.0000
  C   C34       1.0  0.27931  0.19613  0.01084  1.0000
  C   C35       1.0  0.27931  0.69613  0.48916  1.0000
  C   C36       1.0  0.72069  0.80387  0.98916  1.0000
  C   C37       1.0  0.75360  0.39281  0.54600  1.0000
  C   C38       1.0  0.24640  0.10719  0.04600  1.0000
  C   C39       1.0  0.24639  0.60719  0.45400  1.0000
  C   C40       1.0  0.75360  0.89281  0.95400  1.0000
  C   C41       1.0  0.69340  0.24704  0.58458  1.0000
  C   C42       1.0  0.30661  0.25296  0.08458  1.0000
  C   C43       1.0  0.30660  0.75296  0.41542  1.0000
  C   C44       1.0  0.69340  0.74704  0.91542  1.0000
  C   C45       1.0  0.86808  0.30252  0.37370  1.0000
  C   C46       1.0  0.13192  0.19748  0.87370  1.0000
  C   C47       1.0  0.13192  0.69748  0.62630  1.0000
  C   C48       1.0  0.86808  0.80252  0.12630  1.0000
  C   C49       1.0  0.98351  0.25328  0.37117  1.0000
  C   C50       1.0  0.01650  0.24673  0.87117  1.0000
  C   C51       1.0  0.01649  0.74673  0.62883  1.0000
  C   C52       1.0  0.98350  0.75328  0.12883  1.0000
  C   C53       1.0  0.92631  0.38613  0.33312  1.0000
  C   C54       1.0  0.07369  0.11388  0.83312  1.0000
  C   C55       1.0  0.07369  0.61388  0.66688  1.0000
  C   C56       1.0  0.92631  0.88613  0.16688  1.0000
  N   N1        1.0  0.55720  0.04625  0.73389  1.0000
  N   N2        1.0  0.44280  0.45375  0.23389  1.0000
  N   N3        1.0  0.44280  0.95375  0.26611  1.0000
  N   N4        1.0  0.55720  0.54625  0.76611  1.0000
  N   N5        1.0  0.51798  0.12732  0.75806  1.0000
  N   N6        1.0  0.48202  0.37268  0.25807  1.0000
  N   N7        1.0  0.48202  0.87268  0.24193  1.0000
  N   N8        1.0  0.51798  0.62732  0.74193  1.0000
  N   N9        1.0  0.29599  0.14287  0.39138  1.0000
  N   N10       1.0  0.70401  0.35713  0.89137  1.0000
  N   N11       1.0  0.70401  0.85713  0.60863  1.0000
  N   N12       1.0  0.29599  0.64287  0.10863  1.0000
  N   N13       1.0  0.21356  0.06025  0.36735  1.0000
  N   N14       1.0  0.78644  0.43975  0.86735  1.0000
  N   N15       1.0  0.78644  0.93975  0.63265  1.0000
  N   N16       1.0  0.21356  0.56025  0.13265  1.0000
  N   N17       1.0  0.74638  0.38844  0.63445  1.0000
  N   N18       1.0  0.25362  0.11156  0.13445  1.0000
  N   N19       1.0  0.25362  0.61156  0.36556  1.0000
  N   N20       1.0  0.74638  0.88844  0.86555  1.0000
  N   N21       1.0  0.70889  0.29861  0.65836  1.0000
  N   N22       1.0  0.29111  0.20139  0.15836  1.0000
  N   N23       1.0  0.29111  0.70139  0.34164  1.0000
  N   N24       1.0  0.70889  0.79861  0.84164  1.0000
  N   N25       1.0  0.10140  0.30397  0.33176  1.0000
  N   N26       1.0  0.89860  0.19603  0.83176  1.0000
  N   N27       1.0  0.89860  0.69603  0.66824  1.0000
  N   N28       1.0  0.10140  0.80397  0.16824  1.0000
  N   N29       1.0  0.06582  0.38598  0.30785  1.0000
  N   N30       1.0  0.93418  0.11403  0.80785  1.0000
  N   N31       1.0  0.93418  0.61403  0.69215  1.0000
  N   N32       1.0  0.06582  0.88598  0.19215  1.0000
