data_image0
_chemical_formula_structural       Co4H56C44N16
_chemical_formula_sum              "Co4 H56 C44 N16"
_cell_length_a       9.15525
_cell_length_b       9.15516
_cell_length_c       13.4487
_cell_angle_alpha    90
_cell_angle_beta     90
_cell_angle_gamma    90

_space_group_name_H-M_alt    "P 1"
_space_group_IT_number       1

loop_
  _space_group_symop_operation_xyz
  'x, y, z'

loop_
  _atom_site_type_symbol
  _atom_site_label
  _atom_site_symmetry_multiplicity
  _atom_site_fract_x
  _atom_site_fract_y
  _atom_site_fract_z
  _atom_site_occupancy
  Co  Co1       1.0  0.00000  0.91332  0.00000  1.0000
  Co  Co2       1.0  0.00000  0.08668  0.50000  1.0000
  Co  Co3       1.0  0.08668  0.00000  0.25000  1.0000
  Co  Co4       1.0  0.91332  0.00000  0.75000  1.0000
  H   H1        1.0  0.67098  0.46165  0.19017  1.0000
  H   H2        1.0  0.32902  0.53835  0.69017  1.0000
  H   H3        1.0  0.32902  0.46165  0.80983  1.0000
  H   H4        1.0  0.53835  0.32901  0.05983  1.0000
  H   H5        1.0  0.53835  0.67098  0.44017  1.0000
  H   H6        1.0  0.46165  0.32901  0.94017  1.0000
  H   H7        1.0  0.46165  0.67098  0.55983  1.0000
  H   H8        1.0  0.67098  0.53835  0.30983  1.0000
  H   H9        1.0  0.72663  0.72609  0.98038  1.0000
  H   H10       1.0  0.27336  0.27391  0.48038  1.0000
  H   H11       1.0  0.27336  0.72609  0.01962  1.0000
  H   H12       1.0  0.27391  0.27336  0.26962  1.0000
  H   H13       1.0  0.27391  0.72664  0.23038  1.0000
  H   H14       1.0  0.72609  0.27336  0.73038  1.0000
  H   H15       1.0  0.72609  0.72664  0.76962  1.0000
  H   H16       1.0  0.72664  0.27391  0.51962  1.0000
  H   H17       1.0  0.84720  0.57593  0.97015  1.0000
  H   H18       1.0  0.15281  0.42408  0.47015  1.0000
  H   H19       1.0  0.15280  0.57593  0.02985  1.0000
  H   H20       1.0  0.42407  0.15281  0.27984  1.0000
  H   H21       1.0  0.42407  0.84719  0.22016  1.0000
  H   H22       1.0  0.57593  0.15281  0.72015  1.0000
  H   H23       1.0  0.57593  0.84719  0.77985  1.0000
  H   H24       1.0  0.84719  0.42408  0.52985  1.0000
  H   H25       1.0  0.68126  0.55656  0.03741  1.0000
  H   H26       1.0  0.31874  0.44344  0.53741  1.0000
  H   H27       1.0  0.31874  0.55656  0.96259  1.0000
  H   H28       1.0  0.44343  0.31874  0.21259  1.0000
  H   H29       1.0  0.44343  0.68126  0.28741  1.0000
  H   H30       1.0  0.55657  0.31874  0.78741  1.0000
  H   H31       1.0  0.55657  0.68126  0.71259  1.0000
  H   H32       1.0  0.68126  0.44344  0.46259  1.0000
  H   H33       1.0  0.05735  0.62910  0.38854  1.0000
  H   H34       1.0  0.94265  0.37090  0.88854  1.0000
  H   H35       1.0  0.94265  0.62910  0.61146  1.0000
  H   H36       1.0  0.37090  0.94265  0.86146  1.0000
  H   H37       1.0  0.37090  0.05735  0.63854  1.0000
  H   H38       1.0  0.62910  0.94265  0.13854  1.0000
  H   H39       1.0  0.62910  0.05735  0.36146  1.0000
  H   H40       1.0  0.05735  0.37090  0.11147  1.0000
  H   H41       1.0  0.98233  0.80330  0.41215  1.0000
  H   H42       1.0  0.01767  0.19669  0.91215  1.0000
  H   H43       1.0  0.01767  0.80331  0.58785  1.0000
  H   H44       1.0  0.19670  0.01767  0.83785  1.0000
  H   H45       1.0  0.19670  0.98233  0.66215  1.0000
  H   H46       1.0  0.80330  0.01767  0.16215  1.0000
  H   H47       1.0  0.80330  0.98233  0.33785  1.0000
  H   H48       1.0  0.98233  0.19669  0.08785  1.0000
  H   H49       1.0  0.86883  0.64679  0.41598  1.0000
  H   H50       1.0  0.13117  0.35321  0.91598  1.0000
  H   H51       1.0  0.13117  0.64679  0.58402  1.0000
  H   H52       1.0  0.35321  0.13117  0.83403  1.0000
  H   H53       1.0  0.35321  0.86883  0.66597  1.0000
  H   H54       1.0  0.64679  0.13117  0.16597  1.0000
  H   H55       1.0  0.64679  0.86883  0.33403  1.0000
  H   H56       1.0  0.86883  0.35321  0.08402  1.0000
  C   C1        1.0  0.74401  0.50000  0.25000  1.0000
  C   C2        1.0  0.25599  0.50000  0.75000  1.0000
  C   C3        1.0  0.50000  0.25598  1.00000  1.0000
  C   C4        1.0  0.50000  0.74402  0.50000  1.0000
  C   C5        1.0  0.83354  0.62553  0.21176  1.0000
  C   C6        1.0  0.16646  0.37448  0.71176  1.0000
  C   C7        1.0  0.16646  0.62553  0.78824  1.0000
  C   C8        1.0  0.37447  0.16645  0.03824  1.0000
  C   C9        1.0  0.37447  0.83355  0.46176  1.0000
  C   C10       1.0  0.62553  0.16645  0.96176  1.0000
  C   C11       1.0  0.62552  0.83355  0.53824  1.0000
  C   C12       1.0  0.83354  0.37448  0.28824  1.0000
  C   C13       1.0  0.84530  0.67990  0.11427  1.0000
  C   C14       1.0  0.15469  0.32011  0.61427  1.0000
  C   C15       1.0  0.15469  0.67990  0.88572  1.0000
  C   C16       1.0  0.32010  0.15469  0.13573  1.0000
  C   C17       1.0  0.32010  0.84531  0.36427  1.0000
  C   C18       1.0  0.67990  0.15469  0.86427  1.0000
  C   C19       1.0  0.67990  0.84531  0.63573  1.0000
  C   C20       1.0  0.84531  0.32011  0.38573  1.0000
  C   C21       1.0  0.77128  0.63186  0.02090  1.0000
  C   C22       1.0  0.22872  0.36814  0.52090  1.0000
  C   C23       1.0  0.22872  0.63186  0.97910  1.0000
  C   C24       1.0  0.36814  0.22872  0.22910  1.0000
  C   C25       1.0  0.36814  0.77128  0.27090  1.0000
  C   C26       1.0  0.63187  0.22872  0.77090  1.0000
  C   C27       1.0  0.63186  0.77128  0.72910  1.0000
  C   C28       1.0  0.77128  0.36814  0.47910  1.0000
  C   C29       1.0  0.92695  0.71333  0.26896  1.0000
  C   C30       1.0  0.07305  0.28668  0.76896  1.0000
  C   C31       1.0  0.07305  0.71333  0.73104  1.0000
  C   C32       1.0  0.28667  0.07304  0.98103  1.0000
  C   C33       1.0  0.28667  0.92696  0.51897  1.0000
  C   C34       1.0  0.71333  0.07305  0.01897  1.0000
  C   C35       1.0  0.71333  0.92695  0.48103  1.0000
  C   C36       1.0  0.92695  0.28668  0.23104  1.0000
  C   C37       1.0  0.96033  0.69806  0.37671  1.0000
  C   C38       1.0  0.03967  0.30194  0.87671  1.0000
  C   C39       1.0  0.03967  0.69806  0.62329  1.0000
  C   C40       1.0  0.30194  0.03966  0.87328  1.0000
  C   C41       1.0  0.30194  0.96033  0.62671  1.0000
  C   C42       1.0  0.69806  0.03967  0.12671  1.0000
  C   C43       1.0  0.69806  0.96033  0.37329  1.0000
  C   C44       1.0  0.96033  0.30194  0.12329  1.0000
  N   N1        1.0  0.93991  0.79373  0.11419  1.0000
  N   N2        1.0  0.06009  0.20627  0.61419  1.0000
  N   N3        1.0  0.06008  0.79373  0.88581  1.0000
  N   N4        1.0  0.20627  0.06009  0.13581  1.0000
  N   N5        1.0  0.20627  0.93992  0.36419  1.0000
  N   N6        1.0  0.79373  0.06008  0.86418  1.0000
  N   N7        1.0  0.79373  0.93991  0.63581  1.0000
  N   N8        1.0  0.93991  0.20627  0.38581  1.0000
  N   N9        1.0  0.98894  0.81635  0.20955  1.0000
  N   N10       1.0  0.01106  0.18365  0.70955  1.0000
  N   N11       1.0  0.01106  0.81635  0.79045  1.0000
  N   N12       1.0  0.18365  0.01106  0.04045  1.0000
  N   N13       1.0  0.18365  0.98894  0.45955  1.0000
  N   N14       1.0  0.81635  0.01106  0.95955  1.0000
  N   N15       1.0  0.81635  0.98894  0.54045  1.0000
  N   N16       1.0  0.98894  0.18365  0.29045  1.0000
