data_image0
_chemical_formula_structural       Cd4H56C44N16
_chemical_formula_sum              "Cd4 H56 C44 N16"
_cell_length_a       7.93451
_cell_length_b       8.32711
_cell_length_c       16.9833
_cell_angle_alpha    90
_cell_angle_beta     90
_cell_angle_gamma    90

_space_group_name_H-M_alt    "P 1"
_space_group_IT_number       1

loop_
  _space_group_symop_operation_xyz
  'x, y, z'

loop_
  _atom_site_type_symbol
  _atom_site_label
  _atom_site_symmetry_multiplicity
  _atom_site_fract_x
  _atom_site_fract_y
  _atom_site_fract_z
  _atom_site_occupancy
  Cd  Cd1       1.0  0.03550  0.00000  0.75000  1.0000
  Cd  Cd2       1.0  0.46450  0.00000  0.25000  1.0000
  Cd  Cd3       1.0  0.96450  0.00000  0.25000  1.0000
  Cd  Cd4       1.0  0.53550  1.00000  0.75000  1.0000
  H   H1        1.0  0.85796  0.27359  0.44200  1.0000
  H   H2        1.0  0.64204  0.27359  0.55800  1.0000
  H   H3        1.0  0.85796  0.72641  0.05800  1.0000
  H   H4        1.0  0.64204  0.72641  0.94200  1.0000
  H   H5        1.0  0.14204  0.72641  0.55800  1.0000
  H   H6        1.0  0.35796  0.72641  0.44200  1.0000
  H   H7        1.0  0.14204  0.27359  0.94200  1.0000
  H   H8        1.0  0.35796  0.27359  0.05800  1.0000
  H   H9        1.0  0.86485  0.06557  0.41911  1.0000
  H   H10       1.0  0.63515  0.06557  0.58089  1.0000
  H   H11       1.0  0.86484  0.93443  0.08089  1.0000
  H   H12       1.0  0.63515  0.93443  0.91911  1.0000
  H   H13       1.0  0.13515  0.93443  0.58089  1.0000
  H   H14       1.0  0.36485  0.93443  0.41911  1.0000
  H   H15       1.0  0.13516  0.06557  0.91911  1.0000
  H   H16       1.0  0.36484  0.06557  0.08089  1.0000
  H   H17       1.0  0.95418  0.13789  0.50819  1.0000
  H   H18       1.0  0.54582  0.13789  0.49182  1.0000
  H   H19       1.0  0.95418  0.86211  0.99182  1.0000
  H   H20       1.0  0.54581  0.86211  0.00819  1.0000
  H   H21       1.0  0.04582  0.86211  0.49181  1.0000
  H   H22       1.0  0.45419  0.86211  0.50819  1.0000
  H   H23       1.0  0.04581  0.13789  0.00818  1.0000
  H   H24       1.0  0.45418  0.13789  0.99181  1.0000
  H   H25       1.0  0.14012  0.47066  0.50602  1.0000
  H   H26       1.0  0.35988  0.47066  0.49398  1.0000
  H   H27       1.0  0.14012  0.52934  0.99398  1.0000
  H   H28       1.0  0.35988  0.52934  0.00602  1.0000
  H   H29       1.0  0.85988  0.52934  0.49398  1.0000
  H   H30       1.0  0.64012  0.52934  0.50602  1.0000
  H   H31       1.0  0.85988  0.47066  0.00602  1.0000
  H   H32       1.0  0.64012  0.47066  0.99398  1.0000
  H   H33       1.0  0.56096  0.34306  0.29157  1.0000
  H   H34       1.0  0.93904  0.34306  0.70843  1.0000
  H   H35       1.0  0.56096  0.65694  0.20843  1.0000
  H   H36       1.0  0.93904  0.65694  0.79157  1.0000
  H   H37       1.0  0.43904  0.65694  0.70843  1.0000
  H   H38       1.0  0.06096  0.65694  0.29157  1.0000
  H   H39       1.0  0.43904  0.34306  0.79157  1.0000
  H   H40       1.0  0.06096  0.34306  0.20843  1.0000
  H   H41       1.0  0.51237  0.48629  0.36534  1.0000
  H   H42       1.0  0.98763  0.48629  0.63466  1.0000
  H   H43       1.0  0.51237  0.51371  0.13466  1.0000
  H   H44       1.0  0.98763  0.51371  0.86534  1.0000
  H   H45       1.0  0.48764  0.51371  0.63466  1.0000
  H   H46       1.0  0.01237  0.51371  0.36534  1.0000
  H   H47       1.0  0.48763  0.48629  0.86534  1.0000
  H   H48       1.0  0.01236  0.48629  0.13465  1.0000
  H   H49       1.0  0.61639  0.30584  0.39082  1.0000
  H   H50       1.0  0.88361  0.30584  0.60918  1.0000
  H   H51       1.0  0.61639  0.69416  0.10918  1.0000
  H   H52       1.0  0.88361  0.69416  0.89082  1.0000
  H   H53       1.0  0.38361  0.69416  0.60918  1.0000
  H   H54       1.0  0.11639  0.69416  0.39082  1.0000
  H   H55       1.0  0.38362  0.30584  0.89082  1.0000
  H   H56       1.0  0.11639  0.30584  0.10918  1.0000
  C   C1        1.0  0.25000  0.39068  0.50000  1.0000
  C   C2        1.0  0.25000  0.60933  0.00000  1.0000
  C   C3        1.0  0.75000  0.60933  0.50000  1.0000
  C   C4        1.0  0.75000  0.39067  1.00000  1.0000
  C   C5        1.0  0.23482  0.29183  0.42619  1.0000
  C   C6        1.0  0.26518  0.29183  0.57381  1.0000
  C   C7        1.0  0.23482  0.70817  0.07381  1.0000
  C   C8        1.0  0.26518  0.70817  0.92619  1.0000
  C   C9        1.0  0.76518  0.70817  0.57381  1.0000
  C   C10       1.0  0.73482  0.70817  0.42619  1.0000
  C   C11       1.0  0.76518  0.29183  0.92619  1.0000
  C   C12       1.0  0.73482  0.29183  0.07380  1.0000
  C   C13       1.0  0.35200  0.27695  0.36463  1.0000
  C   C14       1.0  0.14800  0.27696  0.63537  1.0000
  C   C15       1.0  0.35200  0.72305  0.13537  1.0000
  C   C16       1.0  0.14800  0.72305  0.86463  1.0000
  C   C17       1.0  0.64800  0.72305  0.63537  1.0000
  C   C18       1.0  0.85200  0.72305  0.36463  1.0000
  C   C19       1.0  0.64800  0.27695  0.86463  1.0000
  C   C20       1.0  0.85200  0.27695  0.13537  1.0000
  C   C21       1.0  0.10069  0.18972  0.40504  1.0000
  C   C22       1.0  0.39932  0.18972  0.59496  1.0000
  C   C23       1.0  0.10069  0.81028  0.09496  1.0000
  C   C24       1.0  0.39931  0.81028  0.90504  1.0000
  C   C25       1.0  0.89932  0.81028  0.59496  1.0000
  C   C26       1.0  0.60069  0.81028  0.40504  1.0000
  C   C27       1.0  0.89932  0.18972  0.90504  1.0000
  C   C28       1.0  0.60069  0.18972  0.09496  1.0000
  C   C29       1.0  0.93627  0.16480  0.44552  1.0000
  C   C30       1.0  0.56372  0.16480  0.55448  1.0000
  C   C31       1.0  0.93627  0.83521  0.05448  1.0000
  C   C32       1.0  0.56372  0.83521  0.94552  1.0000
  C   C33       1.0  0.06373  0.83521  0.55448  1.0000
  C   C34       1.0  0.43628  0.83521  0.44552  1.0000
  C   C35       1.0  0.06373  0.16480  0.94552  1.0000
  C   C36       1.0  0.43627  0.16479  0.05448  1.0000
  C   C37       1.0  0.51825  0.35705  0.35267  1.0000
  C   C38       1.0  0.98175  0.35705  0.64733  1.0000
  C   C39       1.0  0.51825  0.64295  0.14733  1.0000
  C   C40       1.0  0.98175  0.64295  0.85267  1.0000
  C   C41       1.0  0.48175  0.64295  0.64733  1.0000
  C   C42       1.0  0.01825  0.64295  0.35267  1.0000
  C   C43       1.0  0.48175  0.35705  0.85267  1.0000
  C   C44       1.0  0.01825  0.35705  0.14733  1.0000
  N   N1        1.0  0.29188  0.17102  0.31070  1.0000
  N   N2        1.0  0.20812  0.17102  0.68931  1.0000
  N   N3        1.0  0.29188  0.82898  0.18931  1.0000
  N   N4        1.0  0.20812  0.82898  0.81070  1.0000
  N   N5        1.0  0.70812  0.82898  0.68930  1.0000
  N   N6        1.0  0.79188  0.82898  0.31070  1.0000
  N   N7        1.0  0.70812  0.17102  0.81069  1.0000
  N   N8        1.0  0.79188  0.17102  0.18930  1.0000
  N   N9        1.0  0.13791  0.11670  0.33607  1.0000
  N   N10       1.0  0.36209  0.11670  0.66393  1.0000
  N   N11       1.0  0.13791  0.88330  0.16393  1.0000
  N   N12       1.0  0.36209  0.88330  0.83607  1.0000
  N   N13       1.0  0.86209  0.88330  0.66393  1.0000
  N   N14       1.0  0.63791  0.88330  0.33607  1.0000
  N   N15       1.0  0.86209  0.11670  0.83607  1.0000
  N   N16       1.0  0.63791  0.11670  0.16393  1.0000
