data_image0
_chemical_formula_structural       Co2H12C14N8
_chemical_formula_sum              "Co2 H12 C14 N8"
_cell_length_a       6.87438
_cell_length_b       8.58642
_cell_length_c       8.58654
_cell_angle_alpha    112.309
_cell_angle_beta     105.063
_cell_angle_gamma    105.063

_space_group_name_H-M_alt    "P 1"
_space_group_IT_number       1

loop_
  _space_group_symop_operation_xyz
  'x, y, z'

loop_
  _atom_site_type_symbol
  _atom_site_label
  _atom_site_symmetry_multiplicity
  _atom_site_fract_x
  _atom_site_fract_y
  _atom_site_fract_z
  _atom_site_occupancy
  Co  Co1       1.0  0.25000  0.47941  0.52059  1.0000
  Co  Co2       1.0  0.75000  0.52059  0.47941  1.0000
  H   H1        1.0  0.11748  0.24585  0.09456  1.0000
  H   H2        1.0  0.38251  0.90543  0.75415  1.0000
  H   H3        1.0  0.88251  0.75414  0.90543  1.0000
  H   H4        1.0  0.61748  0.09457  0.24585  1.0000
  H   H5        1.0  0.58865  0.43349  0.05486  1.0000
  H   H6        1.0  0.91135  0.94515  0.56651  1.0000
  H   H7        1.0  0.41136  0.56652  0.94514  1.0000
  H   H8        1.0  0.08866  0.05485  0.43349  1.0000
  H   H9        1.0  0.61545  0.25117  0.72533  1.0000
  H   H10       1.0  0.88455  0.27467  0.74883  1.0000
  H   H11       1.0  0.38455  0.74882  0.27466  1.0000
  H   H12       1.0  0.11545  0.72533  0.25117  1.0000
  C   C1        1.0  0.75000  0.21648  0.78353  1.0000
  C   C2        1.0  0.25000  0.78353  0.21647  1.0000
  C   C3        1.0  0.82328  0.30484  0.98851  1.0000
  C   C4        1.0  0.67672  0.01149  0.69516  1.0000
  C   C5        1.0  0.17672  0.69516  0.01149  1.0000
  C   C6        1.0  0.32328  0.98850  0.30484  1.0000
  C   C7        1.0  0.99941  0.30582  0.11620  1.0000
  C   C8        1.0  0.50060  0.88381  0.69418  1.0000
  C   C9        1.0  0.00059  0.69418  0.88380  1.0000
  C   C10       1.0  0.49941  0.11620  0.30582  1.0000
  C   C11       1.0  0.73155  0.40331  0.09640  1.0000
  C   C12       1.0  0.76844  0.90360  0.59670  1.0000
  C   C13       1.0  0.26844  0.59670  0.90359  1.0000
  C   C14       1.0  0.23156  0.09640  0.40331  1.0000
  N   N1        1.0  0.01132  0.39954  0.28804  1.0000
  N   N2        1.0  0.48868  0.71196  0.60046  1.0000
  N   N3        1.0  0.98868  0.60046  0.71196  1.0000
  N   N4        1.0  0.51133  0.28804  0.39955  1.0000
  N   N5        1.0  0.84596  0.46065  0.27643  1.0000
  N   N6        1.0  0.65404  0.72357  0.53935  1.0000
  N   N7        1.0  0.15404  0.53935  0.72357  1.0000
  N   N8        1.0  0.34596  0.27643  0.46066  1.0000
