data_image0
_chemical_formula_structural       Cd2H40C44N8
_chemical_formula_sum              "Cd2 H40 C44 N8"
_cell_length_a       7.56914
_cell_length_b       8.82327
_cell_length_c       15.4533
_cell_angle_alpha    89.9999
_cell_angle_beta     89.9993
_cell_angle_gamma    89.9999

_space_group_name_H-M_alt    "P 1"
_space_group_IT_number       1

loop_
  _space_group_symop_operation_xyz
  'x, y, z'

loop_
  _atom_site_type_symbol
  _atom_site_label
  _atom_site_symmetry_multiplicity
  _atom_site_fract_x
  _atom_site_fract_y
  _atom_site_fract_z
  _atom_site_occupancy
  Cd  Cd1       1.0  0.73351  0.99999  0.00000  1.0000
  Cd  Cd2       1.0  0.23351  0.99999  0.00000  1.0000
  H   H1        1.0  0.64282  0.65755  0.38697  1.0000
  H   H2        1.0  0.64282  0.34245  0.61302  1.0000
  H   H3        1.0  0.14283  0.65754  0.61303  1.0000
  H   H4        1.0  0.14282  0.34246  0.38698  1.0000
  H   H5        1.0  0.62610  0.53605  0.24352  1.0000
  H   H6        1.0  0.62610  0.46395  0.75647  1.0000
  H   H7        1.0  0.12612  0.53604  0.75648  1.0000
  H   H8        1.0  0.12611  0.46396  0.24353  1.0000
  H   H9        1.0  0.44861  0.12289  0.36348  1.0000
  H   H10       1.0  0.44860  0.87712  0.63651  1.0000
  H   H11       1.0  0.94861  0.12288  0.63652  1.0000
  H   H12       1.0  0.94861  0.87712  0.36349  1.0000
  H   H13       1.0  0.46096  0.24621  0.50663  1.0000
  H   H14       1.0  0.46096  0.75380  0.49337  1.0000
  H   H15       1.0  0.96095  0.24621  0.49337  1.0000
  H   H16       1.0  0.96096  0.75380  0.50663  1.0000
  H   H17       1.0  0.09807  0.09119  0.17967  1.0000
  H   H18       1.0  0.09807  0.90883  0.82033  1.0000
  H   H19       1.0  0.59808  0.09117  0.82033  1.0000
  H   H20       1.0  0.59808  0.90882  0.17967  1.0000
  H   H21       1.0  0.22432  0.00965  0.26373  1.0000
  H   H22       1.0  0.22432  0.99036  0.73628  1.0000
  H   H23       1.0  0.72433  0.00963  0.73627  1.0000
  H   H24       1.0  0.72432  0.99036  0.26373  1.0000
  H   H25       1.0  0.16389  0.20317  0.26978  1.0000
  H   H26       1.0  0.16388  0.79684  0.73022  1.0000
  H   H27       1.0  0.66390  0.20316  0.73022  1.0000
  H   H28       1.0  0.66388  0.79684  0.26978  1.0000
  H   H29       1.0  0.87164  0.33867  0.19129  1.0000
  H   H30       1.0  0.87164  0.66133  0.80870  1.0000
  H   H31       1.0  0.37164  0.33866  0.80871  1.0000
  H   H32       1.0  0.37164  0.66132  0.19130  1.0000
  H   H33       1.0  0.89213  0.27526  0.08198  1.0000
  H   H34       1.0  0.89212  0.72474  0.91802  1.0000
  H   H35       1.0  0.39213  0.27526  0.91802  1.0000
  H   H36       1.0  0.39213  0.72473  0.08198  1.0000
  H   H37       1.0  0.78710  0.44960  0.10563  1.0000
  H   H38       1.0  0.78710  0.55040  0.89436  1.0000
  H   H39       1.0  0.28709  0.44960  0.89436  1.0000
  H   H40       1.0  0.28709  0.55039  0.10564  1.0000
  C   C1        1.0  0.55042  0.46221  0.45748  1.0000
  C   C2        1.0  0.55042  0.53780  0.54251  1.0000
  C   C3        1.0  0.05042  0.46221  0.54252  1.0000
  C   C4        1.0  0.05042  0.53780  0.45749  1.0000
  C   C5        1.0  0.59687  0.54091  0.38181  1.0000
  C   C6        1.0  0.59687  0.45910  0.61818  1.0000
  C   C7        1.0  0.09688  0.54090  0.61819  1.0000
  C   C8        1.0  0.09687  0.45910  0.38182  1.0000
  C   C9        1.0  0.58915  0.47199  0.30106  1.0000
  C   C10       1.0  0.58915  0.52801  0.69893  1.0000
  C   C11       1.0  0.08916  0.47198  0.69894  1.0000
  C   C12       1.0  0.08915  0.52801  0.30107  1.0000
  C   C13       1.0  0.53171  0.32127  0.29210  1.0000
  C   C14       1.0  0.53170  0.67873  0.70789  1.0000
  C   C15       1.0  0.03172  0.32126  0.70789  1.0000
  C   C16       1.0  0.03171  0.67874  0.29211  1.0000
  C   C17       1.0  0.49039  0.24089  0.36819  1.0000
  C   C18       1.0  0.49039  0.75912  0.63181  1.0000
  C   C19       1.0  0.99040  0.24088  0.63181  1.0000
  C   C20       1.0  0.99039  0.75912  0.36819  1.0000
  C   C21       1.0  0.49992  0.30965  0.44910  1.0000
  C   C22       1.0  0.49992  0.69036  0.55089  1.0000
  C   C23       1.0  0.99992  0.30964  0.55090  1.0000
  C   C24       1.0  0.99992  0.69036  0.44911  1.0000
  C   C25       1.0  0.51256  0.24989  0.20708  1.0000
  C   C26       1.0  0.51256  0.75011  0.79291  1.0000
  C   C27       1.0  0.01257  0.24988  0.79291  1.0000
  C   C28       1.0  0.01256  0.75012  0.20709  1.0000
  C   C29       1.0  0.37145  0.15715  0.17908  1.0000
  C   C30       1.0  0.37144  0.84285  0.82091  1.0000
  C   C31       1.0  0.87145  0.15714  0.82091  1.0000
  C   C32       1.0  0.87145  0.84285  0.17909  1.0000
  C   C33       1.0  0.20617  0.11344  0.22526  1.0000
  C   C34       1.0  0.20617  0.88657  0.77474  1.0000
  C   C35       1.0  0.70618  0.11342  0.77474  1.0000
  C   C36       1.0  0.70617  0.88657  0.22526  1.0000
  C   C37       1.0  0.63157  0.25270  0.13685  1.0000
  C   C38       1.0  0.63156  0.74730  0.86315  1.0000
  C   C39       1.0  0.13156  0.25269  0.86315  1.0000
  C   C40       1.0  0.13156  0.74729  0.13685  1.0000
  C   C41       1.0  0.80456  0.33230  0.12845  1.0000
  C   C42       1.0  0.80455  0.66770  0.87154  1.0000
  C   C43       1.0  0.30455  0.33230  0.87154  1.0000
  C   C44       1.0  0.30455  0.66769  0.12846  1.0000
  N   N1        1.0  0.40633  0.10779  0.09826  1.0000
  N   N2        1.0  0.40633  0.89221  0.90174  1.0000
  N   N3        1.0  0.90633  0.10778  0.90174  1.0000
  N   N4        1.0  0.90633  0.89221  0.09826  1.0000
  N   N5        1.0  0.56621  0.16594  0.07198  1.0000
  N   N6        1.0  0.56620  0.83406  0.92802  1.0000
  N   N7        1.0  0.06621  0.16593  0.92802  1.0000
  N   N8        1.0  0.06620  0.83405  0.07198  1.0000
