data_image0
_chemical_formula_structural       Cu2H12C14N8
_chemical_formula_sum              "Cu2 H12 C14 N8"
_cell_length_a       7.31014
_cell_length_b       7.4508
_cell_length_c       7.45085
_cell_angle_alpha    106.736
_cell_angle_beta     90.0146
_cell_angle_gamma    89.9851

_space_group_name_H-M_alt    "P 1"
_space_group_IT_number       1

loop_
  _space_group_symop_operation_xyz
  'x, y, z'

loop_
  _atom_site_type_symbol
  _atom_site_label
  _atom_site_symmetry_multiplicity
  _atom_site_fract_x
  _atom_site_fract_y
  _atom_site_fract_z
  _atom_site_occupancy
  Cu  Cu1       1.0  1.00000  0.50000  0.50000  1.0000
  Cu  Cu2       1.0  0.50000  0.50000  0.50000  1.0000
  H   H1        1.0  0.04609  0.93264  0.66789  1.0000
  H   H2        1.0  0.54625  0.06735  0.33218  1.0000
  H   H3        1.0  0.45375  0.33218  0.06735  1.0000
  H   H4        1.0  0.95391  0.66788  0.93265  1.0000
  H   H5        1.0  0.95391  0.06736  0.33211  1.0000
  H   H6        1.0  0.45375  0.93265  0.66781  1.0000
  H   H7        1.0  0.54625  0.66781  0.93265  1.0000
  H   H8        1.0  0.04609  0.33212  0.06736  1.0000
  H   H9        1.0  0.87060  0.28809  0.71191  1.0000
  H   H10       1.0  0.37084  0.71186  0.28813  1.0000
  H   H11       1.0  0.62916  0.28814  0.71187  1.0000
  H   H12       1.0  0.12940  0.71191  0.28809  1.0000
  C   C1        1.0  0.74988  0.23283  0.76718  1.0000
  C   C2        1.0  0.25012  0.76717  0.23282  1.0000
  C   C3        1.0  0.74989  0.02266  0.69471  1.0000
  C   C4        1.0  0.25011  0.97734  0.30529  1.0000
  C   C5        1.0  0.74989  0.30529  0.97734  1.0000
  C   C6        1.0  0.25011  0.69471  0.02266  1.0000
  C   C7        1.0  0.90079  0.90166  0.65524  1.0000
  C   C8        1.0  0.40095  0.09836  0.34481  1.0000
  C   C9        1.0  0.59905  0.34481  0.09836  1.0000
  C   C10       1.0  0.09921  0.65523  0.90165  1.0000
  C   C11       1.0  0.09921  0.09834  0.34477  1.0000
  C   C12       1.0  0.59905  0.90164  0.65519  1.0000
  C   C13       1.0  0.40095  0.65519  0.90164  1.0000
  C   C14       1.0  0.90079  0.34477  0.09835  1.0000
  N   N1        1.0  0.84130  0.72234  0.59385  1.0000
  N   N2        1.0  0.34140  0.27767  0.40617  1.0000
  N   N3        1.0  0.65860  0.40617  0.27767  1.0000
  N   N4        1.0  0.15870  0.59385  0.72234  1.0000
  N   N5        1.0  0.15870  0.27766  0.40615  1.0000
  N   N6        1.0  0.65860  0.72233  0.59383  1.0000
  N   N7        1.0  0.34139  0.59383  0.72233  1.0000
  N   N8        1.0  0.84130  0.40615  0.27766  1.0000
