data_image0
_chemical_formula_structural       Ag4H40C28I4N8
_chemical_formula_sum              "Ag4 H40 C28 I4 N8"
_cell_length_a       9.25562
_cell_length_b       9.30545
_cell_length_c       11.6667
_cell_angle_alpha    67.1278
_cell_angle_beta     84.8033
_cell_angle_gamma    79.7477

_space_group_name_H-M_alt    "P 1"
_space_group_IT_number       1

loop_
  _space_group_symop_operation_xyz
  'x, y, z'

loop_
  _atom_site_type_symbol
  _atom_site_label
  _atom_site_symmetry_multiplicity
  _atom_site_fract_x
  _atom_site_fract_y
  _atom_site_fract_z
  _atom_site_occupancy
  Ag  Ag1       1.0  0.36427  0.60501  0.42475  1.0000
  Ag  Ag2       1.0  0.63573  0.39499  0.57526  1.0000
  Ag  Ag3       1.0  0.86416  0.58870  0.42726  1.0000
  Ag  Ag4       1.0  0.13584  0.41130  0.57274  1.0000
  H   H1        1.0  0.22599  0.90581  0.18105  1.0000
  H   H2        1.0  0.77402  0.09419  0.81895  1.0000
  H   H3        1.0  0.17293  0.97795  0.96192  1.0000
  H   H4        1.0  0.82708  0.02205  0.03808  1.0000
  H   H5        1.0  0.36378  0.49682  0.00822  1.0000
  H   H6        1.0  0.63622  0.50318  0.99178  1.0000
  H   H7        1.0  0.40927  0.44996  0.22367  1.0000
  H   H8        1.0  0.59073  0.55004  0.77633  1.0000
  H   H9        1.0  0.29218  0.54320  0.84842  1.0000
  H   H10       1.0  0.70782  0.45680  0.15159  1.0000
  H   H11       1.0  0.36966  0.69026  0.72015  1.0000
  H   H12       1.0  0.63034  0.30974  0.27985  1.0000
  H   H13       1.0  0.18283  0.67220  0.72061  1.0000
  H   H14       1.0  0.81717  0.32780  0.27939  1.0000
  H   H15       1.0  0.07246  0.98573  0.80183  1.0000
  H   H16       1.0  0.92754  0.01427  0.19817  1.0000
  H   H17       1.0  0.13442  0.93221  0.67330  1.0000
  H   H18       1.0  0.86558  0.06779  0.32671  1.0000
  H   H19       1.0  0.25039  0.01691  0.73392  1.0000
  H   H20       1.0  0.74961  0.98309  0.26608  1.0000
  H   H21       1.0  0.59966  0.75746  0.24167  1.0000
  H   H22       1.0  0.40033  0.24254  0.75833  1.0000
  H   H23       1.0  0.52981  0.83574  0.02727  1.0000
  H   H24       1.0  0.47019  0.16426  0.97273  1.0000
  H   H25       1.0  0.98584  0.68118  0.94593  1.0000
  H   H26       1.0  0.01416  0.31882  0.05407  1.0000
  H   H27       1.0  0.03355  0.61061  0.16546  1.0000
  H   H28       1.0  0.96645  0.38940  0.83454  1.0000
  H   H29       1.0  0.90531  0.66700  0.79404  1.0000
  H   H30       1.0  0.09469  0.33301  0.20596  1.0000
  H   H31       1.0  0.89443  0.87577  0.70986  1.0000
  H   H32       1.0  0.10557  0.12423  0.29014  1.0000
  H   H33       1.0  0.77601  0.76843  0.67498  1.0000
  H   H34       1.0  0.22399  0.23157  0.32502  1.0000
  H   H35       1.0  0.50287  0.91964  0.85297  1.0000
  H   H36       1.0  0.49713  0.08036  0.14703  1.0000
  H   H37       1.0  0.53482  0.84371  0.73269  1.0000
  H   H38       1.0  0.46518  0.15629  0.26731  1.0000
  H   H39       1.0  0.60389  0.01665  0.71551  1.0000
  H   H40       1.0  0.39611  0.98335  0.28449  1.0000
  C   C1        1.0  0.25604  0.81844  0.13868  1.0000
  C   C2        1.0  0.74397  0.18156  0.86132  1.0000
  C   C3        1.0  0.22511  0.85846  0.01510  1.0000
  C   C4        1.0  0.77489  0.14154  0.98491  1.0000
  C   C5        1.0  0.26086  0.74364  0.96045  1.0000
  C   C6        1.0  0.73915  0.25636  0.03955  1.0000
  C   C7        1.0  0.33010  0.59301  0.04031  1.0000
  C   C8        1.0  0.66991  0.40699  0.95969  1.0000
  C   C9        1.0  0.35683  0.56594  0.16214  1.0000
  C   C10       1.0  0.64318  0.43406  0.83786  1.0000
  C   C11       1.0  0.27106  0.66428  0.78060  1.0000
  C   C12       1.0  0.72894  0.33571  0.21941  1.0000
  C   C13       1.0  0.16877  0.93604  0.75929  1.0000
  C   C14       1.0  0.83122  0.06396  0.24072  1.0000
  C   C15       1.0  0.68280  0.74281  0.17287  1.0000
  C   C16       1.0  0.31719  0.25719  0.82712  1.0000
  C   C17       1.0  0.64390  0.78687  0.05087  1.0000
  C   C18       1.0  0.35610  0.21313  0.94913  1.0000
  C   C19       1.0  0.75101  0.76606  0.96104  1.0000
  C   C20       1.0  0.24899  0.23394  0.03896  1.0000
  C   C21       1.0  0.89486  0.69928  0.00707  1.0000
  C   C22       1.0  0.10514  0.30072  0.99293  1.0000
  C   C23       1.0  0.92251  0.66002  0.13125  1.0000
  C   C24       1.0  0.07748  0.33998  0.86875  1.0000
  C   C25       1.0  0.83045  0.77764  0.75100  1.0000
  C   C26       1.0  0.16955  0.22236  0.24900  1.0000
  C   C27       1.0  0.58297  0.90061  0.78364  1.0000
  C   C28       1.0  0.41703  0.09939  0.21636  1.0000
  I   I1        1.0  0.57747  0.73519  0.49911  1.0000
  I   I2        1.0  0.42252  0.26482  0.50089  1.0000
  I   I3        1.0  0.07353  0.75016  0.47485  1.0000
  I   I4        1.0  0.92647  0.24984  0.52516  1.0000
  N   N1        1.0  0.32175  0.67483  0.21387  1.0000
  N   N2        1.0  0.67825  0.32518  0.78613  1.0000
  N   N3        1.0  0.22773  0.77629  0.84089  1.0000
  N   N4        1.0  0.77227  0.22371  0.15911  1.0000
  N   N5        1.0  0.81978  0.68000  0.21573  1.0000
  N   N6        1.0  0.18022  0.32000  0.78427  1.0000
  N   N7        1.0  0.71909  0.80426  0.84006  1.0000
  N   N8        1.0  0.28091  0.19574  0.15994  1.0000
