data_image0
_chemical_formula_structural       Zn2H12C14N8
_chemical_formula_sum              "Zn2 H12 C14 N8"
_cell_length_a       7.03113
_cell_length_b       8.6817
_cell_length_c       8.68161
_cell_angle_alpha    112.822
_cell_angle_beta     105.587
_cell_angle_gamma    105.588

_space_group_name_H-M_alt    "P 1"
_space_group_IT_number       1

loop_
  _space_group_symop_operation_xyz
  'x, y, z'

loop_
  _atom_site_type_symbol
  _atom_site_label
  _atom_site_symmetry_multiplicity
  _atom_site_fract_x
  _atom_site_fract_y
  _atom_site_fract_z
  _atom_site_occupancy
  Zn  Zn1       1.0  0.25000  0.47613  0.52387  1.0000
  Zn  Zn2       1.0  0.75000  0.52387  0.47613  1.0000
  H   H1        1.0  0.11385  0.25285  0.09447  1.0000
  H   H2        1.0  0.38614  0.90552  0.74714  1.0000
  H   H3        1.0  0.88614  0.74715  0.90553  1.0000
  H   H4        1.0  0.61386  0.09447  0.25286  1.0000
  H   H5        1.0  0.59234  0.43044  0.05250  1.0000
  H   H6        1.0  0.90766  0.94750  0.56956  1.0000
  H   H7        1.0  0.40767  0.56958  0.94751  1.0000
  H   H8        1.0  0.09234  0.05250  0.43044  1.0000
  H   H9        1.0  0.61721  0.25032  0.72283  1.0000
  H   H10       1.0  0.88278  0.27716  0.74966  1.0000
  H   H11       1.0  0.38279  0.74967  0.27717  1.0000
  H   H12       1.0  0.11722  0.72284  0.25034  1.0000
  C   C1        1.0  0.75000  0.21791  0.78208  1.0000
  C   C2        1.0  0.25000  0.78209  0.21792  1.0000
  C   C3        1.0  0.82365  0.30730  0.98716  1.0000
  C   C4        1.0  0.67634  0.01283  0.69269  1.0000
  C   C5        1.0  0.17635  0.69270  0.01284  1.0000
  C   C6        1.0  0.32366  0.98716  0.30731  1.0000
  C   C7        1.0  0.99794  0.31087  0.11574  1.0000
  C   C8        1.0  0.50206  0.88425  0.68912  1.0000
  C   C9        1.0  0.00206  0.68912  0.88425  1.0000
  C   C10       1.0  0.49794  0.11575  0.31088  1.0000
  C   C11       1.0  0.73310  0.40202  0.09436  1.0000
  C   C12       1.0  0.76690  0.90563  0.59798  1.0000
  C   C13       1.0  0.26690  0.59799  0.90564  1.0000
  C   C14       1.0  0.23311  0.09437  0.40202  1.0000
  N   N1        1.0  0.00955  0.40152  0.28658  1.0000
  N   N2        1.0  0.49045  0.71341  0.59847  1.0000
  N   N3        1.0  0.99045  0.59848  0.71342  1.0000
  N   N4        1.0  0.50955  0.28659  0.40152  1.0000
  N   N5        1.0  0.84663  0.45948  0.27424  1.0000
  N   N6        1.0  0.65337  0.72575  0.54051  1.0000
  N   N7        1.0  0.15338  0.54052  0.72576  1.0000
  N   N8        1.0  0.34662  0.27424  0.45948  1.0000
