data_image0
_chemical_formula_structural       Cd2H46C54N12Cl4O8
_chemical_formula_sum              "Cd2 H46 C54 N12 Cl4 O8"
_cell_length_a       8.87514
_cell_length_b       12.0999
_cell_length_c       13.0618
_cell_angle_alpha    78.0976
_cell_angle_beta     71.5692
_cell_angle_gamma    85.53

_space_group_name_H-M_alt    "P 1"
_space_group_IT_number       1

loop_
  _space_group_symop_operation_xyz
  'x, y, z'

loop_
  _atom_site_type_symbol
  _atom_site_label
  _atom_site_symmetry_multiplicity
  _atom_site_fract_x
  _atom_site_fract_y
  _atom_site_fract_z
  _atom_site_occupancy
  Cd  Cd1       1.0  0.84279  0.43106  0.64486  1.0000
  Cd  Cd2       1.0  0.15721  0.56894  0.35514  1.0000
  H   H1        1.0  0.77402  0.49234  0.85768  1.0000
  H   H2        1.0  0.22598  0.50766  0.14232  1.0000
  H   H3        1.0  0.61155  0.45094  0.84974  1.0000
  H   H4        1.0  0.38845  0.54906  0.15026  1.0000
  H   H5        1.0  0.81669  0.23767  0.84985  1.0000
  H   H6        1.0  0.18330  0.76233  0.15015  1.0000
  H   H7        1.0  0.47586  0.12613  0.77815  1.0000
  H   H8        1.0  0.52414  0.87388  0.22185  1.0000
  H   H9        1.0  0.20898  0.34002  0.58215  1.0000
  H   H10       1.0  0.79101  0.65998  0.41784  1.0000
  H   H11       1.0  0.05030  0.81785  0.87896  1.0000
  H   H12       1.0  0.94971  0.18215  0.12104  1.0000
  H   H13       1.0  0.37923  0.18680  0.64843  1.0000
  H   H14       1.0  0.62077  0.81320  0.35156  1.0000
  H   H15       1.0  0.97124  0.08205  0.93242  1.0000
  H   H16       1.0  0.02876  0.91795  0.06758  1.0000
  H   H17       1.0  0.26123  0.78639  0.50215  1.0000
  H   H18       1.0  0.73877  0.21361  0.49785  1.0000
  H   H19       1.0  0.73349  0.08628  0.72359  1.0000
  H   H20       1.0  0.26652  0.91372  0.27641  1.0000
  H   H21       1.0  0.96211  0.96585  0.75023  1.0000
  H   H22       1.0  0.03789  0.03415  0.24977  1.0000
  H   H23       1.0  0.64069  0.73065  0.00264  1.0000
  H   H24       1.0  0.35931  0.26935  0.99736  1.0000
  H   H25       1.0  0.41175  0.85069  0.97537  1.0000
  H   H26       1.0  0.58825  0.14931  0.02463  1.0000
  H   H27       1.0  0.22650  0.73757  0.92992  1.0000
  H   H28       1.0  0.77350  0.26243  0.07008  1.0000
  H   H29       1.0  0.47879  0.63177  0.91955  1.0000
  H   H30       1.0  0.52120  0.36823  0.08045  1.0000
  H   H31       1.0  0.33327  0.36950  0.81556  1.0000
  H   H32       1.0  0.66673  0.63049  0.18444  1.0000
  H   H33       1.0  0.06653  0.46240  0.82611  1.0000
  H   H34       1.0  0.93347  0.53759  0.17389  1.0000
  H   H35       1.0  0.79860  0.69583  0.67636  1.0000
  H   H36       1.0  0.20139  0.30417  0.32364  1.0000
  H   H37       1.0  0.53086  0.48992  0.58684  1.0000
  H   H38       1.0  0.46914  0.51008  0.41316  1.0000
  H   H39       1.0  0.33660  0.64261  0.56180  1.0000
  H   H40       1.0  0.66340  0.35739  0.43820  1.0000
  H   H41       1.0  0.61059  0.86066  0.65816  1.0000
  H   H42       1.0  0.38941  0.13934  0.34184  1.0000
  H   H43       1.0  0.20153  0.07501  0.56286  1.0000
  H   H44       1.0  0.79847  0.92499  0.43715  1.0000
  H   H45       1.0  0.01982  0.80136  0.47412  1.0000
  H   H46       1.0  0.98018  0.19864  0.52588  1.0000
  C   C1        1.0  0.94190  0.22272  0.80914  1.0000
  C   C2        1.0  0.05810  0.77728  0.19087  1.0000
  C   C3        1.0  0.16131  0.28008  0.65881  1.0000
  C   C4        1.0  0.83869  0.71992  0.34120  1.0000
  C   C5        1.0  0.25600  0.19527  0.69747  1.0000
  C   C6        1.0  0.74400  0.80473  0.30253  1.0000
  C   C7        1.0  0.18913  0.12191  0.79757  1.0000
  C   C8        1.0  0.81087  0.87809  0.20243  1.0000
  C   C9        1.0  0.02879  0.13666  0.85415  1.0000
  C   C10       1.0  0.97121  0.86334  0.14585  1.0000
  C   C11       1.0  0.28065  0.02581  0.84422  1.0000
  C   C12       1.0  0.71935  0.97419  0.15577  1.0000
  C   C13       1.0  0.55775  0.97517  0.84607  1.0000
  C   C14       1.0  0.44225  0.02483  0.15393  1.0000
  C   C15       1.0  0.71384  0.00808  0.78458  1.0000
  C   C16       1.0  0.28617  0.99192  0.21542  1.0000
  C   C17       1.0  0.84164  0.94122  0.80032  1.0000
  C   C18       1.0  0.15836  0.05878  0.19968  1.0000
  C   C19       1.0  0.81635  0.84041  0.87790  1.0000
  C   C20       1.0  0.18365  0.15959  0.12211  1.0000
  C   C21       1.0  0.66112  0.80819  0.94107  1.0000
  C   C22       1.0  0.33888  0.19181  0.05893  1.0000
  C   C23       1.0  0.53197  0.87512  0.92564  1.0000
  C   C24       1.0  0.46803  0.12487  0.07435  1.0000
  C   C25       1.0  0.96510  0.66199  0.88353  1.0000
  C   C26       1.0  0.03490  0.33801  0.11647  1.0000
  C   C27       1.0  0.12350  0.60717  0.87956  1.0000
  C   C28       1.0  0.87650  0.39283  0.12044  1.0000
  C   C29       1.0  0.24168  0.65561  0.90532  1.0000
  C   C30       1.0  0.75832  0.34439  0.09468  1.0000
  C   C31       1.0  0.38453  0.59663  0.89939  1.0000
  C   C32       1.0  0.61547  0.40337  0.10061  1.0000
  C   C33       1.0  0.30213  0.45002  0.84298  1.0000
  C   C34       1.0  0.69787  0.54998  0.15702  1.0000
  C   C35       1.0  0.15517  0.50176  0.84799  1.0000
  C   C36       1.0  0.84483  0.49824  0.15201  1.0000
  C   C37       1.0  0.69507  0.68914  0.65032  1.0000
  C   C38       1.0  0.30493  0.31086  0.34968  1.0000
  C   C39       1.0  0.54629  0.57465  0.59850  1.0000
  C   C40       1.0  0.45371  0.42535  0.40150  1.0000
  C   C41       1.0  0.43838  0.66146  0.58463  1.0000
  C   C42       1.0  0.56162  0.33854  0.41537  1.0000
  C   C43       1.0  0.46196  0.76743  0.60399  1.0000
  C   C44       1.0  0.53804  0.23257  0.39601  1.0000
  C   C45       1.0  0.59168  0.78013  0.63955  1.0000
  C   C46       1.0  0.40832  0.21987  0.36045  1.0000
  C   C47       1.0  0.35263  0.86727  0.59229  1.0000
  C   C48       1.0  0.64737  0.13273  0.40771  1.0000
  C   C49       1.0  0.12590  0.93037  0.52001  1.0000
  C   C50       1.0  0.87410  0.06963  0.47999  1.0000
  C   C51       1.0  0.11320  0.04260  0.53564  1.0000
  C   C52       1.0  0.88680  0.95740  0.46436  1.0000
  C   C53       1.0  0.01144  0.88906  0.48438  1.0000
  C   C54       1.0  0.98856  0.11094  0.51563  1.0000
  N   N1        1.0  0.00674  0.29329  0.71312  1.0000
  N   N2        1.0  0.99326  0.70671  0.28688  1.0000
  N   N3        1.0  0.43626  0.04779  0.82317  1.0000
  N   N4        1.0  0.56374  0.95221  0.17683  1.0000
  N   N5        1.0  0.95140  0.77390  0.88811  1.0000
  N   N6        1.0  0.04860  0.22610  0.11189  1.0000
  N   N7        1.0  0.41529  0.49595  0.86886  1.0000
  N   N8        1.0  0.58471  0.50405  0.13114  1.0000
  N   N9        1.0  0.67354  0.58837  0.62897  1.0000
  N   N10       1.0  0.32646  0.41163  0.37103  1.0000
  N   N11       1.0  0.24861  0.85612  0.53731  1.0000
  N   N12       1.0  0.75139  0.14388  0.46269  1.0000
  Cl  Cl1       1.0  0.92113  0.42202  0.42850  1.0000
  Cl  Cl2       1.0  0.07887  0.57798  0.57150  1.0000
  Cl  Cl3       1.0  0.62123  0.28515  0.67526  1.0000
  Cl  Cl4       1.0  0.37877  0.71485  0.32473  1.0000
  O   O1        1.0  0.21359  0.93576  0.89832  1.0000
  O   O2        1.0  0.78641  0.06424  0.10167  1.0000
  O   O3        1.0  0.72796  0.43164  0.83713  1.0000
  O   O4        1.0  0.27204  0.56836  0.16287  1.0000
  O   O5        1.0  0.85260  0.60818  0.88128  1.0000
  O   O6        1.0  0.14740  0.39182  0.11872  1.0000
  O   O7        1.0  0.35857  0.95088  0.63215  1.0000
  O   O8        1.0  0.64143  0.04912  0.36785  1.0000
