data_image0
_chemical_formula_structural       Zn2H48C42N8O8
_chemical_formula_sum              "Zn2 H48 C42 N8 O8"
_cell_length_a       9.99295
_cell_length_b       11.2446
_cell_length_c       11.7274
_cell_angle_alpha    117.872
_cell_angle_beta     92.9704
_cell_angle_gamma    102.772

_space_group_name_H-M_alt    "P 1"
_space_group_IT_number       1

loop_
  _space_group_symop_operation_xyz
  'x, y, z'

loop_
  _atom_site_type_symbol
  _atom_site_label
  _atom_site_symmetry_multiplicity
  _atom_site_fract_x
  _atom_site_fract_y
  _atom_site_fract_z
  _atom_site_occupancy
  Zn  Zn1       1.0  0.26320  0.35041  0.16984  1.0000
  Zn  Zn2       1.0  0.73680  0.64959  0.83016  1.0000
  H   H1        1.0  0.10279  0.72214  0.41569  1.0000
  H   H2        1.0  0.89720  0.27786  0.58431  1.0000
  H   H3        1.0  0.93002  0.61554  0.38031  1.0000
  H   H4        1.0  0.06998  0.38446  0.61969  1.0000
  H   H5        1.0  0.95414  0.75974  0.26825  1.0000
  H   H6        1.0  0.04586  0.24026  0.73175  1.0000
  H   H7        1.0  0.08938  0.69120  0.19470  1.0000
  H   H8        1.0  0.91062  0.30880  0.80530  1.0000
  H   H9        1.0  0.87257  0.57406  0.03237  1.0000
  H   H10       1.0  0.12743  0.42594  0.96763  1.0000
  H   H11       1.0  0.92425  0.45269  0.06623  1.0000
  H   H12       1.0  0.07575  0.54731  0.93377  1.0000
  H   H13       1.0  0.69892  0.59605  0.18444  1.0000
  H   H14       1.0  0.30108  0.40395  0.81556  1.0000
  H   H15       1.0  0.75206  0.47325  0.21733  1.0000
  H   H16       1.0  0.24794  0.52675  0.78267  1.0000
  H   H17       1.0  0.61174  0.42111  0.95325  1.0000
  H   H18       1.0  0.38826  0.57889  0.04676  1.0000
  H   H19       1.0  0.68176  0.29647  0.97132  1.0000
  H   H20       1.0  0.31824  0.70353  0.02868  1.0000
  H   H21       1.0  0.92916  0.21764  0.07467  1.0000
  H   H22       1.0  0.07084  0.78237  0.92533  1.0000
  H   H23       1.0  0.82243  0.98492  0.82477  1.0000
  H   H24       1.0  0.17756  0.01507  0.17524  1.0000
  H   H25       1.0  0.26523  0.09592  0.89275  1.0000
  H   H26       1.0  0.73477  0.90407  0.10725  1.0000
  H   H27       1.0  0.95546  0.80624  0.66357  1.0000
  H   H28       1.0  0.04455  0.19376  0.33643  1.0000
  H   H29       1.0  0.13739  0.87254  0.68436  1.0000
  H   H30       1.0  0.86261  0.12746  0.31565  1.0000
  H   H31       1.0  0.23939  0.02118  0.59152  1.0000
  H   H32       1.0  0.76062  0.97882  0.40849  1.0000
  H   H33       1.0  0.79373  0.89000  0.56145  1.0000
  H   H34       1.0  0.20628  0.11000  0.43855  1.0000
  H   H35       1.0  0.21440  0.42923  0.46897  1.0000
  H   H36       1.0  0.78560  0.57077  0.53103  1.0000
  H   H37       1.0  0.40877  0.40095  0.62958  1.0000
  H   H38       1.0  0.59123  0.59905  0.37041  1.0000
  H   H39       1.0  0.48682  0.22252  0.23915  1.0000
  H   H40       1.0  0.51318  0.77747  0.76085  1.0000
  H   H41       1.0  0.65125  0.34318  0.58326  1.0000
  H   H42       1.0  0.34874  0.65682  0.41674  1.0000
  H   H43       1.0  0.66526  0.24596  0.41613  1.0000
  H   H44       1.0  0.33474  0.75405  0.58387  1.0000
  H   H45       1.0  0.61861  0.22567  0.70145  1.0000
  H   H46       1.0  0.38139  0.77433  0.29855  1.0000
  H   H47       1.0  0.46183  0.99185  0.28479  1.0000
  H   H48       1.0  0.53817  0.00815  0.71521  1.0000
  C   C1        1.0  0.07797  0.50467  0.29045  1.0000
  C   C2        1.0  0.92203  0.49533  0.70955  1.0000
  C   C3        1.0  0.02246  0.63196  0.33725  1.0000
  C   C4        1.0  0.97753  0.36804  0.66275  1.0000
  C   C5        1.0  0.99122  0.66537  0.22731  1.0000
  C   C6        1.0  0.00878  0.33463  0.77268  1.0000
  C   C7        1.0  0.88416  0.54542  0.10944  1.0000
  C   C8        1.0  0.11584  0.45459  0.89056  1.0000
  C   C9        1.0  0.74127  0.50488  0.14211  1.0000
  C   C10       1.0  0.25873  0.49512  0.85789  1.0000
  C   C11       1.0  0.63671  0.38442  0.02188  1.0000
  C   C12       1.0  0.36329  0.61558  0.97813  1.0000
  C   C13       1.0  0.50290  0.33182  0.05996  1.0000
  C   C14       1.0  0.49710  0.66818  0.94004  1.0000
  C   C15       1.0  0.98157  0.15832  0.99763  1.0000
  C   C16       1.0  0.01843  0.84169  0.00237  1.0000
  C   C17       1.0  0.92846  0.04451  0.87517  1.0000
  C   C18       1.0  0.07154  0.95549  0.12483  1.0000
  C   C19       1.0  0.15920  0.09918  0.90668  1.0000
  C   C20       1.0  0.84079  0.90082  0.09333  1.0000
  C   C21       1.0  0.03845  0.89977  0.68515  1.0000
  C   C22       1.0  0.96155  0.10022  0.31486  1.0000
  C   C23       1.0  0.01864  0.94969  0.58778  1.0000
  C   C24       1.0  0.98136  0.05031  0.41222  1.0000
  C   C25       1.0  0.13388  0.01162  0.55177  1.0000
  C   C26       1.0  0.86613  0.98837  0.44823  1.0000
  C   C27       1.0  0.88468  0.93865  0.53513  1.0000
  C   C28       1.0  0.11533  0.06135  0.46488  1.0000
  C   C29       1.0  0.29965  0.38150  0.44606  1.0000
  C   C30       1.0  0.70035  0.61850  0.55393  1.0000
  C   C31       1.0  0.39350  0.36718  0.52554  1.0000
  C   C32       1.0  0.60650  0.63281  0.47445  1.0000
  C   C33       1.0  0.43717  0.27239  0.32287  1.0000
  C   C34       1.0  0.56283  0.72761  0.67713  1.0000
  C   C35       1.0  0.59424  0.25717  0.48677  1.0000
  C   C36       1.0  0.40576  0.74284  0.51323  1.0000
  C   C37       1.0  0.54477  0.12349  0.49285  1.0000
  C   C38       1.0  0.45523  0.87651  0.50714  1.0000
  C   C39       1.0  0.56622  0.12659  0.61338  1.0000
  C   C40       1.0  0.43378  0.87341  0.38662  1.0000
  C   C41       1.0  0.47836  0.99614  0.37966  1.0000
  C   C42       1.0  0.52164  0.00385  0.62034  1.0000
  N   N1        1.0  0.12564  0.19101  0.01588  1.0000
  N   N2        1.0  0.87436  0.80899  0.98412  1.0000
  N   N3        1.0  0.04209  0.00852  0.81946  1.0000
  N   N4        1.0  0.95791  0.99148  0.18054  1.0000
  N   N5        1.0  0.32813  0.32199  0.32006  1.0000
  N   N6        1.0  0.67187  0.67801  0.67994  1.0000
  N   N7        1.0  0.47942  0.29814  0.44585  1.0000
  N   N8        1.0  0.52058  0.70185  0.55414  1.0000
  O   O1        1.0  0.19287  0.51733  0.24366  1.0000
  O   O2        1.0  0.80713  0.48267  0.75634  1.0000
  O   O3        1.0  0.01757  0.39878  0.29736  1.0000
  O   O4        1.0  0.98243  0.60123  0.70264  1.0000
  O   O5        1.0  0.43952  0.42609  0.12512  1.0000
  O   O6        1.0  0.56048  0.57391  0.87488  1.0000
  O   O7        1.0  0.45985  0.20584  0.03180  1.0000
  O   O8        1.0  0.54015  0.79417  0.96820  1.0000
