data_image0
_chemical_formula_structural       Co2Ag2H18C22N2O10
_chemical_formula_sum              "Co2 Ag2 H18 C22 N2 O10"
_cell_length_a       5.92752
_cell_length_b       7.64978
_cell_length_c       13.0781
_cell_angle_alpha    103.746
_cell_angle_beta     99.3076
_cell_angle_gamma    92.3461

_space_group_name_H-M_alt    "P 1"
_space_group_IT_number       1

loop_
  _space_group_symop_operation_xyz
  'x, y, z'

loop_
  _atom_site_type_symbol
  _atom_site_label
  _atom_site_symmetry_multiplicity
  _atom_site_fract_x
  _atom_site_fract_y
  _atom_site_fract_z
  _atom_site_occupancy
  Co  Co1       1.0  0.02100  0.87481  0.22951  1.0000
  Co  Co2       1.0  0.97901  0.12519  0.77048  1.0000
  Ag  Ag1       1.0  0.67698  0.42519  0.44776  1.0000
  Ag  Ag2       1.0  0.32300  0.57478  0.55223  1.0000
  H   H1        1.0  0.71267  0.00436  0.08296  1.0000
  H   H2        1.0  0.28734  0.99562  0.91703  1.0000
  H   H3        1.0  0.79706  0.65189  0.03380  1.0000
  H   H4        1.0  0.20296  0.34810  0.96620  1.0000
  H   H5        1.0  0.25502  0.63293  0.10083  1.0000
  H   H6        1.0  0.74500  0.36708  0.89918  1.0000
  H   H7        1.0  0.44460  0.97518  0.18771  1.0000
  H   H8        1.0  0.55542  0.02483  0.81229  1.0000
  H   H9        1.0  0.10780  0.20184  0.17905  1.0000
  H   H10       1.0  0.89221  0.79816  0.82095  1.0000
  H   H11       1.0  0.71701  0.07011  0.34645  1.0000
  H   H12       1.0  0.28297  0.92988  0.65354  1.0000
  H   H13       1.0  0.62707  0.70717  0.27125  1.0000
  H   H14       1.0  0.37291  0.29282  0.72874  1.0000
  H   H15       1.0  0.02739  0.55285  0.29675  1.0000
  H   H16       1.0  0.97259  0.44714  0.70325  1.0000
  H   H17       1.0  0.36548  0.82037  0.38980  1.0000
  H   H18       1.0  0.63451  0.17961  0.61020  1.0000
  C   C1        1.0  0.87839  0.95044  0.09607  1.0000
  C   C2        1.0  0.12163  0.04957  0.90392  1.0000
  C   C3        1.0  0.92553  0.76432  0.06975  1.0000
  C   C4        1.0  0.07451  0.23567  0.93025  1.0000
  C   C5        1.0  0.16634  0.75504  0.10318  1.0000
  C   C6        1.0  0.83367  0.24496  0.89683  1.0000
  C   C7        1.0  0.26682  0.93576  0.15031  1.0000
  C   C8        1.0  0.73318  0.06424  0.84970  1.0000
  C   C9        1.0  0.08884  0.05659  0.14604  1.0000
  C   C10       1.0  0.91117  0.94340  0.85396  1.0000
  C   C11       1.0  0.84058  0.96960  0.34785  1.0000
  C   C12       1.0  0.15942  0.03040  0.65215  1.0000
  C   C13       1.0  0.79364  0.77851  0.30806  1.0000
  C   C14       1.0  0.20636  0.22148  0.69193  1.0000
  C   C15       1.0  0.00565  0.69602  0.32187  1.0000
  C   C16       1.0  0.99432  0.30396  0.67812  1.0000
  C   C17       1.0  0.18419  0.83615  0.36960  1.0000
  C   C18       1.0  0.81579  0.16384  0.63040  1.0000
  C   C19       1.0  0.08316  0.00648  0.38582  1.0000
  C   C20       1.0  0.91681  0.99350  0.61417  1.0000
  C   C21       1.0  0.21645  0.18649  0.42834  1.0000
  C   C22       1.0  0.78351  0.81346  0.57165  1.0000
  N   N1        1.0  0.54889  0.35979  0.18881  1.0000
  N   N2        1.0  0.45110  0.64027  0.81120  1.0000
  O   O1        1.0  0.43217  0.18477  0.43318  1.0000
  O   O2        1.0  0.56787  0.81521  0.56683  1.0000
  O   O3        1.0  0.10639  0.32372  0.45769  1.0000
  O   O4        1.0  0.89358  0.67628  0.54231  1.0000
  O   O5        1.0  0.70282  0.31038  0.25463  1.0000
  O   O6        1.0  0.29715  0.68958  0.74535  1.0000
  O   O7        1.0  0.39366  0.45439  0.22407  1.0000
  O   O8        1.0  0.60632  0.54560  0.77597  1.0000
  O   O9        1.0  0.55429  0.31413  0.09015  1.0000
  O   O10       1.0  0.44579  0.68611  0.90987  1.0000
