data_image0
_chemical_formula_structural       Zn2Cd2H20C28N12
_chemical_formula_sum              "Zn2 Cd2 H20 C28 N12"
_cell_length_a       8.35669
_cell_length_b       8.35675
_cell_length_c       13.9202
_cell_angle_alpha    89.9999
_cell_angle_beta     90.0003
_cell_angle_gamma    110.677

_space_group_name_H-M_alt    "P 1"
_space_group_IT_number       1

loop_
  _space_group_symop_operation_xyz
  'x, y, z'

loop_
  _atom_site_type_symbol
  _atom_site_label
  _atom_site_symmetry_multiplicity
  _atom_site_fract_x
  _atom_site_fract_y
  _atom_site_fract_z
  _atom_site_occupancy
  Zn  Zn1       1.0  0.50000  0.50000  0.75000  1.0000
  Zn  Zn2       1.0  0.50000  0.50000  0.25000  1.0000
  Cd  Cd1       1.0  0.50000  1.00000  0.50000  1.0000
  Cd  Cd2       1.0  0.00000  0.50000  1.00000  1.0000
  H   H1        1.0  0.80659  0.16305  0.64845  1.0000
  H   H2        1.0  0.19341  0.83695  0.64845  1.0000
  H   H3        1.0  0.83695  0.19341  0.85155  1.0000
  H   H4        1.0  0.16305  0.80659  0.85155  1.0000
  H   H5        1.0  0.19341  0.83695  0.35155  1.0000
  H   H6        1.0  0.80659  0.16305  0.35155  1.0000
  H   H7        1.0  0.16305  0.80659  0.14845  1.0000
  H   H8        1.0  0.83695  0.19341  0.14845  1.0000
  H   H9        1.0  0.28262  0.41941  0.50000  1.0000
  H   H10       1.0  0.71738  0.58058  0.50000  1.0000
  H   H11       1.0  0.58058  0.71739  1.00000  1.0000
  H   H12       1.0  0.41941  0.28261  1.00000  1.0000
  H   H13       1.0  0.12083  0.33277  0.65540  1.0000
  H   H14       1.0  0.87918  0.66723  0.65539  1.0000
  H   H15       1.0  0.66722  0.87918  0.84460  1.0000
  H   H16       1.0  0.33277  0.12082  0.84461  1.0000
  H   H17       1.0  0.87917  0.66722  0.34460  1.0000
  H   H18       1.0  0.12082  0.33277  0.34461  1.0000
  H   H19       1.0  0.33277  0.12083  0.15540  1.0000
  H   H20       1.0  0.66722  0.87917  0.15540  1.0000
  C   C1        1.0  0.46961  0.29546  0.66832  1.0000
  C   C2        1.0  0.53039  0.70455  0.66832  1.0000
  C   C3        1.0  0.70454  0.53040  0.83169  1.0000
  C   C4        1.0  0.29545  0.46961  0.83169  1.0000
  C   C5        1.0  0.53040  0.70455  0.33168  1.0000
  C   C6        1.0  0.46961  0.29546  0.33168  1.0000
  C   C7        1.0  0.29546  0.46960  0.16832  1.0000
  C   C8        1.0  0.70454  0.53040  0.16831  1.0000
  C   C9        1.0  0.88230  0.20390  0.58310  1.0000
  C   C10       1.0  0.11770  0.79610  0.58310  1.0000
  C   C11       1.0  0.79610  0.11770  0.91690  1.0000
  C   C12       1.0  0.20390  0.88230  0.91690  1.0000
  C   C13       1.0  0.11770  0.79609  0.41690  1.0000
  C   C14       1.0  0.88230  0.20390  0.41690  1.0000
  C   C15       1.0  0.20391  0.88230  0.08310  1.0000
  C   C16       1.0  0.79609  0.11770  0.08310  1.0000
  C   C17       1.0  0.14582  0.34630  0.50000  1.0000
  C   C18       1.0  0.85417  0.65370  0.50000  1.0000
  C   C19       1.0  0.65371  0.85417  1.00000  1.0000
  C   C20       1.0  0.34629  0.14583  1.00000  1.0000
  C   C21       1.0  0.05678  0.29818  0.58631  1.0000
  C   C22       1.0  0.94322  0.70181  0.58631  1.0000
  C   C23       1.0  0.70181  0.94321  0.91370  1.0000
  C   C24       1.0  0.29819  0.05679  0.91369  1.0000
  C   C25       1.0  0.94322  0.70182  0.41369  1.0000
  C   C26       1.0  0.05678  0.29819  0.41369  1.0000
  C   C27       1.0  0.29820  0.05679  0.08631  1.0000
  C   C28       1.0  0.70180  0.94322  0.08631  1.0000
  N   N1        1.0  0.46083  0.17821  0.62017  1.0000
  N   N2        1.0  0.53918  0.82179  0.62016  1.0000
  N   N3        1.0  0.82179  0.53918  0.87984  1.0000
  N   N4        1.0  0.17822  0.46082  0.87983  1.0000
  N   N5        1.0  0.53918  0.82179  0.37984  1.0000
  N   N6        1.0  0.46083  0.17821  0.37984  1.0000
  N   N7        1.0  0.17822  0.46082  0.12017  1.0000
  N   N8        1.0  0.82179  0.53918  0.12017  1.0000
  N   N9        1.0  0.79652  0.15777  0.50000  1.0000
  N   N10       1.0  0.20347  0.84222  0.50000  1.0000
  N   N11       1.0  0.84223  0.20348  0.00000  1.0000
  N   N12       1.0  0.15777  0.79652  0.00000  1.0000
