data_image0
_chemical_formula_structural       Na4H28C16O28
_chemical_formula_sum              "Na4 H28 C16 O28"
_cell_length_a       7.07245
_cell_length_b       9.06458
_cell_length_c       10.9932
_cell_angle_alpha    106.066
_cell_angle_beta     90.0001
_cell_angle_gamma    89.9999

_space_group_name_H-M_alt    "P 1"
_space_group_IT_number       1

loop_
  _space_group_symop_operation_xyz
  'x, y, z'

loop_
  _atom_site_type_symbol
  _atom_site_label
  _atom_site_symmetry_multiplicity
  _atom_site_fract_x
  _atom_site_fract_y
  _atom_site_fract_z
  _atom_site_occupancy
  Na  Na1       1.0  0.61439  0.28475  0.30855  1.0000
  Na  Na2       1.0  0.11439  0.21525  0.19145  1.0000
  Na  Na3       1.0  0.38561  0.71525  0.69145  1.0000
  Na  Na4       1.0  0.88561  0.78474  0.80855  1.0000
  H   H1        1.0  0.29086  0.32842  0.91998  1.0000
  H   H2        1.0  0.79086  0.17157  0.58002  1.0000
  H   H3        1.0  0.70914  0.67157  0.08001  1.0000
  H   H4        1.0  0.20914  0.82843  0.41999  1.0000
  H   H5        1.0  0.68917  0.96624  0.22177  1.0000
  H   H6        1.0  0.18916  0.53376  0.27823  1.0000
  H   H7        1.0  0.31084  0.03376  0.77823  1.0000
  H   H8        1.0  0.81084  0.46624  0.72177  1.0000
  H   H9        1.0  0.53764  0.94782  0.32582  1.0000
  H   H10       1.0  0.03763  0.55218  0.17418  1.0000
  H   H11       1.0  0.46236  0.05218  0.67418  1.0000
  H   H12       1.0  0.96237  0.44782  0.82581  1.0000
  H   H13       1.0  0.78522  0.39538  0.03253  1.0000
  H   H14       1.0  0.28522  0.10462  0.46747  1.0000
  H   H15       1.0  0.21478  0.60462  0.96746  1.0000
  H   H16       1.0  0.71478  0.89538  0.53254  1.0000
  H   H17       1.0  0.78723  0.10252  0.07932  1.0000
  H   H18       1.0  0.28723  0.39748  0.42068  1.0000
  H   H19       1.0  0.21278  0.89748  0.92068  1.0000
  H   H20       1.0  0.71278  0.60252  0.57932  1.0000
  H   H21       1.0  0.74083  0.22914  0.81044  1.0000
  H   H22       1.0  0.24083  0.27086  0.68956  1.0000
  H   H23       1.0  0.25917  0.77085  0.18955  1.0000
  H   H24       1.0  0.75917  0.72915  0.31045  1.0000
  H   H25       1.0  0.61015  0.01302  0.82083  1.0000
  H   H26       1.0  0.11015  0.48698  0.67917  1.0000
  H   H27       1.0  0.38985  0.98697  0.17917  1.0000
  H   H28       1.0  0.88985  0.51303  0.32083  1.0000
  C   C1        1.0  0.51094  0.29104  0.01970  1.0000
  C   C2        1.0  0.01094  0.20895  0.48031  1.0000
  C   C3        1.0  0.48905  0.70895  0.98031  1.0000
  C   C4        1.0  0.98905  0.79105  0.51969  1.0000
  C   C5        1.0  0.72730  0.27865  0.01434  1.0000
  C   C6        1.0  0.22730  0.22135  0.48566  1.0000
  C   C7        1.0  0.27270  0.72135  0.98565  1.0000
  C   C8        1.0  0.77270  0.77865  0.51435  1.0000
  C   C9        1.0  0.79683  0.18033  0.88440  1.0000
  C   C10       1.0  0.29683  0.31967  0.61560  1.0000
  C   C11       1.0  0.20317  0.81966  0.11560  1.0000
  C   C12       1.0  0.70317  0.68034  0.38440  1.0000
  C   C13       1.0  0.01340  0.18842  0.88089  1.0000
  C   C14       1.0  0.51340  0.31157  0.61911  1.0000
  C   C15       1.0  0.98660  0.81157  0.11911  1.0000
  C   C16       1.0  0.48660  0.68843  0.38089  1.0000
  O   O1        1.0  0.43970  0.33187  0.92287  1.0000
  O   O2        1.0  0.93970  0.16813  0.57712  1.0000
  O   O3        1.0  0.56030  0.66813  0.07712  1.0000
  O   O4        1.0  0.06029  0.83187  0.42288  1.0000
  O   O5        1.0  0.57359  0.01212  0.26954  1.0000
  O   O6        1.0  0.07358  0.48788  0.23046  1.0000
  O   O7        1.0  0.42642  0.98788  0.73046  1.0000
  O   O8        1.0  0.92642  0.51213  0.76954  1.0000
  O   O9        1.0  0.41927  0.26522  0.10700  1.0000
  O   O10       1.0  0.91926  0.23479  0.39299  1.0000
  O   O11       1.0  0.58074  0.73478  0.89298  1.0000
  O   O12       1.0  0.08074  0.76522  0.60702  1.0000
  O   O13       1.0  0.79699  0.21534  0.11052  1.0000
  O   O14       1.0  0.29699  0.28466  0.38948  1.0000
  O   O15       1.0  0.20301  0.78466  0.88947  1.0000
  O   O16       1.0  0.70301  0.71534  0.61053  1.0000
  O   O17       1.0  0.73669  0.02684  0.86569  1.0000
  O   O18       1.0  0.23669  0.47316  0.63431  1.0000
  O   O19       1.0  0.26332  0.97315  0.13430  1.0000
  O   O20       1.0  0.76331  0.52685  0.36570  1.0000
  O   O21       1.0  0.10894  0.06770  0.86492  1.0000
  O   O22       1.0  0.60894  0.43230  0.63508  1.0000
  O   O23       1.0  0.89107  0.93230  0.13508  1.0000
  O   O24       1.0  0.39106  0.56771  0.36492  1.0000
  O   O25       1.0  0.08285  0.32363  0.89664  1.0000
  O   O26       1.0  0.58285  0.17636  0.60336  1.0000
  O   O27       1.0  0.91715  0.67637  0.10335  1.0000
  O   O28       1.0  0.41715  0.82364  0.39665  1.0000
