data_image0
_chemical_formula_structural       Na2H14C8O14
_chemical_formula_sum              "Na2 H14 C8 O14"
_cell_length_a       6.51806
_cell_length_b       7.03831
_cell_length_c       7.98023
_cell_angle_alpha    90.4509
_cell_angle_beta     102.1
_cell_angle_gamma    109.923

_space_group_name_H-M_alt    "P 1"
_space_group_IT_number       1

loop_
  _space_group_symop_operation_xyz
  'x, y, z'

loop_
  _atom_site_type_symbol
  _atom_site_label
  _atom_site_symmetry_multiplicity
  _atom_site_fract_x
  _atom_site_fract_y
  _atom_site_fract_z
  _atom_site_occupancy
  Na  Na1       1.0  0.09655  0.76535  0.98423  1.0000
  Na  Na2       1.0  0.90345  0.23464  0.01577  1.0000
  H   H1        1.0  0.24370  0.64957  0.58662  1.0000
  H   H2        1.0  0.75630  0.35043  0.41337  1.0000
  H   H3        1.0  0.31221  0.16796  0.97502  1.0000
  H   H4        1.0  0.68779  0.83203  0.02498  1.0000
  H   H5        1.0  0.65735  0.44308  0.80682  1.0000
  H   H6        1.0  0.34264  0.55692  0.19318  1.0000
  H   H7        1.0  0.05726  0.08224  0.63097  1.0000
  H   H8        1.0  0.94274  0.91776  0.36903  1.0000
  H   H9        1.0  0.44729  0.24218  0.57798  1.0000
  H   H10       1.0  0.55270  0.75782  0.42202  1.0000
  H   H11       1.0  0.68354  0.75172  0.74183  1.0000
  H   H12       1.0  0.31646  0.24828  0.25817  1.0000
  H   H13       1.0  0.78397  0.63388  0.62488  1.0000
  H   H14       1.0  0.21603  0.36612  0.37512  1.0000
  C   C1        1.0  0.18214  0.39593  0.72254  1.0000
  C   C2        1.0  0.81788  0.60406  0.27744  1.0000
  C   C3        1.0  0.19642  0.18291  0.73067  1.0000
  C   C4        1.0  0.80358  0.81710  0.26933  1.0000
  C   C5        1.0  0.42232  0.18218  0.70205  1.0000
  C   C6        1.0  0.57768  0.81783  0.29794  1.0000
  C   C7        1.0  0.42134  0.96399  0.69163  1.0000
  C   C8        1.0  0.57865  0.03601  0.30836  1.0000
  O   O1        1.0  0.12542  0.47217  0.83705  1.0000
  O   O2        1.0  0.87458  0.52785  0.16297  1.0000
  O   O3        1.0  0.23424  0.48453  0.58518  1.0000
  O   O4        1.0  0.76576  0.51547  0.41483  1.0000
  O   O5        1.0  0.16727  0.10716  0.89222  1.0000
  O   O6        1.0  0.83274  0.89284  0.10779  1.0000
  O   O7        1.0  0.59478  0.30011  0.84041  1.0000
  O   O8        1.0  0.40522  0.69989  0.15959  1.0000
  O   O9        1.0  0.57291  0.92038  0.79107  1.0000
  O   O10       1.0  0.42710  0.07962  0.20893  1.0000
  O   O11       1.0  0.26035  0.84051  0.57754  1.0000
  O   O12       1.0  0.73964  0.15949  0.42246  1.0000
  O   O13       1.0  0.77683  0.66427  0.74391  1.0000
  O   O14       1.0  0.22317  0.33573  0.25609  1.0000
