data_image0
_chemical_formula_structural       Mg2H16C18N4O12
_chemical_formula_sum              "Mg2 H16 C18 N4 O12"
_cell_length_a       7.29729
_cell_length_b       7.4299
_cell_length_c       10.1846
_cell_angle_alpha    68.6109
_cell_angle_beta     86.9907
_cell_angle_gamma    81.7263

_space_group_name_H-M_alt    "P 1"
_space_group_IT_number       1

loop_
  _space_group_symop_operation_xyz
  'x, y, z'

loop_
  _atom_site_type_symbol
  _atom_site_label
  _atom_site_symmetry_multiplicity
  _atom_site_fract_x
  _atom_site_fract_y
  _atom_site_fract_z
  _atom_site_occupancy
  Mg  Mg1       1.0  0.63367  0.40877  0.62180  1.0000
  Mg  Mg2       1.0  0.13374  0.03050  0.37820  1.0000
  H   H1        1.0  0.58570  0.90789  0.87688  1.0000
  H   H2        1.0  0.08555  0.78474  0.12329  1.0000
  H   H3        1.0  0.62417  0.63941  0.18555  1.0000
  H   H4        1.0  0.12382  0.82509  0.81452  1.0000
  H   H5        1.0  0.75540  0.14869  0.94610  1.0000
  H   H6        1.0  0.25546  0.09496  0.05378  1.0000
  H   H7        1.0  0.59659  0.85157  0.65263  1.0000
  H   H8        1.0  0.09662  0.50412  0.34746  1.0000
  H   H9        1.0  0.97483  0.17761  0.71933  1.0000
  H   H10       1.0  0.47480  0.89670  0.28064  1.0000
  H   H11       1.0  0.86731  0.14370  0.60112  1.0000
  H   H12       1.0  0.36733  0.74465  0.39896  1.0000
  H   H13       1.0  0.89031  0.66942  0.53264  1.0000
  H   H14       1.0  0.39057  0.20179  0.46735  1.0000
  H   H15       1.0  0.77286  0.69571  0.39842  1.0000
  H   H16       1.0  0.27301  0.09403  0.60153  1.0000
  C   C1        1.0  0.72804  0.27370  0.36886  1.0000
  C   C2        1.0  0.22796  0.64268  0.63112  1.0000
  C   C3        1.0  0.70874  0.33694  0.21155  1.0000
  C   C4        1.0  0.20856  0.54866  0.78843  1.0000
  C   C5        1.0  0.65423  0.53479  0.13295  1.0000
  C   C6        1.0  0.15392  0.66787  0.86706  1.0000
  C   C7        1.0  0.64880  0.59084  0.98667  1.0000
  C   C8        1.0  0.14853  0.57758  0.01336  1.0000
  C   C9        1.0  0.68185  0.45216  0.91950  1.0000
  C   C10       1.0  0.18170  0.37175  0.08050  1.0000
  C   C11       1.0  0.72982  0.25481  0.99802  1.0000
  C   C12       1.0  0.22978  0.25297  0.00191  1.0000
  C   C13       1.0  0.74866  0.20016  0.14304  1.0000
  C   C14       1.0  0.24859  0.34340  0.85690  1.0000
  C   C15       1.0  0.81481  0.98935  0.22171  1.0000
  C   C16       1.0  0.31477  0.21123  0.77821  1.0000
  C   C17       1.0  0.62273  0.73452  0.75418  1.0000
  C   C18       1.0  0.12262  0.48866  0.24587  1.0000
  N   N1        1.0  0.66204  0.54576  0.77494  1.0000
  N   N2        1.0  0.16199  0.32070  0.22507  1.0000
  N   N3        1.0  0.61329  0.76932  0.87645  1.0000
  N   N4        1.0  0.11309  0.64576  0.12363  1.0000
  O   O1        1.0  0.98619  0.93815  0.25083  1.0000
  O   O2        1.0  0.48617  0.18904  0.74917  1.0000
  O   O3        1.0  0.69907  0.86828  0.24957  1.0000
  O   O4        1.0  0.19901  0.11811  0.75030  1.0000
  O   O5        1.0  0.86651  0.14903  0.43025  1.0000
  O   O6        1.0  0.36640  0.57928  0.56979  1.0000
  O   O7        1.0  0.60514  0.34821  0.43498  1.0000
  O   O8        1.0  0.10516  0.78342  0.56495  1.0000
  O   O9        1.0  0.84815  0.18187  0.68567  1.0000
  O   O10       1.0  0.34814  0.86728  0.31434  1.0000
  O   O11       1.0  0.80473  0.60664  0.49751  1.0000
  O   O12       1.0  0.30508  0.10379  0.50252  1.0000
