data_image0
_chemical_formula_structural       Ag2H6C6N8O4
_chemical_formula_sum              "Ag2 H6 C6 N8 O4"
_cell_length_a       5.25714
_cell_length_b       7.50773
_cell_length_c       8.26537
_cell_angle_alpha    110.261
_cell_angle_beta     102.384
_cell_angle_gamma    104.056

_space_group_name_H-M_alt    "P 1"
_space_group_IT_number       1

loop_
  _space_group_symop_operation_xyz
  'x, y, z'

loop_
  _atom_site_type_symbol
  _atom_site_label
  _atom_site_symmetry_multiplicity
  _atom_site_fract_x
  _atom_site_fract_y
  _atom_site_fract_z
  _atom_site_occupancy
  Ag  Ag1       1.0  0.60308  0.82988  0.96137  1.0000
  Ag  Ag2       1.0  0.39693  0.17012  0.03863  1.0000
  H   H1        1.0  0.14188  0.17967  0.58829  1.0000
  H   H2        1.0  0.85812  0.82033  0.41170  1.0000
  H   H3        1.0  0.19419  0.41155  0.56301  1.0000
  H   H4        1.0  0.80581  0.58845  0.43699  1.0000
  H   H5        1.0  0.77013  0.08976  0.75185  1.0000
  H   H6        1.0  0.22988  0.91024  0.24815  1.0000
  C   C1        1.0  0.83408  0.16814  0.35625  1.0000
  C   C2        1.0  0.16592  0.83186  0.64375  1.0000
  C   C3        1.0  0.03783  0.27712  0.55266  1.0000
  C   C4        1.0  0.96217  0.72288  0.44734  1.0000
  C   C5        1.0  0.77301  0.24028  0.76782  1.0000
  C   C6        1.0  0.22698  0.75972  0.23218  1.0000
  N   N1        1.0  0.90099  0.34324  0.68577  1.0000
  N   N2        1.0  0.09901  0.65676  0.31424  1.0000
  N   N3        1.0  0.86556  0.52371  0.73502  1.0000
  N   N4        1.0  0.13444  0.47629  0.26498  1.0000
  N   N5        1.0  0.72267  0.52978  0.84613  1.0000
  N   N6        1.0  0.27733  0.47022  0.15387  1.0000
  N   N7        1.0  0.66058  0.35511  0.86985  1.0000
  N   N8        1.0  0.33942  0.64489  0.13015  1.0000
  O   O1        1.0  0.90348  0.03958  0.24541  1.0000
  O   O2        1.0  0.09652  0.96042  0.75459  1.0000
  O   O3        1.0  0.62184  0.21822  0.32451  1.0000
  O   O4        1.0  0.37816  0.78178  0.67549  1.0000
