data_image0
_chemical_formula_structural       HgH10C10Br2N6O2
_chemical_formula_sum              "Hg1 H10 C10 Br2 N6 O2"
_cell_length_a       4.03513
_cell_length_b       6.28454
_cell_length_c       14.7716
_cell_angle_alpha    100.082
_cell_angle_beta     91.2125
_cell_angle_gamma    97.2519

_space_group_name_H-M_alt    "P 1"
_space_group_IT_number       1

loop_
  _space_group_symop_operation_xyz
  'x, y, z'

loop_
  _atom_site_type_symbol
  _atom_site_label
  _atom_site_symmetry_multiplicity
  _atom_site_fract_x
  _atom_site_fract_y
  _atom_site_fract_z
  _atom_site_occupancy
  Hg  Hg1       1.0  0.50002  1.00000  0.50000  1.0000
  H   H1        1.0  0.26475  0.67201  0.81320  1.0000
  H   H2        1.0  0.73525  0.32800  0.18679  1.0000
  H   H3        1.0  0.26263  0.49341  0.64626  1.0000
  H   H4        1.0  0.73737  0.50658  0.35373  1.0000
  H   H5        1.0  0.73153  0.99477  0.72140  1.0000
  H   H6        1.0  0.26844  0.00523  0.27860  1.0000
  H   H7        1.0  0.89102  0.16171  0.04201  1.0000
  H   H8        1.0  0.10899  0.83829  0.95799  1.0000
  H   H9        1.0  0.66100  0.36522  0.01237  1.0000
  H   H10       1.0  0.33899  0.63478  0.98762  1.0000
  C   C1        1.0  0.37026  0.51989  0.79338  1.0000
  C   C2        1.0  0.62974  0.48011  0.20662  1.0000
  C   C3        1.0  0.36840  0.42167  0.70066  1.0000
  C   C4        1.0  0.63161  0.57833  0.29934  1.0000
  C   C5        1.0  0.62439  0.14599  0.74166  1.0000
  C   C6        1.0  0.37558  0.85400  0.25834  1.0000
  C   C7        1.0  0.62689  0.24470  0.83425  1.0000
  C   C8        1.0  0.37311  0.75530  0.16575  1.0000
  C   C9        1.0  0.78690  0.13885  0.90454  1.0000
  C   C10       1.0  0.21310  0.86116  0.09546  1.0000
  Br  Br1       1.0  0.86059  0.74496  0.55976  1.0000
  Br  Br2       1.0  0.13947  0.25507  0.44026  1.0000
  N   N1        1.0  0.49751  0.43157  0.86052  1.0000
  N   N2        1.0  0.50249  0.56843  0.13948  1.0000
  N   N3        1.0  0.49517  0.23435  0.67524  1.0000
  N   N4        1.0  0.50482  0.76563  0.32476  1.0000
  N   N5        1.0  0.78062  0.23209  0.99255  1.0000
  N   N6        1.0  0.21937  0.76791  0.00744  1.0000
  O   O1        1.0  0.92234  0.97099  0.87707  1.0000
  O   O2        1.0  0.07768  0.02901  0.12293  1.0000
