data_image0
_chemical_formula_structural       SiNiH8C8N4F6
_chemical_formula_sum              "Si1 Ni1 H8 C8 N4 F6"
_cell_length_a       6.70371
_cell_length_b       6.7037
_cell_length_c       8.06095
_cell_angle_alpha    90
_cell_angle_beta     89.9999
_cell_angle_gamma    90.0002

_space_group_name_H-M_alt    "P 1"
_space_group_IT_number       1

loop_
  _space_group_symop_operation_xyz
  'x, y, z'

loop_
  _atom_site_type_symbol
  _atom_site_label
  _atom_site_symmetry_multiplicity
  _atom_site_fract_x
  _atom_site_fract_y
  _atom_site_fract_z
  _atom_site_occupancy
  Si  Si1       1.0  0.50000  0.50001  0.00000  1.0000
  Ni  Ni1       1.0  0.50000  0.50000  0.50000  1.0000
  H   H1        1.0  0.50000  0.18602  0.23990  1.0000
  H   H2        1.0  0.81399  0.50000  0.23990  1.0000
  H   H3        1.0  0.50000  0.81399  0.23990  1.0000
  H   H4        1.0  0.18602  0.50000  0.23990  1.0000
  H   H5        1.0  0.50000  0.81398  0.76010  1.0000
  H   H6        1.0  0.81398  0.50000  0.76010  1.0000
  H   H7        1.0  0.50000  0.18601  0.76010  1.0000
  H   H8        1.0  0.18601  0.50000  0.76010  1.0000
  C   C1        1.0  0.50000  0.10381  0.35652  1.0000
  C   C2        1.0  0.89617  0.50000  0.35652  1.0000
  C   C3        1.0  0.50000  0.89617  0.35652  1.0000
  C   C4        1.0  0.10382  0.50000  0.35652  1.0000
  C   C5        1.0  0.50000  0.89617  0.64348  1.0000
  C   C6        1.0  0.89618  0.50000  0.64348  1.0000
  C   C7        1.0  0.50000  0.10382  0.64348  1.0000
  C   C8        1.0  0.10382  0.50000  0.64348  1.0000
  N   N1        1.0  0.50000  0.20744  0.50000  1.0000
  N   N2        1.0  0.79257  0.50000  0.50000  1.0000
  N   N3        1.0  0.50000  0.79258  0.50000  1.0000
  N   N4        1.0  0.20743  0.50000  0.50000  1.0000
  F   F1        1.0  0.50001  0.50001  0.21595  1.0000
  F   F2        1.0  0.50001  0.50002  0.78405  1.0000
  F   F3        1.0  0.32038  0.32038  0.00000  1.0000
  F   F4        1.0  0.67962  0.32037  1.00000  1.0000
  F   F5        1.0  0.67963  0.67963  0.00000  1.0000
  F   F6        1.0  0.32037  0.67962  0.00000  1.0000
