data_image0
_chemical_formula_structural       Cd2H26C24N6O12
_chemical_formula_sum              "Cd2 H26 C24 N6 O12"
_cell_length_a       7.74418
_cell_length_b       9.16173
_cell_length_c       10.3171
_cell_angle_alpha    107.544
_cell_angle_beta     90.2599
_cell_angle_gamma    95.9911

_space_group_name_H-M_alt    "P 1"
_space_group_IT_number       1

loop_
  _space_group_symop_operation_xyz
  'x, y, z'

loop_
  _atom_site_type_symbol
  _atom_site_label
  _atom_site_symmetry_multiplicity
  _atom_site_fract_x
  _atom_site_fract_y
  _atom_site_fract_z
  _atom_site_occupancy
  Cd  Cd1       1.0  0.30833  0.19821  0.59928  1.0000
  Cd  Cd2       1.0  0.69166  0.80178  0.40072  1.0000
  H   H1        1.0  0.11671  0.83694  0.81318  1.0000
  H   H2        1.0  0.88330  0.16306  0.18682  1.0000
  H   H3        1.0  0.97101  0.96519  0.66536  1.0000
  H   H4        1.0  0.02899  0.03482  0.33465  1.0000
  H   H5        1.0  0.65832  0.43696  0.45080  1.0000
  H   H6        1.0  0.34169  0.56304  0.54919  1.0000
  H   H7        1.0  0.09657  0.52366  0.83624  1.0000
  H   H8        1.0  0.90343  0.47634  0.16376  1.0000
  H   H9        1.0  0.75405  0.55792  0.00336  1.0000
  H   H10       1.0  0.24596  0.44206  0.99663  1.0000
  H   H11       1.0  0.67508  0.73963  0.08390  1.0000
  H   H12       1.0  0.32493  0.26036  0.91610  1.0000
  H   H13       1.0  0.84303  0.72745  0.96614  1.0000
  H   H14       1.0  0.15697  0.27255  0.03385  1.0000
  H   H15       1.0  0.45772  0.72962  0.75425  1.0000
  H   H16       1.0  0.54227  0.27038  0.24575  1.0000
  H   H17       1.0  0.64643  0.84629  0.84149  1.0000
  H   H18       1.0  0.35356  0.15370  0.15851  1.0000
  H   H19       1.0  0.45577  0.82860  0.93430  1.0000
  H   H20       1.0  0.54423  0.17140  0.06571  1.0000
  H   H21       1.0  0.59013  0.40229  0.84482  1.0000
  H   H22       1.0  0.40988  0.59771  0.15518  1.0000
  H   H23       1.0  0.60752  0.14537  0.76717  1.0000
  H   H24       1.0  0.39247  0.85463  0.23283  1.0000
  H   H25       1.0  0.48185  0.00092  0.67394  1.0000
  H   H26       1.0  0.51815  0.99909  0.32607  1.0000
  C   C1        1.0  0.94272  0.84431  0.65753  1.0000
  C   C2        1.0  0.05727  0.15569  0.34247  1.0000
  C   C3        1.0  0.84012  0.60189  0.59615  1.0000
  C   C4        1.0  0.15989  0.39811  0.40384  1.0000
  C   C5        1.0  0.75165  0.45659  0.53510  1.0000
  C   C6        1.0  0.24835  0.54341  0.46491  1.0000
  C   C7        1.0  0.78803  0.33552  0.58337  1.0000
  C   C8        1.0  0.21197  0.66448  0.41663  1.0000
  C   C9        1.0  0.91027  0.36037  0.69312  1.0000
  C   C10       1.0  0.08973  0.63962  0.30688  1.0000
  C   C11       1.0  0.00092  0.50539  0.75358  1.0000
  C   C12       1.0  0.99908  0.49462  0.24641  1.0000
  C   C13       1.0  0.96382  0.62461  0.70397  1.0000
  C   C14       1.0  0.03619  0.37540  0.29602  1.0000
  C   C15       1.0  0.93819  0.23597  0.75672  1.0000
  C   C16       1.0  0.06181  0.76403  0.24328  1.0000
  C   C17       1.0  0.72332  0.66646  0.98950  1.0000
  C   C18       1.0  0.27669  0.33353  0.01050  1.0000
  C   C19       1.0  0.53368  0.76701  0.85041  1.0000
  C   C20       1.0  0.46631  0.23299  0.14959  1.0000
  C   C21       1.0  0.52917  0.49001  0.81268  1.0000
  C   C22       1.0  0.47084  0.50998  0.18732  1.0000
  C   C23       1.0  0.70229  0.17699  0.51038  1.0000
  C   C24       1.0  0.29772  0.82301  0.48962  1.0000
  N   N1        1.0  0.83164  0.74162  0.56996  1.0000
  N   N2        1.0  0.16836  0.25837  0.43004  1.0000
  N   N3        1.0  0.02477  0.77950  0.74025  1.0000
  N   N4        1.0  0.97524  0.22049  0.25976  1.0000
  N   N5        1.0  0.59351  0.63429  0.87940  1.0000
  N   N6        1.0  0.40650  0.36570  0.12059  1.0000
  O   O1        1.0  0.08662  0.18488  0.74634  1.0000
  O   O2        1.0  0.91338  0.81513  0.25366  1.0000
  O   O3        1.0  0.81686  0.19599  0.82505  1.0000
  O   O4        1.0  0.18314  0.80402  0.17496  1.0000
  O   O5        1.0  0.48250  0.10734  0.74025  1.0000
  O   O6        1.0  0.51749  0.89266  0.25975  1.0000
  O   O7        1.0  0.41069  0.45417  0.72116  1.0000
  O   O8        1.0  0.58931  0.54584  0.27884  1.0000
  O   O9        1.0  0.78105  0.06306  0.51283  1.0000
  O   O10       1.0  0.21894  0.93695  0.48718  1.0000
  O   O11       1.0  0.55669  0.16692  0.44629  1.0000
  O   O12       1.0  0.44331  0.83309  0.55372  1.0000
