data_image0
_chemical_formula_structural       Zn4H24C32S4N16O16
_chemical_formula_sum              "Zn4 H24 C32 S4 N16 O16"
_cell_length_a       8.81273
_cell_length_b       10.0642
_cell_length_c       13.5522
_cell_angle_alpha    90
_cell_angle_beta     90
_cell_angle_gamma    117.121

_space_group_name_H-M_alt    "P 1"
_space_group_IT_number       1

loop_
  _space_group_symop_operation_xyz
  'x, y, z'

loop_
  _atom_site_type_symbol
  _atom_site_label
  _atom_site_symmetry_multiplicity
  _atom_site_fract_x
  _atom_site_fract_y
  _atom_site_fract_z
  _atom_site_occupancy
  Zn  Zn1       1.0  0.22028  0.76569  0.38833  1.0000
  Zn  Zn2       1.0  0.77972  0.73431  0.88833  1.0000
  Zn  Zn3       1.0  0.77972  0.23431  0.61166  1.0000
  Zn  Zn4       1.0  0.22028  0.26569  0.11167  1.0000
  H   H1        1.0  0.13197  0.25676  0.66183  1.0000
  H   H2        1.0  0.86803  0.24324  0.16183  1.0000
  H   H3        1.0  0.86803  0.74324  0.33816  1.0000
  H   H4        1.0  0.13197  0.75676  0.83817  1.0000
  H   H5        1.0  0.44461  0.45743  0.63494  1.0000
  H   H6        1.0  0.55539  0.04257  0.13494  1.0000
  H   H7        1.0  0.55538  0.54257  0.36505  1.0000
  H   H8        1.0  0.44462  0.95743  0.86505  1.0000
  H   H9        1.0  0.48781  0.67276  0.52632  1.0000
  H   H10       1.0  0.51218  0.82724  0.02632  1.0000
  H   H11       1.0  0.51219  0.32724  0.47368  1.0000
  H   H12       1.0  0.48782  0.17276  0.97368  1.0000
  H   H13       1.0  0.96665  0.15311  0.41234  1.0000
  H   H14       1.0  0.03334  0.34688  0.91234  1.0000
  H   H15       1.0  0.03334  0.84688  0.58766  1.0000
  H   H16       1.0  0.96666  0.65311  0.08766  1.0000
  H   H17       1.0  0.85849  0.95599  0.27823  1.0000
  H   H18       1.0  0.14151  0.54401  0.77823  1.0000
  H   H19       1.0  0.14151  0.04401  0.72177  1.0000
  H   H20       1.0  0.85849  0.45599  0.22177  1.0000
  H   H21       1.0  0.53457  0.78960  0.27104  1.0000
  H   H22       1.0  0.46543  0.71040  0.77104  1.0000
  H   H23       1.0  0.46543  0.21040  0.72896  1.0000
  H   H24       1.0  0.53457  0.28959  0.22896  1.0000
  C   C1        1.0  0.07281  0.49151  0.52069  1.0000
  C   C2        1.0  0.92719  0.00849  0.02069  1.0000
  C   C3        1.0  0.92718  0.50849  0.47931  1.0000
  C   C4        1.0  0.07282  0.99151  0.97931  1.0000
  C   C5        1.0  0.16756  0.35523  0.61555  1.0000
  C   C6        1.0  0.83244  0.14476  0.11555  1.0000
  C   C7        1.0  0.83244  0.64477  0.38445  1.0000
  C   C8        1.0  0.16756  0.85524  0.88445  1.0000
  C   C9        1.0  0.33523  0.46326  0.60108  1.0000
  C   C10       1.0  0.66477  0.03674  0.10107  1.0000
  C   C11       1.0  0.66477  0.53674  0.39893  1.0000
  C   C12       1.0  0.33523  0.96326  0.89893  1.0000
  C   C13       1.0  0.35985  0.58449  0.54175  1.0000
  C   C14       1.0  0.64015  0.91551  0.04175  1.0000
  C   C15       1.0  0.64015  0.41552  0.45825  1.0000
  C   C16       1.0  0.35986  0.08449  0.95825  1.0000
  C   C17       1.0  0.55902  0.99395  0.46301  1.0000
  C   C18       1.0  0.44099  0.50604  0.96300  1.0000
  C   C19       1.0  0.44098  0.00604  0.53700  1.0000
  C   C20       1.0  0.55902  0.49395  0.03699  1.0000
  C   C21       1.0  0.83170  0.07498  0.40571  1.0000
  C   C22       1.0  0.16830  0.42502  0.90571  1.0000
  C   C23       1.0  0.16829  0.92502  0.59429  1.0000
  C   C24       1.0  0.83171  0.57498  0.09429  1.0000
  C   C25       1.0  0.77149  0.96744  0.33116  1.0000
  C   C26       1.0  0.22851  0.53256  0.83116  1.0000
  C   C27       1.0  0.22851  0.03256  0.66885  1.0000
  C   C28       1.0  0.77149  0.46744  0.16884  1.0000
  C   C29       1.0  0.59626  0.87567  0.32698  1.0000
  C   C30       1.0  0.40374  0.62433  0.82698  1.0000
  C   C31       1.0  0.40374  0.12433  0.67302  1.0000
  C   C32       1.0  0.59626  0.37567  0.17302  1.0000
  S   S1        1.0  0.17966  0.47849  0.27150  1.0000
  S   S2        1.0  0.82034  0.02151  0.77150  1.0000
  S   S3        1.0  0.82034  0.52151  0.72850  1.0000
  S   S4        1.0  0.17966  0.97849  0.22850  1.0000
  N   N1        1.0  0.22929  0.59900  0.50166  1.0000
  N   N2        1.0  0.77071  0.90100  0.00167  1.0000
  N   N3        1.0  0.77070  0.40100  0.49833  1.0000
  N   N4        1.0  0.22929  0.09900  0.99834  1.0000
  N   N5        1.0  0.96264  0.63074  0.42548  1.0000
  N   N6        1.0  0.03736  0.86926  0.92548  1.0000
  N   N7        1.0  0.03736  0.36926  0.57452  1.0000
  N   N8        1.0  0.96265  0.13074  0.07452  1.0000
  N   N9        1.0  0.49039  0.88906  0.39305  1.0000
  N   N10       1.0  0.50962  0.61094  0.89305  1.0000
  N   N11       1.0  0.50961  0.11094  0.60695  1.0000
  N   N12       1.0  0.49039  0.38906  0.10695  1.0000
  N   N13       1.0  0.27508  0.91228  0.52870  1.0000
  N   N14       1.0  0.72492  0.58772  0.02870  1.0000
  N   N15       1.0  0.72492  0.08772  0.47130  1.0000
  N   N16       1.0  0.27508  0.41228  0.97130  1.0000
  O   O1        1.0  0.21443  0.64049  0.26859  1.0000
  O   O2        1.0  0.78557  0.85951  0.76860  1.0000
  O   O3        1.0  0.78557  0.35951  0.73140  1.0000
  O   O4        1.0  0.21443  0.14049  0.23141  1.0000
  O   O5        1.0  0.17603  0.43536  0.16427  1.0000
  O   O6        1.0  0.82397  0.06463  0.66427  1.0000
  O   O7        1.0  0.82397  0.56464  0.83573  1.0000
  O   O8        1.0  0.17603  0.93537  0.33573  1.0000
  O   O9        1.0  0.31616  0.46343  0.32489  1.0000
  O   O10       1.0  0.68383  0.03657  0.82489  1.0000
  O   O11       1.0  0.68383  0.53657  0.67511  1.0000
  O   O12       1.0  0.31617  0.96343  0.17511  1.0000
  O   O13       1.0  0.00901  0.38594  0.31555  1.0000
  O   O14       1.0  0.99099  0.11406  0.81556  1.0000
  O   O15       1.0  0.99099  0.61406  0.68444  1.0000
  O   O16       1.0  0.00901  0.88594  0.18445  1.0000
