data_image0
_chemical_formula_structural       Cu2H16C26S2N14
_chemical_formula_sum              "Cu2 H16 C26 S2 N14"
_cell_length_a       5.70433
_cell_length_b       5.67993
_cell_length_c       20.4937
_cell_angle_alpha    89.9988
_cell_angle_beta     89.9961
_cell_angle_gamma    101.468

_space_group_name_H-M_alt    "P 1"
_space_group_IT_number       1

loop_
  _space_group_symop_operation_xyz
  'x, y, z'

loop_
  _atom_site_type_symbol
  _atom_site_label
  _atom_site_symmetry_multiplicity
  _atom_site_fract_x
  _atom_site_fract_y
  _atom_site_fract_z
  _atom_site_occupancy
  Cu  Cu1       1.0  0.44211  0.45943  0.75003  1.0000
  Cu  Cu2       1.0  0.55790  0.54055  0.25003  1.0000
  H   H1        1.0  0.81929  0.39228  0.85386  1.0000
  H   H2        1.0  0.18066  0.60781  0.35386  1.0000
  H   H3        1.0  0.18071  0.60754  0.14617  1.0000
  H   H4        1.0  0.81936  0.39243  0.64617  1.0000
  H   H5        1.0  0.84921  0.07213  0.93492  1.0000
  H   H6        1.0  0.15082  0.92790  0.43492  1.0000
  H   H7        1.0  0.15069  0.92749  0.06508  1.0000
  H   H8        1.0  0.84930  0.07246  0.56508  1.0000
  H   H9        1.0  0.11044  0.09096  0.81335  1.0000
  H   H10       1.0  0.88952  0.90895  0.31336  1.0000
  H   H11       1.0  0.88949  0.90897  0.18666  1.0000
  H   H12       1.0  0.11058  0.09107  0.68667  1.0000
  H   H13       1.0  0.11359  0.75359  0.89051  1.0000
  H   H14       1.0  0.88636  0.24633  0.39051  1.0000
  H   H15       1.0  0.88622  0.24619  0.10948  1.0000
  H   H16       1.0  0.11376  0.75382  0.60947  1.0000
  C   C1        1.0  0.66606  0.24841  0.86381  1.0000
  C   C2        1.0  0.33388  0.75163  0.36381  1.0000
  C   C3        1.0  0.33385  0.75131  0.13619  1.0000
  C   C4        1.0  0.66618  0.24863  0.63619  1.0000
  C   C5        1.0  0.48357  0.88150  0.91812  1.0000
  C   C6        1.0  0.51637  0.11853  0.41812  1.0000
  C   C7        1.0  0.51635  0.11822  0.08186  1.0000
  C   C8        1.0  0.48372  0.88176  0.58187  1.0000
  C   C9        1.0  0.68272  0.06866  0.90856  1.0000
  C   C10       1.0  0.31725  0.93137  0.40855  1.0000
  C   C11       1.0  0.31724  0.93104  0.09145  1.0000
  C   C12       1.0  0.68283  0.06893  0.59144  1.0000
  C   C13       1.0  0.49280  0.67914  0.96174  1.0000
  C   C14       1.0  0.50722  0.32094  0.46174  1.0000
  C   C15       1.0  0.50706  0.32062  0.03825  1.0000
  C   C16       1.0  0.49293  0.67937  0.53825  1.0000
  C   C17       1.0  0.27164  0.07985  0.84082  1.0000
  C   C18       1.0  0.72834  0.92015  0.34083  1.0000
  C   C19       1.0  0.72830  0.92001  0.15917  1.0000
  C   C20       1.0  0.27174  0.08001  0.65919  1.0000
  C   C21       1.0  0.27309  0.89235  0.88395  1.0000
  C   C22       1.0  0.72688  0.10760  0.38394  1.0000
  C   C23       1.0  0.72679  0.10744  0.11604  1.0000
  C   C24       1.0  0.27324  0.89260  0.61605  1.0000
  C   C25       1.0  0.97017  0.64883  0.75001  1.0000
  C   C26       1.0  0.02980  0.35113  0.25002  1.0000
  S   S1        1.0  0.74674  0.78957  0.75000  1.0000
  S   S2        1.0  0.25327  0.21039  0.24999  1.0000
  N   N1        1.0  0.46555  0.25396  0.82914  1.0000
  N   N2        1.0  0.53439  0.74608  0.32913  1.0000
  N   N3        1.0  0.53437  0.74584  0.17087  1.0000
  N   N4        1.0  0.46565  0.25415  0.67088  1.0000
  N   N5        1.0  0.13585  0.55180  0.75001  1.0000
  N   N6        1.0  0.86414  0.44817  0.25002  1.0000
  N   N7        1.0  0.69867  0.67889  0.99488  1.0000
  N   N8        1.0  0.30134  0.32118  0.49490  1.0000
  N   N9        1.0  0.30120  0.32084  0.00508  1.0000
  N   N10       1.0  0.69881  0.67918  0.50507  1.0000
  N   N11       1.0  0.29421  0.50265  0.96608  1.0000
  N   N12       1.0  0.70578  0.49737  0.46606  1.0000
  N   N13       1.0  0.70564  0.49709  0.03389  1.0000
  N   N14       1.0  0.29438  0.50293  0.53390  1.0000
