data_image0
_chemical_formula_structural       Cu4H32C40N16O16
_chemical_formula_sum              "Cu4 H32 C40 N16 O16"
_cell_length_a       4.92507
_cell_length_b       13.2089
_cell_length_c       17.3426
_cell_angle_alpha    90
_cell_angle_beta     94.2259
_cell_angle_gamma    90

_space_group_name_H-M_alt    "P 1"
_space_group_IT_number       1

loop_
  _space_group_symop_operation_xyz
  'x, y, z'

loop_
  _atom_site_type_symbol
  _atom_site_label
  _atom_site_symmetry_multiplicity
  _atom_site_fract_x
  _atom_site_fract_y
  _atom_site_fract_z
  _atom_site_occupancy
  Cu  Cu1       1.0  0.13148  0.62259  0.26840  1.0000
  Cu  Cu2       1.0  0.36852  0.12259  0.23160  1.0000
  Cu  Cu3       1.0  0.86852  0.37741  0.73160  1.0000
  Cu  Cu4       1.0  0.63148  0.87741  0.76840  1.0000
  H   H1        1.0  0.89092  0.81281  0.32628  1.0000
  H   H2        1.0  0.60907  0.31281  0.17372  1.0000
  H   H3        1.0  0.10908  0.18719  0.67372  1.0000
  H   H4        1.0  0.39093  0.68719  0.82628  1.0000
  H   H5        1.0  0.51567  0.74506  0.18491  1.0000
  H   H6        1.0  0.98432  0.24506  0.31509  1.0000
  H   H7        1.0  0.48432  0.25494  0.81509  1.0000
  H   H8        1.0  0.01568  0.75494  0.68491  1.0000
  H   H9        1.0  0.60277  0.93237  0.16839  1.0000
  H   H10       1.0  0.89723  0.43237  0.33161  1.0000
  H   H11       1.0  0.39723  0.06763  0.83161  1.0000
  H   H12       1.0  0.10277  0.56763  0.66839  1.0000
  H   H13       1.0  0.98027  0.99965  0.31071  1.0000
  H   H14       1.0  0.51973  0.49965  0.18929  1.0000
  H   H15       1.0  0.01973  0.00035  0.68929  1.0000
  H   H16       1.0  0.48028  0.50035  0.81071  1.0000
  H   H17       1.0  0.86919  0.56277  0.46188  1.0000
  H   H18       1.0  0.63081  0.06277  0.03812  1.0000
  H   H19       1.0  0.13080  0.43723  0.53812  1.0000
  H   H20       1.0  0.36919  0.93723  0.96188  1.0000
  H   H21       1.0  0.85163  0.69607  0.46207  1.0000
  H   H22       1.0  0.64837  0.19607  0.03793  1.0000
  H   H23       1.0  0.14837  0.30393  0.53793  1.0000
  H   H24       1.0  0.35163  0.80393  0.96207  1.0000
  H   H25       1.0  0.69201  0.55028  0.03417  1.0000
  H   H26       1.0  0.80799  0.05028  0.46583  1.0000
  H   H27       1.0  0.30799  0.44971  0.96583  1.0000
  H   H28       1.0  0.19201  0.94972  0.53417  1.0000
  H   H29       1.0  0.66678  0.68255  0.03781  1.0000
  H   H30       1.0  0.83322  0.18255  0.46219  1.0000
  H   H31       1.0  0.33322  0.31745  0.96219  1.0000
  H   H32       1.0  0.16678  0.81745  0.53781  1.0000
  C   C1        1.0  0.05022  0.83933  0.29088  1.0000
  C   C2        1.0  0.44977  0.33933  0.20913  1.0000
  C   C3        1.0  0.94978  0.16067  0.70912  1.0000
  C   C4        1.0  0.55022  0.66067  0.79087  1.0000
  C   C5        1.0  0.39691  0.80239  0.21267  1.0000
  C   C6        1.0  0.10308  0.30239  0.28733  1.0000
  C   C7        1.0  0.60308  0.19761  0.78733  1.0000
  C   C8        1.0  0.89692  0.69761  0.71267  1.0000
  C   C9        1.0  0.44463  0.90555  0.20409  1.0000
  C   C10       1.0  0.05536  0.40555  0.29591  1.0000
  C   C11       1.0  0.55537  0.09445  0.79591  1.0000
  C   C12       1.0  0.94464  0.59445  0.70409  1.0000
  C   C13       1.0  0.09866  0.94250  0.28256  1.0000
  C   C14       1.0  0.40134  0.44250  0.21744  1.0000
  C   C15       1.0  0.90135  0.05750  0.71744  1.0000
  C   C16       1.0  0.59866  0.55750  0.78256  1.0000
  C   C17       1.0  0.57094  0.62491  0.37757  1.0000
  C   C18       1.0  0.92906  0.12491  0.12243  1.0000
  C   C19       1.0  0.42906  0.37509  0.62243  1.0000
  C   C20       1.0  0.07094  0.87509  0.87757  1.0000
  C   C21       1.0  0.72693  0.62697  0.45802  1.0000
  C   C22       1.0  0.77307  0.12697  0.04198  1.0000
  C   C23       1.0  0.27307  0.37303  0.54199  1.0000
  C   C24       1.0  0.22693  0.87303  0.95802  1.0000
  C   C25       1.0  0.55016  0.62369  0.52115  1.0000
  C   C26       1.0  0.94983  0.12369  0.97885  1.0000
  C   C27       1.0  0.44984  0.37631  0.47885  1.0000
  C   C28       1.0  0.05017  0.87631  0.02115  1.0000
  C   C29       1.0  0.01368  0.62112  0.10747  1.0000
  C   C30       1.0  0.48632  0.12112  0.39253  1.0000
  C   C31       1.0  0.98632  0.37888  0.89253  1.0000
  C   C32       1.0  0.51368  0.87888  0.60747  1.0000
  C   C33       1.0  0.81304  0.62022  0.03458  1.0000
  C   C34       1.0  0.68696  0.12022  0.46542  1.0000
  C   C35       1.0  0.18696  0.37978  0.96542  1.0000
  C   C36       1.0  0.31304  0.87978  0.53458  1.0000
  C   C37       1.0  0.95573  0.62725  0.96489  1.0000
  C   C38       1.0  0.54426  0.12725  0.53511  1.0000
  C   C39       1.0  0.04428  0.37275  0.03511  1.0000
  C   C40       1.0  0.45573  0.87275  0.46489  1.0000
  N   N1        1.0  0.19899  0.77035  0.25614  1.0000
  N   N2        1.0  0.30100  0.27035  0.24386  1.0000
  N   N3        1.0  0.80101  0.22965  0.74386  1.0000
  N   N4        1.0  0.69900  0.72965  0.75614  1.0000
  N   N5        1.0  0.29701  0.97456  0.23931  1.0000
  N   N6        1.0  0.20300  0.47456  0.26069  1.0000
  N   N7        1.0  0.70300  0.02544  0.76069  1.0000
  N   N8        1.0  0.79701  0.52544  0.73931  1.0000
  N   N9        1.0  0.40402  0.62091  0.57102  1.0000
  N   N10       1.0  0.09598  0.12090  0.92898  1.0000
  N   N11       1.0  0.59598  0.37910  0.42898  1.0000
  N   N12       1.0  0.90402  0.87909  0.07102  1.0000
  N   N13       1.0  0.07751  0.63283  0.90993  1.0000
  N   N14       1.0  0.42249  0.13283  0.59007  1.0000
  N   N15       1.0  0.92250  0.36717  0.09007  1.0000
  N   N16       1.0  0.57751  0.86717  0.40993  1.0000
  O   O1        1.0  0.31026  0.62484  0.37643  1.0000
  O   O2        1.0  0.18974  0.12483  0.12357  1.0000
  O   O3        1.0  0.68974  0.37517  0.62357  1.0000
  O   O4        1.0  0.81026  0.87517  0.87643  1.0000
  O   O5        1.0  0.89180  0.62050  0.17067  1.0000
  O   O6        1.0  0.60820  0.12050  0.32933  1.0000
  O   O7        1.0  0.10820  0.37950  0.82933  1.0000
  O   O8        1.0  0.39180  0.87950  0.67067  1.0000
  O   O9        1.0  0.70573  0.62374  0.31930  1.0000
  O   O10       1.0  0.79427  0.12374  0.18070  1.0000
  O   O11       1.0  0.29427  0.37626  0.68070  1.0000
  O   O12       1.0  0.20573  0.87626  0.81930  1.0000
  O   O13       1.0  0.26349  0.62192  0.10123  1.0000
  O   O14       1.0  0.23651  0.12192  0.39877  1.0000
  O   O15       1.0  0.73651  0.37808  0.89877  1.0000
  O   O16       1.0  0.76349  0.87808  0.60123  1.0000
