data_image0
_chemical_formula_structural       Dy4H32C48N12O36
_chemical_formula_sum              "Dy4 H32 C48 N12 O36"
_cell_length_a       10.1228
_cell_length_b       11.3439
_cell_length_c       17.3983
_cell_angle_alpha    90
_cell_angle_beta     90
_cell_angle_gamma    110.085

_space_group_name_H-M_alt    "P 1"
_space_group_IT_number       1

loop_
  _space_group_symop_operation_xyz
  'x, y, z'

loop_
  _atom_site_type_symbol
  _atom_site_label
  _atom_site_symmetry_multiplicity
  _atom_site_fract_x
  _atom_site_fract_y
  _atom_site_fract_z
  _atom_site_occupancy
  Dy  Dy1       1.0  0.48414  0.31716  0.49337  1.0000
  Dy  Dy2       1.0  0.51586  0.18284  0.99337  1.0000
  Dy  Dy3       1.0  0.51586  0.68284  0.50663  1.0000
  Dy  Dy4       1.0  0.48414  0.81716  0.00663  1.0000
  H   H1        1.0  0.80901  0.47973  0.63156  1.0000
  H   H2        1.0  0.19099  0.02027  0.13156  1.0000
  H   H3        1.0  0.19099  0.52027  0.36844  1.0000
  H   H4        1.0  0.80901  0.97973  0.86844  1.0000
  H   H5        1.0  0.39889  0.84557  0.28511  1.0000
  H   H6        1.0  0.60111  0.65443  0.78511  1.0000
  H   H7        1.0  0.60111  0.15443  0.71489  1.0000
  H   H8        1.0  0.39889  0.34557  0.21489  1.0000
  H   H9        1.0  0.02441  0.20304  0.50358  1.0000
  H   H10       1.0  0.97559  0.29696  0.00358  1.0000
  H   H11       1.0  0.97559  0.79696  0.49642  1.0000
  H   H12       1.0  0.02441  0.70304  0.99642  1.0000
  H   H13       1.0  0.60830  0.20882  0.18124  1.0000
  H   H14       1.0  0.39170  0.29118  0.68124  1.0000
  H   H15       1.0  0.39170  0.79118  0.81876  1.0000
  H   H16       1.0  0.60830  0.70882  0.31876  1.0000
  H   H17       1.0  0.07470  0.55714  0.61295  1.0000
  H   H18       1.0  0.92530  0.94286  0.11295  1.0000
  H   H19       1.0  0.92530  0.44286  0.38705  1.0000
  H   H20       1.0  0.07470  0.05714  0.88705  1.0000
  H   H21       1.0  0.65793  0.29781  0.31521  1.0000
  H   H22       1.0  0.34207  0.20219  0.81521  1.0000
  H   H23       1.0  0.34207  0.70219  0.68479  1.0000
  H   H24       1.0  0.65793  0.79781  0.18479  1.0000
  H   H25       1.0  0.76380  0.14307  0.52315  1.0000
  H   H26       1.0  0.23620  0.35693  0.02315  1.0000
  H   H27       1.0  0.23620  0.85693  0.47685  1.0000
  H   H28       1.0  0.76380  0.64307  0.97685  1.0000
  H   H29       1.0  0.45229  0.95104  0.41394  1.0000
  H   H30       1.0  0.54771  0.54896  0.91394  1.0000
  H   H31       1.0  0.54771  0.04895  0.58606  1.0000
  H   H32       1.0  0.45229  0.45105  0.08606  1.0000
  C   C1        1.0  0.86526  0.42462  0.60452  1.0000
  C   C2        1.0  0.13474  0.07538  0.10452  1.0000
  C   C3        1.0  0.13474  0.57538  0.39548  1.0000
  C   C4        1.0  0.86526  0.92462  0.89548  1.0000
  C   C5        1.0  0.46836  0.96041  0.14445  1.0000
  C   C6        1.0  0.53164  0.53960  0.64445  1.0000
  C   C7        1.0  0.53164  0.03959  0.85555  1.0000
  C   C8        1.0  0.46836  0.46041  0.35555  1.0000
  C   C9        1.0  0.45323  0.94646  0.28859  1.0000
  C   C10       1.0  0.54677  0.55354  0.78859  1.0000
  C   C11       1.0  0.54677  0.05354  0.71141  1.0000
  C   C12       1.0  0.45323  0.44646  0.21141  1.0000
  C   C13       1.0  0.98184  0.26740  0.53235  1.0000
  C   C14       1.0  0.01816  0.23260  0.03235  1.0000
  C   C15       1.0  0.01816  0.73260  0.46765  1.0000
  C   C16       1.0  0.98184  0.76740  0.96765  1.0000
  C   C17       1.0  0.57065  0.14798  0.23080  1.0000
  C   C18       1.0  0.42935  0.35202  0.73080  1.0000
  C   C19       1.0  0.42935  0.85202  0.76920  1.0000
  C   C20       1.0  0.57065  0.64798  0.26920  1.0000
  C   C21       1.0  0.00912  0.46394  0.59390  1.0000
  C   C22       1.0  0.99088  0.03606  0.09390  1.0000
  C   C23       1.0  0.99088  0.53606  0.40610  1.0000
  C   C24       1.0  0.00912  0.96394  0.90610  1.0000
  C   C25       1.0  0.22375  0.43113  0.53623  1.0000
  C   C26       1.0  0.77625  0.06887  0.03623  1.0000
  C   C27       1.0  0.77625  0.56887  0.46377  1.0000
  C   C28       1.0  0.22375  0.93112  0.96377  1.0000
  C   C29       1.0  0.06988  0.38630  0.55602  1.0000
  C   C30       1.0  0.93012  0.11370  0.05602  1.0000
  C   C31       1.0  0.93012  0.61370  0.44398  1.0000
  C   C32       1.0  0.06988  0.88630  0.94398  1.0000
  C   C33       1.0  0.59990  0.19968  0.30334  1.0000
  C   C34       1.0  0.40010  0.30032  0.80334  1.0000
  C   C35       1.0  0.40011  0.80032  0.69666  1.0000
  C   C36       1.0  0.59989  0.69968  0.19666  1.0000
  C   C37       1.0  0.49579  0.01937  0.22226  1.0000
  C   C38       1.0  0.50421  0.48063  0.72226  1.0000
  C   C39       1.0  0.50421  0.98063  0.77774  1.0000
  C   C40       1.0  0.49579  0.51937  0.27774  1.0000
  C   C41       1.0  0.83825  0.23160  0.54290  1.0000
  C   C42       1.0  0.16175  0.26840  0.04290  1.0000
  C   C43       1.0  0.16175  0.76840  0.45710  1.0000
  C   C44       1.0  0.83825  0.73160  0.95710  1.0000
  C   C45       1.0  0.48160  0.00192  0.36023  1.0000
  C   C46       1.0  0.51840  0.49808  0.86023  1.0000
  C   C47       1.0  0.51840  0.99808  0.63977  1.0000
  C   C48       1.0  0.48160  0.50192  0.13977  1.0000
  N   N1        1.0  0.26620  0.08860  0.54118  1.0000
  N   N2        1.0  0.73380  0.41140  0.04118  1.0000
  N   N3        1.0  0.73380  0.91140  0.45882  1.0000
  N   N4        1.0  0.26620  0.58859  0.95882  1.0000
  N   N5        1.0  0.55358  0.12702  0.36696  1.0000
  N   N6        1.0  0.44642  0.37298  0.86696  1.0000
  N   N7        1.0  0.44642  0.87298  0.63304  1.0000
  N   N8        1.0  0.55358  0.62702  0.13304  1.0000
  N   N9        1.0  0.78114  0.31075  0.57726  1.0000
  N   N10       1.0  0.21886  0.18925  0.07726  1.0000
  N   N11       1.0  0.21886  0.68925  0.42274  1.0000
  N   N12       1.0  0.78114  0.81075  0.92274  1.0000
  O   O1        1.0  0.27029  0.34998  0.50832  1.0000
  O   O2        1.0  0.72971  0.15003  0.00832  1.0000
  O   O3        1.0  0.72971  0.65002  0.49168  1.0000
  O   O4        1.0  0.27029  0.84997  0.99168  1.0000
  O   O5        1.0  0.28739  0.11288  0.46945  1.0000
  O   O6        1.0  0.71261  0.38712  0.96945  1.0000
  O   O7        1.0  0.71261  0.88712  0.53055  1.0000
  O   O8        1.0  0.28739  0.61288  0.03055  1.0000
  O   O9        1.0  0.29268  0.54725  0.54692  1.0000
  O   O10       1.0  0.70732  0.95275  0.04692  1.0000
  O   O11       1.0  0.70732  0.45275  0.45308  1.0000
  O   O12       1.0  0.29268  0.04725  0.95308  1.0000
  O   O13       1.0  0.64385  0.27727  0.58443  1.0000
  O   O14       1.0  0.35615  0.22273  0.08443  1.0000
  O   O15       1.0  0.35615  0.72273  0.41557  1.0000
  O   O16       1.0  0.64385  0.77727  0.91557  1.0000
  O   O17       1.0  0.58117  0.17739  0.43596  1.0000
  O   O18       1.0  0.41883  0.32261  0.93596  1.0000
  O   O19       1.0  0.41883  0.82261  0.56404  1.0000
  O   O20       1.0  0.58117  0.67739  0.06404  1.0000
  O   O21       1.0  0.43681  0.84213  0.13843  1.0000
  O   O22       1.0  0.56319  0.65787  0.63843  1.0000
  O   O23       1.0  0.56318  0.15787  0.86157  1.0000
  O   O24       1.0  0.43681  0.34213  0.36157  1.0000
  O   O25       1.0  0.48191  0.03046  0.08556  1.0000
  O   O26       1.0  0.51809  0.46955  0.58556  1.0000
  O   O27       1.0  0.51809  0.96954  0.91444  1.0000
  O   O28       1.0  0.48191  0.53046  0.41444  1.0000
  O   O29       1.0  0.35397  0.16656  0.58750  1.0000
  O   O30       1.0  0.64603  0.33344  0.08750  1.0000
  O   O31       1.0  0.64603  0.83344  0.41250  1.0000
  O   O32       1.0  0.35397  0.66656  0.91250  1.0000
  O   O33       1.0  0.16996  0.99659  0.56574  1.0000
  O   O34       1.0  0.83004  0.50341  0.06574  1.0000
  O   O35       1.0  0.83004  0.00341  0.43426  1.0000
  O   O36       1.0  0.16996  0.49659  0.93426  1.0000
