data_image0
_chemical_formula_structural       Tb2Cu4H16C16N18O24
_chemical_formula_sum              "Tb2 Cu4 H16 C16 N18 O24"
_cell_length_a       7.25982
_cell_length_b       11.1745
_cell_length_c       11.813
_cell_angle_alpha    102.335
_cell_angle_beta     90.0029
_cell_angle_gamma    89.9973

_space_group_name_H-M_alt    "P 1"
_space_group_IT_number       1

loop_
  _space_group_symop_operation_xyz
  'x, y, z'

loop_
  _atom_site_type_symbol
  _atom_site_label
  _atom_site_symmetry_multiplicity
  _atom_site_fract_x
  _atom_site_fract_y
  _atom_site_fract_z
  _atom_site_occupancy
  Tb  Tb1       1.0  0.50088  0.25000  1.00000  1.0000
  Tb  Tb2       1.0  0.49912  0.75000  0.00000  1.0000
  Cu  Cu1       1.0  0.86136  0.88875  0.57465  1.0000
  Cu  Cu2       1.0  0.86135  0.61126  0.42534  1.0000
  Cu  Cu3       1.0  0.13863  0.11125  0.42535  1.0000
  Cu  Cu4       1.0  0.13865  0.38874  0.57466  1.0000
  H   H1        1.0  0.22917  0.05168  0.92759  1.0000
  H   H2        1.0  0.22918  0.44832  0.07240  1.0000
  H   H3        1.0  0.77083  0.94832  0.07241  1.0000
  H   H4        1.0  0.77082  0.55168  0.92760  1.0000
  H   H5        1.0  0.31102  0.03673  0.04772  1.0000
  H   H6        1.0  0.31103  0.46326  0.95228  1.0000
  H   H7        1.0  0.68899  0.96327  0.95228  1.0000
  H   H8        1.0  0.68897  0.53674  0.04772  1.0000
  H   H9        1.0  0.30872  0.27205  0.77259  1.0000
  H   H10       1.0  0.30871  0.22794  0.22740  1.0000
  H   H11       1.0  0.69128  0.72794  0.22741  1.0000
  H   H12       1.0  0.69129  0.77206  0.77260  1.0000
  H   H13       1.0  0.27013  0.13305  0.78052  1.0000
  H   H14       1.0  0.27015  0.36695  0.21947  1.0000
  H   H15       1.0  0.72986  0.86694  0.21948  1.0000
  H   H16       1.0  0.72985  0.63306  0.78054  1.0000
  C   C1        1.0  0.71732  0.04125  0.77595  1.0000
  C   C2        1.0  0.71734  0.45876  0.22403  1.0000
  C   C3        1.0  0.28267  0.95876  0.22405  1.0000
  C   C4        1.0  0.28266  0.54124  0.77596  1.0000
  C   C5        1.0  0.79269  0.35937  0.80964  1.0000
  C   C6        1.0  0.79273  0.14064  0.19037  1.0000
  C   C7        1.0  0.20731  0.64063  0.19036  1.0000
  C   C8        1.0  0.20727  0.85937  0.80963  1.0000
  C   C9        1.0  0.81550  0.12396  0.71366  1.0000
  C   C10       1.0  0.81558  0.37605  0.28631  1.0000
  C   C11       1.0  0.18451  0.87604  0.28635  1.0000
  C   C12       1.0  0.18442  0.62394  0.71368  1.0000
  C   C13       1.0  0.86117  0.24852  0.72646  1.0000
  C   C14       1.0  0.86125  0.25149  0.27353  1.0000
  C   C15       1.0  0.13883  0.75148  0.27355  1.0000
  C   C16       1.0  0.13876  0.74851  0.72647  1.0000
  N   N1        1.0  0.90385  0.06419  0.61714  1.0000
  N   N2        1.0  0.90395  0.43583  0.38283  1.0000
  N   N3        1.0  0.09614  0.93581  0.38286  1.0000
  N   N4        1.0  0.09606  0.56417  0.61716  1.0000
  N   N5        1.0  0.97712  0.25580  0.63829  1.0000
  N   N6        1.0  0.97721  0.24421  0.36170  1.0000
  N   N7        1.0  0.02287  0.74420  0.36171  1.0000
  N   N8        1.0  0.02279  0.75579  0.63830  1.0000
  N   N9        1.0  0.69482  0.75003  0.49994  1.0000
  N   N10       1.0  0.30519  0.24997  0.50007  1.0000
  N   N11       1.0  0.00036  0.85625  0.42578  1.0000
  N   N12       1.0  0.00027  0.64374  0.57424  1.0000
  N   N13       1.0  0.99963  0.14375  0.57422  1.0000
  N   N14       1.0  0.99974  0.35626  0.42576  1.0000
  N   N15       1.0  0.52807  0.74998  0.50001  1.0000
  N   N16       1.0  0.47192  0.25003  0.49998  1.0000
  N   N17       1.0  0.36837  0.74995  0.50007  1.0000
  N   N18       1.0  0.63164  0.25007  0.49992  1.0000
  O   O1        1.0  0.65279  0.07613  0.87660  1.0000
  O   O2        1.0  0.65277  0.42387  0.12339  1.0000
  O   O3        1.0  0.34722  0.92388  0.12341  1.0000
  O   O4        1.0  0.34723  0.57613  0.87660  1.0000
  O   O5        1.0  0.27994  0.09977  0.00256  1.0000
  O   O6        1.0  0.27993  0.40022  0.99743  1.0000
  O   O7        1.0  0.72006  0.90023  0.99744  1.0000
  O   O8        1.0  0.72007  0.59978  0.00257  1.0000
  O   O9        1.0  0.35537  0.20197  0.80213  1.0000
  O   O10       1.0  0.35539  0.29802  0.19788  1.0000
  O   O11       1.0  0.64462  0.79802  0.19788  1.0000
  O   O12       1.0  0.64461  0.70198  0.80212  1.0000
  O   O13       1.0  0.68236  0.33921  0.88734  1.0000
  O   O14       1.0  0.68238  0.16079  0.11266  1.0000
  O   O15       1.0  0.31764  0.66079  0.11266  1.0000
  O   O16       1.0  0.31762  0.83921  0.88733  1.0000
  O   O17       1.0  0.71134  0.92803  0.72129  1.0000
  O   O18       1.0  0.71134  0.57196  0.27870  1.0000
  O   O19       1.0  0.28866  0.07197  0.27872  1.0000
  O   O20       1.0  0.28866  0.42803  0.72130  1.0000
  O   O21       1.0  0.84441  0.46423  0.79877  1.0000
  O   O22       1.0  0.84445  0.03577  0.20124  1.0000
  O   O23       1.0  0.15560  0.53577  0.20123  1.0000
  O   O24       1.0  0.15555  0.96423  0.79876  1.0000
