data_image0
_chemical_formula_structural       Sm2Cu4H16C16N18O24
_chemical_formula_sum              "Sm2 Cu4 H16 C16 N18 O24"
_cell_length_a       7.30579
_cell_length_b       11.2029
_cell_length_c       11.8794
_cell_angle_alpha    101.894
_cell_angle_beta     90.0001
_cell_angle_gamma    89.9995

_space_group_name_H-M_alt    "P 1"
_space_group_IT_number       1

loop_
  _space_group_symop_operation_xyz
  'x, y, z'

loop_
  _atom_site_type_symbol
  _atom_site_label
  _atom_site_symmetry_multiplicity
  _atom_site_fract_x
  _atom_site_fract_y
  _atom_site_fract_z
  _atom_site_occupancy
  Sm  Sm1       1.0  0.49816  0.25000  0.50000  1.0000
  Sm  Sm2       1.0  0.50184  0.75000  0.50000  1.0000
  Cu  Cu1       1.0  0.13758  0.88822  0.07462  1.0000
  Cu  Cu2       1.0  0.13759  0.61179  0.92538  1.0000
  Cu  Cu3       1.0  0.86241  0.11179  0.92538  1.0000
  Cu  Cu4       1.0  0.86241  0.38821  0.07461  1.0000
  H   H1        1.0  0.77378  0.04908  0.42093  1.0000
  H   H2        1.0  0.77378  0.45092  0.57908  1.0000
  H   H3        1.0  0.22622  0.95092  0.57908  1.0000
  H   H4        1.0  0.22623  0.54908  0.42093  1.0000
  H   H5        1.0  0.69885  0.03477  0.54227  1.0000
  H   H6        1.0  0.69885  0.46523  0.45773  1.0000
  H   H7        1.0  0.30115  0.96523  0.45773  1.0000
  H   H8        1.0  0.30116  0.53477  0.54227  1.0000
  H   H9        1.0  0.67793  0.28467  0.27065  1.0000
  H   H10       1.0  0.67793  0.21533  0.72935  1.0000
  H   H11       1.0  0.32208  0.71533  0.72935  1.0000
  H   H12       1.0  0.32207  0.78466  0.27065  1.0000
  H   H13       1.0  0.72893  0.14720  0.27539  1.0000
  H   H14       1.0  0.72893  0.35280  0.72461  1.0000
  H   H15       1.0  0.27107  0.85280  0.72461  1.0000
  H   H16       1.0  0.27107  0.64720  0.27539  1.0000
  C   C1        1.0  0.20146  0.35751  0.30795  1.0000
  C   C2        1.0  0.20147  0.14249  0.69205  1.0000
  C   C3        1.0  0.79854  0.64249  0.69205  1.0000
  C   C4        1.0  0.79854  0.85751  0.30795  1.0000
  C   C5        1.0  0.28129  0.03982  0.27456  1.0000
  C   C6        1.0  0.28131  0.46019  0.72544  1.0000
  C   C7        1.0  0.71869  0.96018  0.72544  1.0000
  C   C8        1.0  0.71869  0.53981  0.27456  1.0000
  C   C9        1.0  0.13686  0.24666  0.22507  1.0000
  C   C10       1.0  0.13686  0.25334  0.77492  1.0000
  C   C11       1.0  0.86313  0.75334  0.77493  1.0000
  C   C12       1.0  0.86313  0.74666  0.22508  1.0000
  C   C13       1.0  0.18305  0.12261  0.21265  1.0000
  C   C14       1.0  0.18306  0.37739  0.78735  1.0000
  C   C15       1.0  0.81694  0.87739  0.78735  1.0000
  C   C16       1.0  0.81694  0.62261  0.21265  1.0000
  N   N1        1.0  0.02271  0.25423  0.13687  1.0000
  N   N2        1.0  0.02271  0.24578  0.86312  1.0000
  N   N3        1.0  0.97728  0.74578  0.86312  1.0000
  N   N4        1.0  0.97729  0.75422  0.13688  1.0000
  N   N5        1.0  0.09662  0.06345  0.11632  1.0000
  N   N6        1.0  0.09661  0.43655  0.88367  1.0000
  N   N7        1.0  0.90338  0.93655  0.88368  1.0000
  N   N8        1.0  0.90339  0.56345  0.11633  1.0000
  N   N9        1.0  0.00120  0.14314  0.07323  1.0000
  N   N10       1.0  0.00119  0.35686  0.92676  1.0000
  N   N11       1.0  0.99880  0.85686  0.92677  1.0000
  N   N12       1.0  0.99881  0.64314  0.07323  1.0000
  N   N13       1.0  0.30339  0.75000  0.99999  1.0000
  N   N14       1.0  0.69661  0.25000  0.00000  1.0000
  N   N15       1.0  0.46921  0.75000  0.00000  1.0000
  N   N16       1.0  0.53080  0.25000  0.99999  1.0000
  N   N17       1.0  0.62792  0.75000  0.00001  1.0000
  N   N18       1.0  0.37208  0.25000  0.99999  1.0000
  O   O1        1.0  0.30627  0.33802  0.38810  1.0000
  O   O2        1.0  0.30628  0.16198  0.61190  1.0000
  O   O3        1.0  0.69373  0.66198  0.61190  1.0000
  O   O4        1.0  0.69373  0.83802  0.38811  1.0000
  O   O5        1.0  0.34611  0.07339  0.37416  1.0000
  O   O6        1.0  0.34614  0.42661  0.62584  1.0000
  O   O7        1.0  0.65387  0.92661  0.62585  1.0000
  O   O8        1.0  0.65387  0.57338  0.37415  1.0000
  O   O9        1.0  0.72599  0.09707  0.49603  1.0000
  O   O10       1.0  0.72599  0.40292  0.50397  1.0000
  O   O11       1.0  0.27401  0.90292  0.50397  1.0000
  O   O12       1.0  0.27401  0.59707  0.49603  1.0000
  O   O13       1.0  0.63959  0.21205  0.29985  1.0000
  O   O14       1.0  0.63959  0.28795  0.70016  1.0000
  O   O15       1.0  0.36042  0.78795  0.70016  1.0000
  O   O16       1.0  0.36041  0.71205  0.29984  1.0000
  O   O17       1.0  0.15226  0.46163  0.29463  1.0000
  O   O18       1.0  0.15227  0.03838  0.70537  1.0000
  O   O19       1.0  0.84773  0.53838  0.70538  1.0000
  O   O20       1.0  0.84773  0.96162  0.29462  1.0000
  O   O21       1.0  0.28778  0.92735  0.21964  1.0000
  O   O22       1.0  0.28779  0.57265  0.78037  1.0000
  O   O23       1.0  0.71220  0.07265  0.78037  1.0000
  O   O24       1.0  0.71221  0.42735  0.21963  1.0000
