data_image0
_chemical_formula_structural       Dy2Cu4H16C16N18O24
_chemical_formula_sum              "Dy2 Cu4 H16 C16 N18 O24"
_cell_length_a       7.27661
_cell_length_b       11.1721
_cell_length_c       11.7902
_cell_angle_alpha    101.957
_cell_angle_beta     89.8774
_cell_angle_gamma    90.0771

_space_group_name_H-M_alt    "P 1"
_space_group_IT_number       1

loop_
  _space_group_symop_operation_xyz
  'x, y, z'

loop_
  _atom_site_type_symbol
  _atom_site_label
  _atom_site_symmetry_multiplicity
  _atom_site_fract_x
  _atom_site_fract_y
  _atom_site_fract_z
  _atom_site_occupancy
  Dy  Dy1       1.0  0.49585  0.24987  0.49983  1.0000
  Dy  Dy2       1.0  0.50426  0.75016  0.50019  1.0000
  Cu  Cu1       1.0  0.13895  0.88857  0.07444  1.0000
  Cu  Cu2       1.0  0.13895  0.61157  0.92489  1.0000
  Cu  Cu3       1.0  0.86196  0.11146  0.92537  1.0000
  Cu  Cu4       1.0  0.85961  0.38829  0.07467  1.0000
  H   H1        1.0  0.76533  0.05109  0.42250  1.0000
  H   H2        1.0  0.76460  0.44889  0.57745  1.0000
  H   H3        1.0  0.23509  0.94887  0.57779  1.0000
  H   H4        1.0  0.23476  0.55125  0.42245  1.0000
  H   H5        1.0  0.68661  0.03672  0.54391  1.0000
  H   H6        1.0  0.68657  0.46339  0.45618  1.0000
  H   H7        1.0  0.31304  0.96320  0.45617  1.0000
  H   H8        1.0  0.31308  0.53684  0.54367  1.0000
  H   H9        1.0  0.67579  0.28446  0.27304  1.0000
  H   H10       1.0  0.67677  0.21585  0.72647  1.0000
  H   H11       1.0  0.32303  0.71576  0.72671  1.0000
  H   H12       1.0  0.32434  0.78476  0.27335  1.0000
  H   H13       1.0  0.72549  0.14646  0.27788  1.0000
  H   H14       1.0  0.72445  0.35427  0.72168  1.0000
  H   H15       1.0  0.27480  0.85410  0.72213  1.0000
  H   H16       1.0  0.27495  0.64671  0.27841  1.0000
  C   C1        1.0  0.28461  0.04048  0.27553  1.0000
  C   C2        1.0  0.28363  0.45933  0.72365  1.0000
  C   C3        1.0  0.71607  0.95950  0.72426  1.0000
  C   C4        1.0  0.71607  0.54075  0.27635  1.0000
  C   C5        1.0  0.18559  0.12327  0.21349  1.0000
  C   C6        1.0  0.18322  0.37683  0.78561  1.0000
  C   C7        1.0  0.81487  0.87679  0.78647  1.0000
  C   C8        1.0  0.81690  0.62306  0.21440  1.0000
  C   C9        1.0  0.13897  0.24760  0.22645  1.0000
  C   C10       1.0  0.13669  0.25252  0.77289  1.0000
  C   C11       1.0  0.86124  0.75244  0.77368  1.0000
  C   C12       1.0  0.86370  0.74733  0.22707  1.0000
  C   C13       1.0  0.20480  0.35809  0.31042  1.0000
  C   C14       1.0  0.20392  0.14184  0.68971  1.0000
  C   C15       1.0  0.79472  0.64191  0.69001  1.0000
  C   C16       1.0  0.79682  0.85802  0.31043  1.0000
  N   N1        1.0  0.02382  0.25531  0.13808  1.0000
  N   N2        1.0  0.02063  0.24505  0.86117  1.0000
  N   N3        1.0  0.97641  0.74485  0.86205  1.0000
  N   N4        1.0  0.97949  0.75467  0.13862  1.0000
  N   N5        1.0  0.00221  0.14359  0.07385  1.0000
  N   N6        1.0  0.99826  0.35663  0.92521  1.0000
  N   N7        1.0  0.99819  0.85655  0.92614  1.0000
  N   N8        1.0  0.00140  0.64312  0.07456  1.0000
  N   N9        1.0  0.09823  0.06399  0.11671  1.0000
  N   N10       1.0  0.09518  0.43640  0.88216  1.0000
  N   N11       1.0  0.90232  0.93613  0.88319  1.0000
  N   N12       1.0  0.90452  0.56338  0.11771  1.0000
  N   N13       1.0  0.30490  0.75083  0.99798  1.0000
  N   N14       1.0  0.69458  0.24847  0.00257  1.0000
  N   N15       1.0  0.47120  0.74851  0.00067  1.0000
  N   N16       1.0  0.52822  0.25071  0.99944  1.0000
  N   N17       1.0  0.63045  0.74629  0.00259  1.0000
  N   N18       1.0  0.36906  0.25246  0.99697  1.0000
  O   O1        1.0  0.30926  0.33726  0.39082  1.0000
  O   O2        1.0  0.30873  0.16233  0.60903  1.0000
  O   O3        1.0  0.69041  0.66274  0.60956  1.0000
  O   O4        1.0  0.69167  0.83750  0.39093  1.0000
  O   O5        1.0  0.35071  0.07423  0.37550  1.0000
  O   O6        1.0  0.35049  0.42547  0.62377  1.0000
  O   O7        1.0  0.64962  0.92564  0.62441  1.0000
  O   O8        1.0  0.64954  0.57475  0.37632  1.0000
  O   O9        1.0  0.71496  0.09942  0.49755  1.0000
  O   O10       1.0  0.71513  0.40055  0.50222  1.0000
  O   O11       1.0  0.28495  0.90052  0.50258  1.0000
  O   O12       1.0  0.28467  0.59965  0.49759  1.0000
  O   O13       1.0  0.29027  0.92752  0.22039  1.0000
  O   O14       1.0  0.28980  0.57237  0.77870  1.0000
  O   O15       1.0  0.71113  0.07256  0.77915  1.0000
  O   O16       1.0  0.70912  0.42780  0.22121  1.0000
  O   O17       1.0  0.63627  0.21184  0.30239  1.0000
  O   O18       1.0  0.63595  0.28828  0.69747  1.0000
  O   O19       1.0  0.36343  0.78835  0.69763  1.0000
  O   O20       1.0  0.36438  0.71215  0.30238  1.0000
  O   O21       1.0  0.15743  0.46306  0.29772  1.0000
  O   O22       1.0  0.15730  0.03695  0.70333  1.0000
  O   O23       1.0  0.84153  0.53693  0.70300  1.0000
  O   O24       1.0  0.84409  0.96288  0.29707  1.0000
