data_image0
_chemical_formula_structural       Cd2H24C36S4I4N12
_chemical_formula_sum              "Cd2 H24 C36 S4 I4 N12"
_cell_length_a       9.97712
_cell_length_b       10.5305
_cell_length_c       11.6439
_cell_angle_alpha    93.171
_cell_angle_beta     109.9
_cell_angle_gamma    98.0816

_space_group_name_H-M_alt    "P 1"
_space_group_IT_number       1

loop_
  _space_group_symop_operation_xyz
  'x, y, z'

loop_
  _atom_site_type_symbol
  _atom_site_label
  _atom_site_symmetry_multiplicity
  _atom_site_fract_x
  _atom_site_fract_y
  _atom_site_fract_z
  _atom_site_occupancy
  Cd  Cd1       1.0  0.79786  0.17189  0.96223  1.0000
  Cd  Cd2       1.0  0.20214  0.82811  0.03778  1.0000
  H   H1        1.0  0.78581  0.56013  0.26949  1.0000
  H   H2        1.0  0.21420  0.43987  0.73051  1.0000
  H   H3        1.0  0.21598  0.65036  0.27405  1.0000
  H   H4        1.0  0.78402  0.34964  0.72594  1.0000
  H   H5        1.0  0.88501  0.42473  0.14458  1.0000
  H   H6        1.0  0.11499  0.57527  0.85542  1.0000
  H   H7        1.0  0.48251  0.19919  0.96510  1.0000
  H   H8        1.0  0.51749  0.80081  0.03490  1.0000
  H   H9        1.0  0.36641  0.32357  0.08153  1.0000
  H   H10       1.0  0.63359  0.67642  0.91847  1.0000
  H   H11       1.0  0.28660  0.50884  0.13207  1.0000
  H   H12       1.0  0.71340  0.49116  0.86793  1.0000
  H   H13       1.0  0.18705  0.99316  0.33074  1.0000
  H   H14       1.0  0.81295  0.00684  0.66926  1.0000
  H   H15       1.0  0.74401  0.87835  0.30834  1.0000
  H   H16       1.0  0.25599  0.12165  0.69166  1.0000
  H   H17       1.0  0.23618  0.83365  0.42936  1.0000
  H   H18       1.0  0.76382  0.16635  0.57064  1.0000
  H   H19       1.0  0.28158  0.67013  0.57837  1.0000
  H   H20       1.0  0.71842  0.32987  0.42163  1.0000
  H   H21       1.0  0.09646  0.11817  0.15515  1.0000
  H   H22       1.0  0.90354  0.88183  0.84484  1.0000
  H   H23       1.0  0.67084  0.00987  0.13300  1.0000
  H   H24       1.0  0.32917  0.99013  0.86699  1.0000
  C   C1        1.0  0.50919  0.53116  0.26083  1.0000
  C   C2        1.0  0.49081  0.46884  0.73917  1.0000
  C   C3        1.0  0.71512  0.48199  0.20173  1.0000
  C   C4        1.0  0.28488  0.51802  0.79827  1.0000
  C   C5        1.0  0.55285  0.65389  0.44083  1.0000
  C   C6        1.0  0.44714  0.34611  0.55917  1.0000
  C   C7        1.0  0.32609  0.62944  0.30053  1.0000
  C   C8        1.0  0.67391  0.37056  0.69947  1.0000
  C   C9        1.0  0.77064  0.40664  0.13320  1.0000
  C   C10       1.0  0.22936  0.59336  0.86680  1.0000
  C   C11       1.0  0.56781  0.45434  0.18481  1.0000
  C   C12       1.0  0.43219  0.54566  0.81519  1.0000
  C   C13       1.0  0.54514  0.28106  0.03260  1.0000
  C   C14       1.0  0.45486  0.71894  0.96741  1.0000
  C   C15       1.0  0.48120  0.35172  0.09729  1.0000
  C   C16       1.0  0.51880  0.64828  0.90272  1.0000
  C   C17       1.0  0.36540  0.55104  0.22106  1.0000
  C   C18       1.0  0.63460  0.44896  0.77894  1.0000
  C   C19       1.0  0.01683  0.83532  0.43004  1.0000
  C   C20       1.0  0.98317  0.16468  0.56996  1.0000
  C   C21       1.0  0.97184  0.92186  0.33326  1.0000
  C   C22       1.0  0.02816  0.07814  0.66674  1.0000
  C   C23       1.0  0.95543  0.70405  0.55905  1.0000
  C   C24       1.0  0.04457  0.29595  0.44095  1.0000
  C   C25       1.0  0.07130  0.99249  0.29029  1.0000
  C   C26       1.0  0.92870  0.00751  0.70971  1.0000
  C   C27       1.0  0.82523  0.93008  0.27703  1.0000
  C   C28       1.0  0.17477  0.06992  0.72297  1.0000
  C   C29       1.0  0.15316  0.79792  0.46618  1.0000
  C   C30       1.0  0.84684  0.20208  0.53382  1.0000
  C   C31       1.0  0.17920  0.70643  0.54983  1.0000
  C   C32       1.0  0.82080  0.29357  0.45017  1.0000
  C   C33       1.0  0.02176  0.06333  0.19180  1.0000
  C   C34       1.0  0.97824  0.93667  0.80820  1.0000
  C   C35       1.0  0.78447  0.00275  0.17888  1.0000
  C   C36       1.0  0.21553  0.99725  0.82112  1.0000
  S   S1        1.0  0.66752  0.72636  0.58992  1.0000
  S   S2        1.0  0.33248  0.27364  0.41008  1.0000
  S   S3        1.0  0.83833  0.63167  0.63165  1.0000
  S   S4        1.0  0.16167  0.36833  0.36835  1.0000
  I   I1        1.0  0.04651  0.30486  0.94826  1.0000
  I   I2        1.0  0.95349  0.69514  0.05174  1.0000
  I   I3        1.0  0.57965  0.00831  0.78532  1.0000
  I   I4        1.0  0.42035  0.99169  0.21468  1.0000
  N   N1        1.0  0.68735  0.30757  0.05030  1.0000
  N   N2        1.0  0.31265  0.69243  0.94970  1.0000
  N   N3        1.0  0.60415  0.58399  0.37200  1.0000
  N   N4        1.0  0.39585  0.41601  0.62800  1.0000
  N   N5        1.0  0.41884  0.68165  0.41157  1.0000
  N   N6        1.0  0.58116  0.31835  0.58843  1.0000
  N   N7        1.0  0.91666  0.78787  0.47793  1.0000
  N   N8        1.0  0.08334  0.21213  0.52207  1.0000
  N   N9        1.0  0.08042  0.65806  0.59689  1.0000
  N   N10       1.0  0.91958  0.34194  0.40311  1.0000
  N   N11       1.0  0.88045  0.06726  0.13574  1.0000
  N   N12       1.0  0.11955  0.93274  0.86426  1.0000
