data_image0
_chemical_formula_structural       Sn4H64C44O8
_chemical_formula_sum              "Sn4 H64 C44 O8"
_cell_length_a       10.0947
_cell_length_b       10.3385
_cell_length_c       12.833
_cell_angle_alpha    113.03
_cell_angle_beta     90
_cell_angle_gamma    90

_space_group_name_H-M_alt    "P 1"
_space_group_IT_number       1

loop_
  _space_group_symop_operation_xyz
  'x, y, z'

loop_
  _atom_site_type_symbol
  _atom_site_label
  _atom_site_symmetry_multiplicity
  _atom_site_fract_x
  _atom_site_fract_y
  _atom_site_fract_z
  _atom_site_occupancy
  Sn  Sn1       1.0  0.40646  0.33083  0.77212  1.0000
  Sn  Sn2       1.0  0.90646  0.16917  0.72789  1.0000
  Sn  Sn3       1.0  0.59354  0.66917  0.22788  1.0000
  Sn  Sn4       1.0  0.09354  0.83083  0.27211  1.0000
  H   H1        1.0  0.55487  0.73436  0.82377  1.0000
  H   H2        1.0  0.05487  0.76564  0.67624  1.0000
  H   H3        1.0  0.44512  0.26564  0.17623  1.0000
  H   H4        1.0  0.94513  0.23435  0.32376  1.0000
  H   H5        1.0  0.37469  0.92125  0.61207  1.0000
  H   H6        1.0  0.87470  0.57874  0.88792  1.0000
  H   H7        1.0  0.62530  0.07874  0.38793  1.0000
  H   H8        1.0  0.12531  0.42126  0.11207  1.0000
  H   H9        1.0  0.54630  0.76596  0.64133  1.0000
  H   H10       1.0  0.04630  0.73404  0.85867  1.0000
  H   H11       1.0  0.45369  0.23403  0.35867  1.0000
  H   H12       1.0  0.95370  0.26596  0.14132  1.0000
  H   H13       1.0  0.39474  0.86064  0.97660  1.0000
  H   H14       1.0  0.89475  0.63935  0.52340  1.0000
  H   H15       1.0  0.60526  0.13936  0.02341  1.0000
  H   H16       1.0  0.10526  0.36064  0.47659  1.0000
  H   H17       1.0  0.21025  0.15256  0.00620  1.0000
  H   H18       1.0  0.71025  0.34744  0.49380  1.0000
  H   H19       1.0  0.78975  0.84744  0.99380  1.0000
  H   H20       1.0  0.28975  0.65256  0.50620  1.0000
  H   H21       1.0  0.21215  0.00935  0.04893  1.0000
  H   H22       1.0  0.71215  0.49065  0.45107  1.0000
  H   H23       1.0  0.78785  0.99066  0.95108  1.0000
  H   H24       1.0  0.28784  0.50934  0.54892  1.0000
  H   H25       1.0  0.09357  0.01530  0.94784  1.0000
  H   H26       1.0  0.59358  0.48470  0.55216  1.0000
  H   H27       1.0  0.90643  0.98470  0.05216  1.0000
  H   H28       1.0  0.40642  0.51530  0.44784  1.0000
  H   H29       1.0  0.17741  0.45335  0.74950  1.0000
  H   H30       1.0  0.67741  0.04665  0.75050  1.0000
  H   H31       1.0  0.82258  0.54666  0.25051  1.0000
  H   H32       1.0  0.32259  0.95335  0.24949  1.0000
  H   H33       1.0  0.30828  0.58110  0.78366  1.0000
  H   H34       1.0  0.80828  0.91890  0.71634  1.0000
  H   H35       1.0  0.69172  0.41891  0.21635  1.0000
  H   H36       1.0  0.19173  0.08110  0.28365  1.0000
  H   H37       1.0  0.23384  0.53710  0.89157  1.0000
  H   H38       1.0  0.73384  0.96290  0.60843  1.0000
  H   H39       1.0  0.76616  0.46290  0.10843  1.0000
  H   H40       1.0  0.26617  0.03710  0.39156  1.0000
  H   H41       1.0  0.46682  0.18191  0.89790  1.0000
  H   H42       1.0  0.96682  0.31809  0.60210  1.0000
  H   H43       1.0  0.53317  0.81810  0.10210  1.0000
  H   H44       1.0  0.03318  0.68191  0.39789  1.0000
  H   H45       1.0  0.43978  0.36087  0.99150  1.0000
  H   H46       1.0  0.93979  0.13913  0.50850  1.0000
  H   H47       1.0  0.56021  0.63914  0.00850  1.0000
  H   H48       1.0  0.06022  0.86086  0.49150  1.0000
  H   H49       1.0  0.59349  0.31040  0.91620  1.0000
  H   H50       1.0  0.09349  0.18960  0.58381  1.0000
  H   H51       1.0  0.40651  0.68960  0.08381  1.0000
  H   H52       1.0  0.90651  0.81040  0.41619  1.0000
  H   H53       1.0  0.34596  0.14146  0.56170  1.0000
  H   H54       1.0  0.84596  0.35854  0.93830  1.0000
  H   H55       1.0  0.65404  0.85854  0.43830  1.0000
  H   H56       1.0  0.15404  0.64147  0.06169  1.0000
  H   H57       1.0  0.51585  0.11799  0.59186  1.0000
  H   H58       1.0  0.01586  0.38201  0.90815  1.0000
  H   H59       1.0  0.48415  0.88201  0.40815  1.0000
  H   H60       1.0  0.98414  0.61799  0.09185  1.0000
  H   H61       1.0  0.47052  0.25949  0.55198  1.0000
  H   H62       1.0  0.97052  0.24051  0.94802  1.0000
  H   H63       1.0  0.52948  0.74051  0.44802  1.0000
  H   H64       1.0  0.02948  0.75950  0.05198  1.0000
  C   C1        1.0  0.28810  0.97725  0.77779  1.0000
  C   C2        1.0  0.78810  0.52275  0.72220  1.0000
  C   C3        1.0  0.71189  0.02276  0.22221  1.0000
  C   C4        1.0  0.21190  0.47725  0.27779  1.0000
  C   C5        1.0  0.18629  0.07161  0.75894  1.0000
  C   C6        1.0  0.68629  0.42838  0.74106  1.0000
  C   C7        1.0  0.81371  0.92838  0.24106  1.0000
  C   C8        1.0  0.31371  0.57162  0.25894  1.0000
  C   C9        1.0  0.48136  0.80393  0.81111  1.0000
  C   C10       1.0  0.98136  0.69607  0.68889  1.0000
  C   C11       1.0  0.51864  0.19606  0.18889  1.0000
  C   C12       1.0  0.01864  0.30393  0.31110  1.0000
  C   C13       1.0  0.37919  0.90733  0.69198  1.0000
  C   C14       1.0  0.87919  0.59267  0.80802  1.0000
  C   C15       1.0  0.62081  0.09267  0.30802  1.0000
  C   C16       1.0  0.12081  0.40733  0.19197  1.0000
  C   C17       1.0  0.47555  0.82026  0.70840  1.0000
  C   C18       1.0  0.97555  0.67974  0.79160  1.0000
  C   C19       1.0  0.52445  0.17973  0.29160  1.0000
  C   C20       1.0  0.02445  0.32026  0.20839  1.0000
  C   C21       1.0  0.29215  0.96113  0.88194  1.0000
  C   C22       1.0  0.79216  0.53886  0.61806  1.0000
  C   C23       1.0  0.70785  0.03886  0.11806  1.0000
  C   C24       1.0  0.20785  0.46113  0.38193  1.0000
  C   C25       1.0  0.39021  0.87394  0.89645  1.0000
  C   C26       1.0  0.89022  0.62605  0.60355  1.0000
  C   C27       1.0  0.60977  0.12605  0.10355  1.0000
  C   C28       1.0  0.10978  0.37394  0.39644  1.0000
  C   C29       1.0  0.19701  0.03804  0.97604  1.0000
  C   C30       1.0  0.69701  0.46196  0.52396  1.0000
  C   C31       1.0  0.80300  0.96197  0.02396  1.0000
  C   C32       1.0  0.30299  0.53804  0.47604  1.0000
  C   C33       1.0  0.26468  0.49581  0.80260  1.0000
  C   C34       1.0  0.76468  0.00419  0.69741  1.0000
  C   C35       1.0  0.73532  0.50419  0.19741  1.0000
  C   C36       1.0  0.23532  0.99581  0.30259  1.0000
  C   C37       1.0  0.48650  0.29174  0.91207  1.0000
  C   C38       1.0  0.98650  0.20826  0.58794  1.0000
  C   C39       1.0  0.51349  0.70826  0.08793  1.0000
  C   C40       1.0  0.01350  0.79174  0.41206  1.0000
  C   C41       1.0  0.43880  0.19506  0.59793  1.0000
  C   C42       1.0  0.93880  0.30493  0.90208  1.0000
  C   C43       1.0  0.56120  0.80494  0.40208  1.0000
  C   C44       1.0  0.06120  0.69507  0.09792  1.0000
  O   O1        1.0  0.21636  0.19467  0.76838  1.0000
  O   O2        1.0  0.71636  0.30533  0.73163  1.0000
  O   O3        1.0  0.78365  0.80534  0.23163  1.0000
  O   O4        1.0  0.28364  0.69467  0.26837  1.0000
  O   O5        1.0  0.06886  0.02162  0.73430  1.0000
  O   O6        1.0  0.56885  0.47839  0.76570  1.0000
  O   O7        1.0  0.93114  0.97839  0.26570  1.0000
  O   O8        1.0  0.43115  0.52162  0.23430  1.0000
