data_image0
_chemical_formula_structural       Zn4H36C40N36
_chemical_formula_sum              "Zn4 H36 C40 N36"
_cell_length_a       6.80205
_cell_length_b       11.6744
_cell_length_c       16.0105
_cell_angle_alpha    90
_cell_angle_beta     90
_cell_angle_gamma    99.9936

_space_group_name_H-M_alt    "P 1"
_space_group_IT_number       1

loop_
  _space_group_symop_operation_xyz
  'x, y, z'

loop_
  _atom_site_type_symbol
  _atom_site_label
  _atom_site_symmetry_multiplicity
  _atom_site_fract_x
  _atom_site_fract_y
  _atom_site_fract_z
  _atom_site_occupancy
  Zn  Zn1       1.0  0.81289  0.15474  0.32958  1.0000
  Zn  Zn2       1.0  0.68711  0.34526  0.82958  1.0000
  Zn  Zn3       1.0  0.18711  0.84526  0.67042  1.0000
  Zn  Zn4       1.0  0.31288  0.65474  0.17042  1.0000
  H   H1        1.0  0.95360  0.00908  0.13199  1.0000
  H   H2        1.0  0.54640  0.49092  0.63199  1.0000
  H   H3        1.0  0.04640  0.99093  0.86801  1.0000
  H   H4        1.0  0.45360  0.50907  0.36801  1.0000
  H   H5        1.0  0.45184  0.97840  0.31347  1.0000
  H   H6        1.0  0.04816  0.52160  0.81347  1.0000
  H   H7        1.0  0.54815  0.02160  0.68653  1.0000
  H   H8        1.0  0.95185  0.47841  0.18653  1.0000
  H   H9        1.0  0.12999  0.95490  0.23631  1.0000
  H   H10       1.0  0.37001  0.54510  0.73632  1.0000
  H   H11       1.0  0.87001  0.04510  0.76368  1.0000
  H   H12       1.0  0.62999  0.45490  0.26369  1.0000
  H   H13       1.0  0.38394  0.25684  0.08981  1.0000
  H   H14       1.0  0.11606  0.24316  0.58981  1.0000
  H   H15       1.0  0.61606  0.74317  0.91019  1.0000
  H   H16       1.0  0.88394  0.75683  0.41019  1.0000
  H   H17       1.0  0.68598  0.27119  0.17451  1.0000
  H   H18       1.0  0.81402  0.22881  0.67451  1.0000
  H   H19       1.0  0.31402  0.72881  0.82549  1.0000
  H   H20       1.0  0.18598  0.77119  0.32549  1.0000
  H   H21       1.0  0.99453  0.41460  0.96254  1.0000
  H   H22       1.0  0.50547  0.08540  0.46254  1.0000
  H   H23       1.0  0.00547  0.58540  0.03746  1.0000
  H   H24       1.0  0.49453  0.91460  0.53746  1.0000
  H   H25       1.0  0.14367  0.32612  0.07947  1.0000
  H   H26       1.0  0.35633  0.17388  0.57947  1.0000
  H   H27       1.0  0.85633  0.67388  0.92053  1.0000
  H   H28       1.0  0.64367  0.82612  0.42053  1.0000
  H   H29       1.0  0.74205  0.00383  0.02342  1.0000
  H   H30       1.0  0.75795  0.49617  0.52342  1.0000
  H   H31       1.0  0.25795  0.99617  0.97657  1.0000
  H   H32       1.0  0.24205  0.50383  0.47658  1.0000
  H   H33       1.0  0.60067  0.11017  0.90970  1.0000
  H   H34       1.0  0.89933  0.38983  0.40970  1.0000
  H   H35       1.0  0.39933  0.88983  0.09030  1.0000
  H   H36       1.0  0.10067  0.61017  0.59030  1.0000
  C   C1        1.0  0.42834  0.03958  0.26468  1.0000
  C   C2        1.0  0.07166  0.46042  0.76468  1.0000
  C   C3        1.0  0.57166  0.96042  0.73532  1.0000
  C   C4        1.0  0.92834  0.53958  0.23532  1.0000
  C   C5        1.0  0.25026  0.02645  0.22176  1.0000
  C   C6        1.0  0.24975  0.47355  0.72176  1.0000
  C   C7        1.0  0.74974  0.97355  0.77824  1.0000
  C   C8        1.0  0.75026  0.52645  0.27824  1.0000
  C   C9        1.0  0.22253  0.10705  0.15891  1.0000
  C   C10       1.0  0.27747  0.39295  0.65892  1.0000
  C   C11       1.0  0.77747  0.89295  0.84108  1.0000
  C   C12       1.0  0.72253  0.60705  0.34109  1.0000
  C   C13       1.0  0.38618  0.19503  0.14020  1.0000
  C   C14       1.0  0.11382  0.30497  0.64021  1.0000
  C   C15       1.0  0.61382  0.80497  0.85979  1.0000
  C   C16       1.0  0.88618  0.69503  0.35980  1.0000
  C   C17       1.0  0.55888  0.20260  0.18717  1.0000
  C   C18       1.0  0.94112  0.29740  0.68717  1.0000
  C   C19       1.0  0.44112  0.79740  0.81283  1.0000
  C   C20       1.0  0.05888  0.70260  0.31283  1.0000
  C   C21       1.0  0.94235  0.32333  0.97738  1.0000
  C   C22       1.0  0.55765  0.17667  0.47738  1.0000
  C   C23       1.0  0.05765  0.67667  0.02262  1.0000
  C   C24       1.0  0.44235  0.82333  0.52262  1.0000
  C   C25       1.0  0.03067  0.27179  0.04202  1.0000
  C   C26       1.0  0.46933  0.22821  0.54202  1.0000
  C   C27       1.0  0.96933  0.72821  0.95798  1.0000
  C   C28       1.0  0.53067  0.77179  0.45798  1.0000
  C   C29       1.0  0.96403  0.15304  0.05890  1.0000
  C   C30       1.0  0.53597  0.34696  0.55890  1.0000
  C   C31       1.0  0.03597  0.84696  0.94110  1.0000
  C   C32       1.0  0.46403  0.65304  0.44110  1.0000
  C   C33       1.0  0.80106  0.09528  0.01164  1.0000
  C   C34       1.0  0.69894  0.40472  0.51164  1.0000
  C   C35       1.0  0.19894  0.90472  0.98836  1.0000
  C   C36       1.0  0.30106  0.59528  0.48836  1.0000
  C   C37       1.0  0.72197  0.15403  0.94877  1.0000
  C   C38       1.0  0.77803  0.34597  0.44877  1.0000
  C   C39       1.0  0.27803  0.84597  0.05123  1.0000
  C   C40       1.0  0.22197  0.65403  0.55123  1.0000
  N   N1        1.0  0.02265  0.27273  0.27863  1.0000
  N   N2        1.0  0.47735  0.22727  0.77863  1.0000
  N   N3        1.0  0.97735  0.72726  0.72137  1.0000
  N   N4        1.0  0.52264  0.77273  0.22137  1.0000
  N   N5        1.0  0.17251  0.31682  0.31354  1.0000
  N   N6        1.0  0.32748  0.18317  0.81355  1.0000
  N   N7        1.0  0.82748  0.68317  0.68645  1.0000
  N   N8        1.0  0.67253  0.81683  0.18645  1.0000
  N   N9        1.0  0.32134  0.36131  0.34528  1.0000
  N   N10       1.0  0.17867  0.13869  0.84527  1.0000
  N   N11       1.0  0.67867  0.63868  0.65473  1.0000
  N   N12       1.0  0.82132  0.86131  0.15473  1.0000
  N   N13       1.0  0.86332  0.99983  0.35953  1.0000
  N   N14       1.0  0.63668  0.50017  0.85953  1.0000
  N   N15       1.0  0.13668  0.00017  0.64047  1.0000
  N   N16       1.0  0.36332  0.49983  0.14047  1.0000
  N   N17       1.0  0.00994  0.98024  0.39519  1.0000
  N   N18       1.0  0.49007  0.51976  0.89519  1.0000
  N   N19       1.0  0.99006  0.01976  0.60481  1.0000
  N   N20       1.0  0.50993  0.48024  0.10481  1.0000
  N   N21       1.0  0.14824  0.95380  0.42835  1.0000
  N   N22       1.0  0.35176  0.54620  0.92835  1.0000
  N   N23       1.0  0.85177  0.04620  0.57165  1.0000
  N   N24       1.0  0.64824  0.45380  0.07165  1.0000
  N   N25       1.0  0.58127  0.12788  0.24928  1.0000
  N   N26       1.0  0.91873  0.37212  0.74928  1.0000
  N   N27       1.0  0.41873  0.87212  0.75072  1.0000
  N   N28       1.0  0.08127  0.62788  0.25073  1.0000
  N   N29       1.0  0.04096  0.08885  0.11887  1.0000
  N   N30       1.0  0.45904  0.41115  0.61887  1.0000
  N   N31       1.0  0.95904  0.91115  0.88113  1.0000
  N   N32       1.0  0.54096  0.58885  0.38113  1.0000
  N   N33       1.0  0.79243  0.26653  0.93011  1.0000
  N   N34       1.0  0.70757  0.23347  0.43011  1.0000
  N   N35       1.0  0.20757  0.73347  0.06989  1.0000
  N   N36       1.0  0.29243  0.76653  0.56989  1.0000
