data_image0
_chemical_formula_structural       Na2H14C6S6N4O4
_chemical_formula_sum              "Na2 H14 C6 S6 N4 O4"
_cell_length_a       6.78905
_cell_length_b       7.4855
_cell_length_c       8.59781
_cell_angle_alpha    101.687
_cell_angle_beta     89.9999
_cell_angle_gamma    90.0002

_space_group_name_H-M_alt    "P 1"
_space_group_IT_number       1

loop_
  _space_group_symop_operation_xyz
  'x, y, z'

loop_
  _atom_site_type_symbol
  _atom_site_label
  _atom_site_symmetry_multiplicity
  _atom_site_fract_x
  _atom_site_fract_y
  _atom_site_fract_z
  _atom_site_occupancy
  Na  Na1       1.0  0.75000  0.92928  0.06405  1.0000
  Na  Na2       1.0  0.25000  0.07071  0.93595  1.0000
  H   H1        1.0  0.42770  0.16124  0.23434  1.0000
  H   H2        1.0  0.92770  0.83876  0.76567  1.0000
  H   H3        1.0  0.57230  0.83876  0.76567  1.0000
  H   H4        1.0  0.07230  0.16124  0.23434  1.0000
  H   H5        1.0  0.56436  0.28542  0.15126  1.0000
  H   H6        1.0  0.06436  0.71457  0.84874  1.0000
  H   H7        1.0  0.43564  0.71456  0.84874  1.0000
  H   H8        1.0  0.93564  0.28542  0.15126  1.0000
  H   H9        1.0  0.75000  0.38103  0.77577  1.0000
  H   H10       1.0  0.25000  0.61897  0.22422  1.0000
  H   H11       1.0  0.88354  0.18044  0.79134  1.0000
  H   H12       1.0  0.38354  0.81958  0.20866  1.0000
  H   H13       1.0  0.11645  0.81958  0.20866  1.0000
  H   H14       1.0  0.61645  0.18043  0.79134  1.0000
  C   C1        1.0  0.75000  0.93862  0.49044  1.0000
  C   C2        1.0  0.25000  0.06140  0.50955  1.0000
  C   C3        1.0  0.75000  0.67386  0.31628  1.0000
  C   C4        1.0  0.25000  0.32615  0.68372  1.0000
  C   C5        1.0  0.75000  0.23155  0.74388  1.0000
  C   C6        1.0  0.25000  0.76847  0.25612  1.0000
  S   S1        1.0  0.75000  0.61668  0.50291  1.0000
  S   S2        1.0  0.25000  0.38331  0.49710  1.0000
  S   S3        1.0  0.75000  0.17571  0.53050  1.0000
  S   S4        1.0  0.25000  0.82428  0.46949  1.0000
  S   S5        1.0  0.75000  0.52780  0.13813  1.0000
  S   S6        1.0  0.25000  0.47220  0.86188  1.0000
  N   N1        1.0  0.75000  0.83539  0.60036  1.0000
  N   N2        1.0  0.25000  0.16460  0.39966  1.0000
  N   N3        1.0  0.75000  0.85682  0.33408  1.0000
  N   N4        1.0  0.25000  0.14318  0.66593  1.0000
  O   O1        1.0  0.50081  0.16369  0.13499  1.0000
  O   O2        1.0  0.00080  0.83632  0.86500  1.0000
  O   O3        1.0  0.49921  0.83632  0.86500  1.0000
  O   O4        1.0  0.99920  0.16369  0.13499  1.0000
