data_image0
_chemical_formula_structural       H18Pb2C34N2Cl4O6
_chemical_formula_sum              "H18 Pb2 C34 N2 Cl4 O6"
_cell_length_a       7.30029
_cell_length_b       10.2616
_cell_length_c       11.2839
_cell_angle_alpha    104.52
_cell_angle_beta     101.76
_cell_angle_gamma    100.868

_space_group_name_H-M_alt    "P 1"
_space_group_IT_number       1

loop_
  _space_group_symop_operation_xyz
  'x, y, z'

loop_
  _atom_site_type_symbol
  _atom_site_label
  _atom_site_symmetry_multiplicity
  _atom_site_fract_x
  _atom_site_fract_y
  _atom_site_fract_z
  _atom_site_occupancy
  H   H1        1.0  0.28833  0.16208  0.51806  1.0000
  H   H2        1.0  0.71169  0.83788  0.48195  1.0000
  H   H3        1.0  0.31626  0.91505  0.45224  1.0000
  H   H4        1.0  0.68374  0.08491  0.54775  1.0000
  H   H5        1.0  0.14930  0.33015  0.95310  1.0000
  H   H6        1.0  0.85068  0.66987  0.04694  1.0000
  H   H7        1.0  0.15086  0.24300  0.72354  1.0000
  H   H8        1.0  0.84912  0.75705  0.27649  1.0000
  H   H9        1.0  0.20822  0.00718  0.64423  1.0000
  H   H10       1.0  0.79178  0.99287  0.35579  1.0000
  H   H11       1.0  0.26656  0.86653  0.78417  1.0000
  H   H12       1.0  0.73340  0.13350  0.21583  1.0000
  H   H13       1.0  0.33882  0.71085  0.28422  1.0000
  H   H14       1.0  0.66121  0.28912  0.71575  1.0000
  H   H15       1.0  0.17443  0.50684  0.84111  1.0000
  H   H16       1.0  0.82558  0.49317  0.15886  1.0000
  H   H17       1.0  0.43599  0.55846  0.87219  1.0000
  H   H18       1.0  0.56402  0.44158  0.12775  1.0000
  Pb  Pb1       1.0  0.19361  0.42742  0.40868  1.0000
  Pb  Pb2       1.0  0.80654  0.57258  0.59137  1.0000
  C   C1        1.0  0.28255  0.10871  0.42019  1.0000
  C   C2        1.0  0.71744  0.89126  0.57981  1.0000
  C   C3        1.0  0.30262  0.97366  0.38403  1.0000
  C   C4        1.0  0.69737  0.02630  0.61596  1.0000
  C   C5        1.0  0.29927  0.90975  0.25772  1.0000
  C   C6        1.0  0.70070  0.09022  0.74226  1.0000
  C   C7        1.0  0.27371  0.98859  0.16946  1.0000
  C   C8        1.0  0.72624  0.01139  0.83053  1.0000
  C   C9        1.0  0.24649  0.12329  0.21542  1.0000
  C   C10       1.0  0.75347  0.87669  0.78458  1.0000
  C   C11       1.0  0.19997  0.20437  0.12733  1.0000
  C   C12       1.0  0.80002  0.79564  0.87270  1.0000
  C   C13       1.0  0.20853  0.14872  0.99642  1.0000
  C   C14       1.0  0.79143  0.85128  0.00360  1.0000
  C   C15       1.0  0.17694  0.22968  0.91400  1.0000
  C   C16       1.0  0.82302  0.77034  0.08603  1.0000
  C   C17       1.0  0.17783  0.18115  0.78796  1.0000
  C   C18       1.0  0.82214  0.81890  0.21207  1.0000
  C   C19       1.0  0.21053  0.04949  0.74340  1.0000
  C   C20       1.0  0.78945  0.95056  0.25661  1.0000
  C   C21       1.0  0.24278  0.96805  0.82325  1.0000
  C   C22       1.0  0.75718  0.03197  0.17675  1.0000
  C   C23       1.0  0.24250  0.01536  0.95186  1.0000
  C   C24       1.0  0.75743  0.98465  0.04814  1.0000
  C   C25       1.0  0.27023  0.93260  0.03862  1.0000
  C   C26       1.0  0.72970  0.06739  0.96137  1.0000
  C   C27       1.0  0.29128  0.79761  0.00555  1.0000
  C   C28       1.0  0.70867  0.20239  0.99443  1.0000
  C   C29       1.0  0.31177  0.71915  0.09284  1.0000
  C   C30       1.0  0.68823  0.28084  0.90713  1.0000
  C   C31       1.0  0.31753  0.77075  0.21771  1.0000
  C   C32       1.0  0.68247  0.22923  0.78226  1.0000
  C   C33       1.0  0.30910  0.58350  0.90094  1.0000
  C   C34       1.0  0.69092  0.41652  0.09902  1.0000
  N   N1        1.0  0.25336  0.18142  0.33764  1.0000
  N   N2        1.0  0.74663  0.81856  0.66237  1.0000
  Cl  Cl1       1.0  0.89302  0.29222  0.49483  1.0000
  Cl  Cl2       1.0  0.10711  0.70779  0.50518  1.0000
  Cl  Cl3       1.0  0.43883  0.44753  0.63645  1.0000
  Cl  Cl4       1.0  0.56137  0.55235  0.36357  1.0000
  O   O1        1.0  0.15136  0.31582  0.16274  1.0000
  O   O2        1.0  0.84868  0.68420  0.83731  1.0000
  O   O3        1.0  0.32779  0.59075  0.03218  1.0000
  O   O4        1.0  0.67227  0.40926  0.96778  1.0000
  O   O5        1.0  0.29726  0.71954  0.89072  1.0000
  O   O6        1.0  0.70271  0.28048  0.10925  1.0000
