data_image0
_chemical_formula_structural       Yb2H24C24O18
_chemical_formula_sum              "Yb2 H24 C24 O18"
_cell_length_a       7.73928
_cell_length_b       9.34366
_cell_length_c       10.7073
_cell_angle_alpha    68.926
_cell_angle_beta     71.105
_cell_angle_gamma    75.1923

_space_group_name_H-M_alt    "P 1"
_space_group_IT_number       1

loop_
  _space_group_symop_operation_xyz
  'x, y, z'

loop_
  _atom_site_type_symbol
  _atom_site_label
  _atom_site_symmetry_multiplicity
  _atom_site_fract_x
  _atom_site_fract_y
  _atom_site_fract_z
  _atom_site_occupancy
  Yb  Yb1       1.0  0.26652  0.29538  0.00368  1.0000
  Yb  Yb2       1.0  0.73348  0.70462  0.99632  1.0000
  H   H1        1.0  0.42203  0.49441  0.33171  1.0000
  H   H2        1.0  0.57797  0.50559  0.66829  1.0000
  H   H3        1.0  0.32573  0.39062  0.59158  1.0000
  H   H4        1.0  0.67427  0.60938  0.40842  1.0000
  H   H5        1.0  0.89701  0.78500  0.60140  1.0000
  H   H6        1.0  0.10299  0.21500  0.39860  1.0000
  H   H7        1.0  0.97655  0.87831  0.34338  1.0000
  H   H8        1.0  0.02345  0.12169  0.65662  1.0000
  H   H9        1.0  0.59059  0.25858  0.35558  1.0000
  H   H10       1.0  0.40941  0.74142  0.64441  1.0000
  H   H11       1.0  0.33088  0.87325  0.41751  1.0000
  H   H12       1.0  0.66912  0.12676  0.58249  1.0000
  H   H13       1.0  0.19080  0.64029  0.91757  1.0000
  H   H14       1.0  0.80920  0.35971  0.08243  1.0000
  H   H15       1.0  0.40914  0.60544  0.88836  1.0000
  H   H16       1.0  0.59086  0.39456  0.11164  1.0000
  H   H17       1.0  0.95274  0.16671  0.99484  1.0000
  H   H18       1.0  0.04727  0.83329  0.00516  1.0000
  H   H19       1.0  0.02443  0.05818  0.12350  1.0000
  H   H20       1.0  0.97557  0.94182  0.87650  1.0000
  H   H21       1.0  0.47167  0.04951  0.86920  1.0000
  H   H22       1.0  0.52833  0.95049  0.13080  1.0000
  H   H23       1.0  0.28406  0.99651  0.97336  1.0000
  H   H24       1.0  0.71594  0.00349  0.02664  1.0000
  C   C1        1.0  0.27237  0.75812  0.16868  1.0000
  C   C2        1.0  0.72762  0.24188  0.83132  1.0000
  C   C3        1.0  0.20669  0.69261  0.32206  1.0000
  C   C4        1.0  0.79331  0.30738  0.67794  1.0000
  C   C5        1.0  0.30476  0.55520  0.39209  1.0000
  C   C6        1.0  0.69523  0.44480  0.60791  1.0000
  C   C7        1.0  0.25263  0.49850  0.53586  1.0000
  C   C8        1.0  0.74737  0.50150  0.46414  1.0000
  C   C9        1.0  0.10640  0.58260  0.61165  1.0000
  C   C10       1.0  0.89360  0.41740  0.38835  1.0000
  C   C11       1.0  0.06009  0.52873  0.76659  1.0000
  C   C12       1.0  0.93991  0.47127  0.23341  1.0000
  C   C13       1.0  0.00845  0.71996  0.54146  1.0000
  C   C14       1.0  0.99155  0.28004  0.45854  1.0000
  C   C15       1.0  0.05464  0.77273  0.39762  1.0000
  C   C16       1.0  0.94536  0.22727  0.60238  1.0000
  C   C17       1.0  0.40123  0.15389  0.24007  1.0000
  C   C18       1.0  0.59877  0.84611  0.75993  1.0000
  C   C19       1.0  0.45583  0.07382  0.37274  1.0000
  C   C20       1.0  0.54417  0.92619  0.62726  1.0000
  C   C21       1.0  0.55072  0.14563  0.41928  1.0000
  C   C22       1.0  0.44928  0.85437  0.58072  1.0000
  C   C23       1.0  0.40566  0.92758  0.45406  1.0000
  C   C24       1.0  0.59435  0.07243  0.54594  1.0000
  O   O1        1.0  0.16329  0.86329  0.10279  1.0000
  O   O2        1.0  0.83671  0.13671  0.89721  1.0000
  O   O3        1.0  0.43736  0.70987  0.11058  1.0000
  O   O4        1.0  0.56264  0.29013  0.88942  1.0000
  O   O5        1.0  0.95004  0.62031  0.83128  1.0000
  O   O6        1.0  0.04996  0.37969  0.16872  1.0000
  O   O7        1.0  0.13835  0.39505  0.82566  1.0000
  O   O8        1.0  0.86164  0.60495  0.17435  1.0000
  O   O9        1.0  0.41867  0.29531  0.17415  1.0000
  O   O10       1.0  0.58133  0.70469  0.82585  1.0000
  O   O11       1.0  0.33009  0.07973  0.19309  1.0000
  O   O12       1.0  0.66991  0.92027  0.80691  1.0000
  O   O13       1.0  0.29565  0.55565  0.92750  1.0000
  O   O14       1.0  0.70435  0.44435  0.07250  1.0000
  O   O15       1.0  0.99760  0.16882  0.07154  1.0000
  O   O16       1.0  0.00240  0.83119  0.92846  1.0000
  O   O17       1.0  0.34345  0.08975  0.91159  1.0000
  O   O18       1.0  0.65655  0.91025  0.08841  1.0000
