data_image0
_chemical_formula_structural       Cd2H24C12N4O18
_chemical_formula_sum              "Cd2 H24 C12 N4 O18"
_cell_length_a       5.1577
_cell_length_b       5.15769
_cell_length_c       23.2994
_cell_angle_alpha    98.2289
_cell_angle_beta     98.2287
_cell_angle_gamma    83.6488

_space_group_name_H-M_alt    "P 1"
_space_group_IT_number       1

loop_
  _space_group_symop_operation_xyz
  'x, y, z'

loop_
  _atom_site_type_symbol
  _atom_site_label
  _atom_site_symmetry_multiplicity
  _atom_site_fract_x
  _atom_site_fract_y
  _atom_site_fract_z
  _atom_site_occupancy
  Cd  Cd1       1.0  0.08205  0.91786  0.75000  1.0000
  Cd  Cd2       1.0  0.91786  0.08210  0.25000  1.0000
  H   H1        1.0  0.74983  0.04108  0.93136  1.0000
  H   H2        1.0  0.95893  0.25018  0.56862  1.0000
  H   H3        1.0  0.25015  0.95891  0.06862  1.0000
  H   H4        1.0  0.04115  0.74977  0.43138  1.0000
  H   H5        1.0  0.50559  0.84904  0.89033  1.0000
  H   H6        1.0  0.15098  0.49435  0.60967  1.0000
  H   H7        1.0  0.49429  0.15097  0.10967  1.0000
  H   H8        1.0  0.84903  0.50563  0.39032  1.0000
  H   H9        1.0  0.61060  0.57905  0.96026  1.0000
  H   H10       1.0  0.42094  0.38939  0.53974  1.0000
  H   H11       1.0  0.38940  0.42098  0.03975  1.0000
  H   H12       1.0  0.57907  0.61057  0.46025  1.0000
  H   H13       1.0  0.54838  0.13324  0.82120  1.0000
  H   H14       1.0  0.86679  0.45156  0.67880  1.0000
  H   H15       1.0  0.45159  0.86682  0.17881  1.0000
  H   H16       1.0  0.13326  0.54838  0.32120  1.0000
  H   H17       1.0  0.40050  0.43781  0.76905  1.0000
  H   H18       1.0  0.56222  0.59949  0.73097  1.0000
  H   H19       1.0  0.59945  0.56226  0.23096  1.0000
  H   H20       1.0  0.43784  0.40048  0.26905  1.0000
  H   H21       1.0  0.27298  0.32421  0.83700  1.0000
  H   H22       1.0  0.67583  0.72694  0.66299  1.0000
  H   H23       1.0  0.72694  0.67584  0.16299  1.0000
  H   H24       1.0  0.32424  0.27300  0.33701  1.0000
  C   C1        1.0  0.87443  0.79765  0.85611  1.0000
  C   C2        1.0  0.20235  0.12553  0.64389  1.0000
  C   C3        1.0  0.12552  0.20237  0.14388  1.0000
  C   C4        1.0  0.79770  0.87447  0.35612  1.0000
  C   C5        1.0  0.71543  0.84458  0.90776  1.0000
  C   C6        1.0  0.15542  0.28452  0.59224  1.0000
  C   C7        1.0  0.28446  0.15540  0.09224  1.0000
  C   C8        1.0  0.84464  0.71546  0.40777  1.0000
  C   C9        1.0  0.00353  0.59916  0.97842  1.0000
  C   C10       1.0  0.40089  0.99644  0.52157  1.0000
  C   C11       1.0  0.99642  0.40088  0.02157  1.0000
  C   C12       1.0  0.59917  0.00354  0.47842  1.0000
  N   N1        1.0  0.76807  0.65014  0.94763  1.0000
  N   N2        1.0  0.34990  0.23190  0.55238  1.0000
  N   N3        1.0  0.23188  0.34988  0.05237  1.0000
  N   N4        1.0  0.65014  0.76809  0.44762  1.0000
  O   O1        1.0  0.36183  0.20625  0.80716  1.0000
  O   O2        1.0  0.79374  0.63810  0.69283  1.0000
  O   O3        1.0  0.63812  0.79373  0.19283  1.0000
  O   O4        1.0  0.20630  0.36183  0.30716  1.0000
  O   O5        1.0  0.40120  0.59891  0.75002  1.0000
  O   O6        1.0  0.59890  0.40121  0.25001  1.0000
  O   O7        1.0  0.83177  0.98971  0.82417  1.0000
  O   O8        1.0  0.01029  0.16826  0.67584  1.0000
  O   O9        1.0  0.16825  0.01031  0.17585  1.0000
  O   O10       1.0  0.98976  0.83174  0.32416  1.0000
  O   O11       1.0  0.02723  0.59821  0.84590  1.0000
  O   O12       1.0  0.40177  0.97269  0.65410  1.0000
  O   O13       1.0  0.97274  0.40183  0.15411  1.0000
  O   O14       1.0  0.59824  0.02725  0.34590  1.0000
  O   O15       1.0  0.20994  0.69644  0.97435  1.0000
  O   O16       1.0  0.30363  0.79002  0.52562  1.0000
  O   O17       1.0  0.78998  0.30365  0.02563  1.0000
  O   O18       1.0  0.69648  0.20995  0.47436  1.0000
