data_image0
_chemical_formula_structural       Cu2H24C36S4I2N12
_chemical_formula_sum              "Cu2 H24 C36 S4 I2 N12"
_cell_length_a       8.31617
_cell_length_b       10.7052
_cell_length_c       11.8815
_cell_angle_alpha    99.0541
_cell_angle_beta     107.508
_cell_angle_gamma    96.7888

_space_group_name_H-M_alt    "P 1"
_space_group_IT_number       1

loop_
  _space_group_symop_operation_xyz
  'x, y, z'

loop_
  _atom_site_type_symbol
  _atom_site_label
  _atom_site_symmetry_multiplicity
  _atom_site_fract_x
  _atom_site_fract_y
  _atom_site_fract_z
  _atom_site_occupancy
  Cu  Cu1       1.0  0.38707  0.92533  0.90118  1.0000
  Cu  Cu2       1.0  0.61292  0.07467  0.09883  1.0000
  H   H1        1.0  0.27207  0.70866  0.00073  1.0000
  H   H2        1.0  0.72793  0.29134  0.99928  1.0000
  H   H3        1.0  0.49365  0.50795  0.69086  1.0000
  H   H4        1.0  0.50635  0.49206  0.30914  1.0000
  H   H5        1.0  0.49521  0.18543  0.61453  1.0000
  H   H6        1.0  0.50480  0.81458  0.38547  1.0000
  H   H7        1.0  0.36401  0.36608  0.80223  1.0000
  H   H8        1.0  0.63600  0.63393  0.19777  1.0000
  H   H9        1.0  0.57369  0.33130  0.48739  1.0000
  H   H10       1.0  0.42631  0.66870  0.51261  1.0000
  H   H11       1.0  0.51170  0.74436  0.74521  1.0000
  H   H12       1.0  0.48829  0.25565  0.25479  1.0000
  H   H13       1.0  0.06946  0.15622  0.00808  1.0000
  H   H14       1.0  0.93054  0.84378  0.99192  1.0000
  H   H15       1.0  0.19050  0.26190  0.87104  1.0000
  H   H16       1.0  0.80951  0.73810  0.12897  1.0000
  H   H17       1.0  0.90076  0.15569  0.55627  1.0000
  H   H18       1.0  0.09924  0.84431  0.44373  1.0000
  H   H19       1.0  0.79704  0.00493  0.67498  1.0000
  H   H20       1.0  0.20296  0.99507  0.32502  1.0000
  H   H21       1.0  0.41216  0.09329  0.73314  1.0000
  H   H22       1.0  0.58784  0.90670  0.26686  1.0000
  H   H23       1.0  0.00885  0.90468  0.81179  1.0000
  H   H24       1.0  0.99115  0.09533  0.18821  1.0000
  C   C1        1.0  0.30657  0.52676  0.91067  1.0000
  C   C2        1.0  0.69343  0.47324  0.08933  1.0000
  C   C3        1.0  0.14320  0.45301  0.14740  1.0000
  C   C4        1.0  0.85680  0.54699  0.85260  1.0000
  C   C5        1.0  0.31914  0.66053  0.93235  1.0000
  C   C6        1.0  0.68086  0.33947  0.06765  1.0000
  C   C7        1.0  0.23034  0.45277  0.98254  1.0000
  C   C8        1.0  0.76966  0.54723  0.01746  1.0000
  C   C9        1.0  0.17506  0.35872  0.43477  1.0000
  C   C10       1.0  0.82494  0.64128  0.56523  1.0000
  C   C11       1.0  0.43953  0.54727  0.75876  1.0000
  C   C12       1.0  0.56047  0.45274  0.24124  1.0000
  C   C13       1.0  0.23001  0.21913  0.56369  1.0000
  C   C14       1.0  0.76999  0.78087  0.43631  1.0000
  C   C15       1.0  0.39985  0.23396  0.56250  1.0000
  C   C16       1.0  0.60015  0.76604  0.43750  1.0000
  C   C17       1.0  0.36768  0.46946  0.82094  1.0000
  C   C18       1.0  0.63231  0.53054  0.17906  1.0000
  C   C19       1.0  0.44361  0.31505  0.49148  1.0000
  C   C20       1.0  0.55640  0.68495  0.50852  1.0000
  C   C21       1.0  0.44965  0.67959  0.78796  1.0000
  C   C22       1.0  0.55034  0.32042  0.21203  1.0000
  C   C23       1.0  0.11081  0.26009  0.02746  1.0000
  C   C24       1.0  0.88920  0.73991  0.97255  1.0000
  C   C25       1.0  0.17929  0.31902  0.95161  1.0000
  C   C26       1.0  0.82071  0.68098  0.04839  1.0000
  C   C27       1.0  0.16400  0.13448  0.63292  1.0000
  C   C28       1.0  0.83600  0.86552  0.36708  1.0000
  C   C29       1.0  0.98826  0.10987  0.61818  1.0000
  C   C30       1.0  0.01173  0.89013  0.38182  1.0000
  C   C31       1.0  0.93166  0.02679  0.68260  1.0000
  C   C32       1.0  0.06834  0.97321  0.31740  1.0000
  C   C33       1.0  0.27366  0.07592  0.71434  1.0000
  C   C34       1.0  0.72634  0.92408  0.28567  1.0000
  C   C35       1.0  0.04952  0.97104  0.76068  1.0000
  C   C36       1.0  0.95048  0.02896  0.23932  1.0000
  S   S1        1.0  0.13125  0.55494  0.27771  1.0000
  S   S2        1.0  0.86875  0.44506  0.72228  1.0000
  S   S3        1.0  0.01219  0.43556  0.35539  1.0000
  S   S4        1.0  0.98781  0.56444  0.64460  1.0000
  I   I1        1.0  0.30737  0.97473  0.10246  1.0000
  I   I2        1.0  0.69263  0.02527  0.89755  1.0000
  N   N1        1.0  0.20953  0.52035  0.08164  1.0000
  N   N2        1.0  0.79047  0.47964  0.91836  1.0000
  N   N3        1.0  0.09330  0.32632  0.12785  1.0000
  N   N4        1.0  0.90670  0.67367  0.87216  1.0000
  N   N5        1.0  0.38885  0.73602  0.87284  1.0000
  N   N6        1.0  0.61114  0.26399  0.12716  1.0000
  N   N7        1.0  0.11763  0.28300  0.49907  1.0000
  N   N8        1.0  0.88237  0.71700  0.50093  1.0000
  N   N9        1.0  0.33219  0.37814  0.42591  1.0000
  N   N10       1.0  0.66781  0.62187  0.57409  1.0000
  N   N11       1.0  0.21938  0.99631  0.77802  1.0000
  N   N12       1.0  0.78062  0.00369  0.22199  1.0000
