data_image0
_chemical_formula_structural       Ca2H44C32N8O20
_chemical_formula_sum              "Ca2 H44 C32 N8 O20"
_cell_length_a       9.04182
_cell_length_b       9.04185
_cell_length_c       11.703
_cell_angle_alpha    95.5188
_cell_angle_beta     95.5189
_cell_angle_gamma    91.3538

_space_group_name_H-M_alt    "P 1"
_space_group_IT_number       1

loop_
  _space_group_symop_operation_xyz
  'x, y, z'

loop_
  _atom_site_type_symbol
  _atom_site_label
  _atom_site_symmetry_multiplicity
  _atom_site_fract_x
  _atom_site_fract_y
  _atom_site_fract_z
  _atom_site_occupancy
  Ca  Ca1       1.0  0.57391  0.42609  0.75000  1.0000
  Ca  Ca2       1.0  0.42609  0.57391  0.25000  1.0000
  H   H1        1.0  0.33169  0.96694  0.93418  1.0000
  H   H2        1.0  0.03305  0.66831  0.56582  1.0000
  H   H3        1.0  0.66831  0.03306  0.06582  1.0000
  H   H4        1.0  0.96695  0.33169  0.43418  1.0000
  H   H5        1.0  0.63383  0.53075  0.00544  1.0000
  H   H6        1.0  0.46925  0.36617  0.49456  1.0000
  H   H7        1.0  0.36617  0.46925  0.99456  1.0000
  H   H8        1.0  0.53075  0.63383  0.50544  1.0000
  H   H9        1.0  0.65435  0.35854  0.00585  1.0000
  H   H10       1.0  0.64146  0.34565  0.49416  1.0000
  H   H11       1.0  0.34565  0.64146  0.99415  1.0000
  H   H12       1.0  0.35854  0.65435  0.50584  1.0000
  H   H13       1.0  0.66085  0.79557  0.68831  1.0000
  H   H14       1.0  0.20443  0.33916  0.81169  1.0000
  H   H15       1.0  0.33915  0.20443  0.31169  1.0000
  H   H16       1.0  0.79557  0.66084  0.18831  1.0000
  H   H17       1.0  0.86975  0.98833  0.62337  1.0000
  H   H18       1.0  0.01167  0.13025  0.87663  1.0000
  H   H19       1.0  0.13025  0.01167  0.37663  1.0000
  H   H20       1.0  0.98833  0.86975  0.12337  1.0000
  H   H21       1.0  0.80227  0.16690  0.60112  1.0000
  H   H22       1.0  0.83309  0.19773  0.89888  1.0000
  H   H23       1.0  0.19773  0.83309  0.39888  1.0000
  H   H24       1.0  0.16691  0.80227  0.10112  1.0000
  H   H25       1.0  0.65386  0.87669  0.47891  1.0000
  H   H26       1.0  0.12331  0.34614  0.02109  1.0000
  H   H27       1.0  0.34614  0.12331  0.52109  1.0000
  H   H28       1.0  0.87669  0.65386  0.97891  1.0000
  H   H29       1.0  0.61590  0.05978  0.44765  1.0000
  H   H30       1.0  0.94022  0.38410  0.05235  1.0000
  H   H31       1.0  0.38410  0.94022  0.55235  1.0000
  H   H32       1.0  0.05978  0.61590  0.94765  1.0000
  H   H33       1.0  0.87603  0.08764  0.38631  1.0000
  H   H34       1.0  0.91236  0.12397  0.11369  1.0000
  H   H35       1.0  0.12397  0.91236  0.61369  1.0000
  H   H36       1.0  0.08764  0.87603  0.88631  1.0000
  H   H37       1.0  0.77701  0.93511  0.30597  1.0000
  H   H38       1.0  0.06489  0.22299  0.19403  1.0000
  H   H39       1.0  0.22299  0.06489  0.69403  1.0000
  H   H40       1.0  0.93511  0.77701  0.80597  1.0000
  H   H41       1.0  0.91111  0.90288  0.42048  1.0000
  H   H42       1.0  0.09712  0.08889  0.07952  1.0000
  H   H43       1.0  0.08889  0.09712  0.57952  1.0000
  H   H44       1.0  0.90288  0.91111  0.92048  1.0000
  C   C1        1.0  0.52327  0.91667  0.79923  1.0000
  C   C2        1.0  0.08333  0.47673  0.70077  1.0000
  C   C3        1.0  0.47673  0.08333  0.20077  1.0000
  C   C4        1.0  0.91667  0.52327  0.29923  1.0000
  C   C5        1.0  0.50128  0.06944  0.81155  1.0000
  C   C6        1.0  0.93056  0.49871  0.68845  1.0000
  C   C7        1.0  0.49871  0.93056  0.18845  1.0000
  C   C8        1.0  0.06944  0.50129  0.31155  1.0000
  C   C9        1.0  0.66349  0.03329  0.68716  1.0000
  C   C10       1.0  0.96671  0.33651  0.81284  1.0000
  C   C11       1.0  0.33651  0.96671  0.31284  1.0000
  C   C12       1.0  0.03329  0.66349  0.18716  1.0000
  C   C13       1.0  0.46629  0.79021  0.85541  1.0000
  C   C14       1.0  0.20979  0.53371  0.64459  1.0000
  C   C15       1.0  0.53371  0.20979  0.14459  1.0000
  C   C16       1.0  0.79021  0.46629  0.35541  1.0000
  C   C17       1.0  0.39536  0.15483  0.87563  1.0000
  C   C18       1.0  0.84517  0.60464  0.62437  1.0000
  C   C19       1.0  0.60464  0.84517  0.12437  1.0000
  C   C20       1.0  0.15483  0.39536  0.37563  1.0000
  C   C21       1.0  0.76938  0.04912  0.59922  1.0000
  C   C22       1.0  0.95088  0.23061  0.90078  1.0000
  C   C23       1.0  0.23062  0.95088  0.40078  1.0000
  C   C24       1.0  0.04912  0.76939  0.09922  1.0000
  C   C25       1.0  0.70511  0.98762  0.47658  1.0000
  C   C26       1.0  0.01238  0.29488  0.02342  1.0000
  C   C27       1.0  0.29488  0.01238  0.52342  1.0000
  C   C28       1.0  0.98762  0.70512  0.97658  1.0000
  C   C29       1.0  0.82433  0.97819  0.39289  1.0000
  C   C30       1.0  0.02181  0.17567  0.10711  1.0000
  C   C31       1.0  0.17567  0.02181  0.60711  1.0000
  C   C32       1.0  0.97819  0.82433  0.89289  1.0000
  N   N1        1.0  0.58989  0.14008  0.74249  1.0000
  N   N2        1.0  0.85992  0.41011  0.75751  1.0000
  N   N3        1.0  0.41011  0.85992  0.25751  1.0000
  N   N4        1.0  0.14008  0.58989  0.24249  1.0000
  N   N5        1.0  0.62535  0.89811  0.72048  1.0000
  N   N6        1.0  0.10189  0.37465  0.77952  1.0000
  N   N7        1.0  0.37465  0.10189  0.27952  1.0000
  N   N8        1.0  0.89811  0.62535  0.22049  1.0000
  O   O1        1.0  0.52012  0.66505  0.83532  1.0000
  O   O2        1.0  0.33495  0.47988  0.66468  1.0000
  O   O3        1.0  0.47988  0.33495  0.16468  1.0000
  O   O4        1.0  0.66505  0.52012  0.33532  1.0000
  O   O5        1.0  0.36519  0.81753  0.92502  1.0000
  O   O6        1.0  0.18247  0.63482  0.57498  1.0000
  O   O7        1.0  0.63481  0.18247  0.07498  1.0000
  O   O8        1.0  0.81753  0.36518  0.42502  1.0000
  O   O9        1.0  0.30895  0.08525  0.93815  1.0000
  O   O10       1.0  0.91475  0.69105  0.56185  1.0000
  O   O11       1.0  0.69105  0.91475  0.06185  1.0000
  O   O12       1.0  0.08525  0.30895  0.43815  1.0000
  O   O13       1.0  0.38440  0.29161  0.86593  1.0000
  O   O14       1.0  0.70838  0.61559  0.63406  1.0000
  O   O15       1.0  0.61560  0.70839  0.13407  1.0000
  O   O16       1.0  0.29162  0.38441  0.36594  1.0000
  O   O17       1.0  0.66630  0.44329  0.95968  1.0000
  O   O18       1.0  0.55671  0.33370  0.54032  1.0000
  O   O19       1.0  0.33370  0.55671  0.04032  1.0000
  O   O20       1.0  0.44329  0.66630  0.45968  1.0000
