data_image0
_chemical_formula_structural       Pr4H16C12O32
_chemical_formula_sum              "Pr4 H16 C12 O32"
_cell_length_a       7.6496
_cell_length_b       10.3175
_cell_length_c       10.4166
_cell_angle_alpha    101.609
_cell_angle_beta     90.0001
_cell_angle_gamma    89.9996

_space_group_name_H-M_alt    "P 1"
_space_group_IT_number       1

loop_
  _space_group_symop_operation_xyz
  'x, y, z'

loop_
  _atom_site_type_symbol
  _atom_site_label
  _atom_site_symmetry_multiplicity
  _atom_site_fract_x
  _atom_site_fract_y
  _atom_site_fract_z
  _atom_site_occupancy
  Pr  Pr1       1.0  0.90755  0.30855  0.54986  1.0000
  Pr  Pr2       1.0  0.40755  0.69146  0.95014  1.0000
  Pr  Pr3       1.0  0.09244  0.69145  0.45013  1.0000
  Pr  Pr4       1.0  0.59245  0.30855  0.04987  1.0000
  H   H1        1.0  0.57811  0.27427  0.38405  1.0000
  H   H2        1.0  0.07811  0.72573  0.11594  1.0000
  H   H3        1.0  0.42187  0.72572  0.61595  1.0000
  H   H4        1.0  0.92188  0.27427  0.88405  1.0000
  H   H5        1.0  0.66184  0.13930  0.33650  1.0000
  H   H6        1.0  0.16183  0.86071  0.16350  1.0000
  H   H7        1.0  0.33815  0.86069  0.66350  1.0000
  H   H8        1.0  0.83815  0.13930  0.83651  1.0000
  H   H9        1.0  0.28702  0.38574  0.51013  1.0000
  H   H10       1.0  0.78703  0.61425  0.98987  1.0000
  H   H11       1.0  0.71297  0.61426  0.48988  1.0000
  H   H12       1.0  0.21298  0.38574  0.01012  1.0000
  H   H13       1.0  0.31643  0.23930  0.53023  1.0000
  H   H14       1.0  0.81644  0.76069  0.96973  1.0000
  H   H15       1.0  0.68355  0.76069  0.46974  1.0000
  H   H16       1.0  0.18356  0.23930  0.03025  1.0000
  C   C1        1.0  0.59332  0.41213  0.75783  1.0000
  C   C2        1.0  0.09331  0.58787  0.74218  1.0000
  C   C3        1.0  0.40668  0.58787  0.24218  1.0000
  C   C4        1.0  0.90669  0.41213  0.25782  1.0000
  C   C5        1.0  0.58849  0.51736  0.67126  1.0000
  C   C6        1.0  0.08849  0.48265  0.82875  1.0000
  C   C7        1.0  0.41152  0.48266  0.32876  1.0000
  C   C8        1.0  0.91150  0.51735  0.17124  1.0000
  C   C9        1.0  0.02660  0.00285  0.42812  1.0000
  C   C10       1.0  0.52662  0.99716  0.07188  1.0000
  C   C11       1.0  0.97341  0.99716  0.57187  1.0000
  C   C12       1.0  0.47341  0.00285  0.92813  1.0000
  O   O1        1.0  0.66361  0.30361  0.71025  1.0000
  O   O2        1.0  0.16360  0.69639  0.78977  1.0000
  O   O3        1.0  0.33637  0.69639  0.28976  1.0000
  O   O4        1.0  0.83639  0.30360  0.21024  1.0000
  O   O5        1.0  0.52870  0.44570  0.87300  1.0000
  O   O6        1.0  0.02870  0.55429  0.62700  1.0000
  O   O7        1.0  0.47132  0.55431  0.12701  1.0000
  O   O8        1.0  0.97132  0.44569  0.37299  1.0000
  O   O9        1.0  0.67391  0.48970  0.56478  1.0000
  O   O10       1.0  0.17389  0.51030  0.93523  1.0000
  O   O11       1.0  0.32610  0.51031  0.43524  1.0000
  O   O12       1.0  0.82610  0.48969  0.06476  1.0000
  O   O13       1.0  0.50227  0.62181  0.71191  1.0000
  O   O14       1.0  0.00227  0.37819  0.78812  1.0000
  O   O15       1.0  0.49773  0.37820  0.28812  1.0000
  O   O16       1.0  0.99770  0.62182  0.21189  1.0000
  O   O17       1.0  0.01847  0.11396  0.39511  1.0000
  O   O18       1.0  0.51849  0.88605  0.10488  1.0000
  O   O19       1.0  0.98153  0.88605  0.60487  1.0000
  O   O20       1.0  0.48154  0.11396  0.89512  1.0000
  O   O21       1.0  0.07431  0.89454  0.35601  1.0000
  O   O22       1.0  0.57432  0.10547  0.14398  1.0000
  O   O23       1.0  0.92572  0.10548  0.64397  1.0000
  O   O24       1.0  0.42571  0.89453  0.85603  1.0000
  O   O25       1.0  0.64390  0.20495  0.41815  1.0000
  O   O26       1.0  0.14389  0.79506  0.08185  1.0000
  O   O27       1.0  0.35610  0.79505  0.58185  1.0000
  O   O28       1.0  0.85610  0.20495  0.91815  1.0000
  O   O29       1.0  0.24407  0.31743  0.55903  1.0000
  O   O30       1.0  0.74407  0.68255  0.94096  1.0000
  O   O31       1.0  0.75592  0.68255  0.44096  1.0000
  O   O32       1.0  0.25593  0.31744  0.05904  1.0000
