data_image0
_chemical_formula_structural       Cd4H28C36S8N12O4
_chemical_formula_sum              "Cd4 H28 C36 S8 N12 O4"
_cell_length_a       7.58729
_cell_length_b       12.2567
_cell_length_c       12.3836
_cell_angle_alpha    97.1489
_cell_angle_beta     90
_cell_angle_gamma    90

_space_group_name_H-M_alt    "P 1"
_space_group_IT_number       1

loop_
  _space_group_symop_operation_xyz
  'x, y, z'

loop_
  _atom_site_type_symbol
  _atom_site_label
  _atom_site_symmetry_multiplicity
  _atom_site_fract_x
  _atom_site_fract_y
  _atom_site_fract_z
  _atom_site_occupancy
  Cd  Cd1       1.0  0.09218  0.94193  0.71369  1.0000
  Cd  Cd2       1.0  0.59218  0.55807  0.78630  1.0000
  Cd  Cd3       1.0  0.90782  0.05807  0.28630  1.0000
  Cd  Cd4       1.0  0.40782  0.44193  0.21369  1.0000
  H   H1        1.0  0.48299  0.90968  0.80304  1.0000
  H   H2        1.0  0.98299  0.59032  0.69696  1.0000
  H   H3        1.0  0.51701  0.09032  0.19696  1.0000
  H   H4        1.0  0.01701  0.40968  0.30304  1.0000
  H   H5        1.0  0.72764  0.01508  0.90477  1.0000
  H   H6        1.0  0.22764  0.48492  0.59523  1.0000
  H   H7        1.0  0.27236  0.98492  0.09523  1.0000
  H   H8        1.0  0.77236  0.51508  0.40477  1.0000
  H   H9        1.0  0.67466  0.21278  0.97945  1.0000
  H   H10       1.0  0.17466  0.28722  0.52055  1.0000
  H   H11       1.0  0.32534  0.78722  0.02055  1.0000
  H   H12       1.0  0.82534  0.71278  0.47945  1.0000
  H   H13       1.0  0.38333  0.29736  0.94630  1.0000
  H   H14       1.0  0.88333  0.20264  0.55371  1.0000
  H   H15       1.0  0.61667  0.70264  0.05370  1.0000
  H   H16       1.0  0.11667  0.79736  0.44630  1.0000
  H   H17       1.0  0.15077  0.36355  0.83171  1.0000
  H   H18       1.0  0.65077  0.13645  0.66829  1.0000
  H   H19       1.0  0.84923  0.63645  0.16829  1.0000
  H   H20       1.0  0.34922  0.86355  0.33171  1.0000
  H   H21       1.0  0.08876  0.32950  0.96066  1.0000
  H   H22       1.0  0.58877  0.17050  0.53934  1.0000
  H   H23       1.0  0.91124  0.67049  0.03934  1.0000
  H   H24       1.0  0.41124  0.82950  0.46066  1.0000
  H   H25       1.0  0.92616  0.32872  0.85581  1.0000
  H   H26       1.0  0.42616  0.17128  0.64419  1.0000
  H   H27       1.0  0.07384  0.67128  0.14419  1.0000
  H   H28       1.0  0.57384  0.82872  0.35581  1.0000
  C   C1        1.0  0.46642  0.99580  0.83615  1.0000
  C   C2        1.0  0.96642  0.50420  0.66385  1.0000
  C   C3        1.0  0.53358  0.00420  0.16385  1.0000
  C   C4        1.0  0.03358  0.49580  0.33615  1.0000
  C   C5        1.0  0.60196  0.05515  0.89303  1.0000
  C   C6        1.0  0.10196  0.44486  0.60697  1.0000
  C   C7        1.0  0.39804  0.94486  0.10697  1.0000
  C   C8        1.0  0.89804  0.55514  0.39303  1.0000
  C   C9        1.0  0.57271  0.16463  0.93335  1.0000
  C   C10       1.0  0.07271  0.33537  0.56665  1.0000
  C   C11       1.0  0.42729  0.83537  0.06665  1.0000
  C   C12       1.0  0.92729  0.66463  0.43335  1.0000
  C   C13       1.0  0.40941  0.21184  0.91564  1.0000
  C   C14       1.0  0.90941  0.28816  0.58436  1.0000
  C   C15       1.0  0.59059  0.78816  0.08436  1.0000
  C   C16       1.0  0.09059  0.71184  0.41564  1.0000
  C   C17       1.0  0.28046  0.14744  0.85777  1.0000
  C   C18       1.0  0.78046  0.35256  0.64223  1.0000
  C   C19       1.0  0.71954  0.85256  0.14223  1.0000
  C   C20       1.0  0.21954  0.64744  0.35777  1.0000
  C   C21       1.0  0.10280  0.19251  0.83362  1.0000
  C   C22       1.0  0.60280  0.30749  0.66638  1.0000
  C   C23       1.0  0.89720  0.80749  0.16638  1.0000
  C   C24       1.0  0.39720  0.69251  0.33362  1.0000
  C   C25       1.0  0.06333  0.31005  0.87305  1.0000
  C   C26       1.0  0.56333  0.18995  0.62695  1.0000
  C   C27       1.0  0.93667  0.68995  0.12695  1.0000
  C   C28       1.0  0.43667  0.81005  0.37305  1.0000
  C   C29       1.0  0.79605  0.95005  0.52208  1.0000
  C   C30       1.0  0.29606  0.54995  0.97791  1.0000
  C   C31       1.0  0.20395  0.04995  0.47791  1.0000
  C   C32       1.0  0.70394  0.45005  0.02209  1.0000
  C   C33       1.0  0.85861  0.78159  0.86293  1.0000
  C   C34       1.0  0.35861  0.71841  0.63707  1.0000
  C   C35       1.0  0.14139  0.21841  0.13707  1.0000
  C   C36       1.0  0.64139  0.28159  0.36293  1.0000
  S   S1        1.0  0.77572  0.89241  0.63359  1.0000
  S   S2        1.0  0.27572  0.60759  0.86641  1.0000
  S   S3        1.0  0.22428  0.10759  0.36641  1.0000
  S   S4        1.0  0.72428  0.39241  0.13359  1.0000
  S   S5        1.0  0.99479  0.87792  0.91228  1.0000
  S   S6        1.0  0.49478  0.62208  0.58771  1.0000
  S   S7        1.0  0.00522  0.12208  0.08771  1.0000
  S   S8        1.0  0.50521  0.37792  0.41229  1.0000
  N   N1        1.0  0.31051  0.04110  0.81888  1.0000
  N   N2        1.0  0.81051  0.45890  0.68112  1.0000
  N   N3        1.0  0.68949  0.95890  0.18112  1.0000
  N   N4        1.0  0.18949  0.54110  0.31888  1.0000
  N   N5        1.0  0.80523  0.98993  0.44023  1.0000
  N   N6        1.0  0.30523  0.51007  0.05977  1.0000
  N   N7        1.0  0.19477  0.01007  0.55977  1.0000
  N   N8        1.0  0.69477  0.48993  0.94023  1.0000
  N   N9        1.0  0.75707  0.71284  0.82819  1.0000
  N   N10       1.0  0.25707  0.78716  0.67181  1.0000
  N   N11       1.0  0.24292  0.28716  0.17181  1.0000
  N   N12       1.0  0.74293  0.21284  0.32819  1.0000
  O   O1        1.0  0.99366  0.13359  0.77913  1.0000
  O   O2        1.0  0.49366  0.36641  0.72087  1.0000
  O   O3        1.0  0.00633  0.86641  0.22087  1.0000
  O   O4        1.0  0.50634  0.63359  0.27913  1.0000
