data_image0
_chemical_formula_structural       La2H18C14N20O10
_chemical_formula_sum              "La2 H18 C14 N20 O10"
_cell_length_a       8.97468
_cell_length_b       10.1041
_cell_length_c       10.1042
_cell_angle_alpha    78.0814
_cell_angle_beta     63.6309
_cell_angle_gamma    63.6312

_space_group_name_H-M_alt    "P 1"
_space_group_IT_number       1

loop_
  _space_group_symop_operation_xyz
  'x, y, z'

loop_
  _atom_site_type_symbol
  _atom_site_label
  _atom_site_symmetry_multiplicity
  _atom_site_fract_x
  _atom_site_fract_y
  _atom_site_fract_z
  _atom_site_occupancy
  La  La1       1.0  0.25000  0.54035  0.95965  1.0000
  La  La2       1.0  0.75001  0.95964  0.54036  1.0000
  H   H1        1.0  0.42875  0.34085  0.60483  1.0000
  H   H2        1.0  0.07123  0.89517  0.15916  1.0000
  H   H3        1.0  0.37531  0.15893  0.89502  1.0000
  H   H4        1.0  0.12468  0.60499  0.34106  1.0000
  H   H5        1.0  0.37870  0.37068  0.37081  1.0000
  H   H6        1.0  0.12129  0.12919  0.12933  1.0000
  H   H7        1.0  0.35338  0.23627  0.17148  1.0000
  H   H8        1.0  0.14663  0.32851  0.26371  1.0000
  H   H9        1.0  0.76112  0.26372  0.32855  1.0000
  H   H10       1.0  0.73881  0.17150  0.23632  1.0000
  H   H11       1.0  0.48877  0.57622  0.10630  1.0000
  H   H12       1.0  0.01123  0.39370  0.92377  1.0000
  H   H13       1.0  0.17125  0.92373  0.39376  1.0000
  H   H14       1.0  0.32876  0.10624  0.57626  1.0000
  H   H15       1.0  0.61287  0.44337  0.98546  1.0000
  H   H16       1.0  0.88713  0.51454  0.05663  1.0000
  H   H17       1.0  0.04171  0.05660  0.51454  1.0000
  H   H18       1.0  0.45830  0.98546  0.44340  1.0000
  C   C1        1.0  0.97452  0.77565  0.77552  1.0000
  C   C2        1.0  0.52548  0.72448  0.72436  1.0000
  C   C3        1.0  0.08718  0.66286  0.66277  1.0000
  C   C4        1.0  0.41282  0.83723  0.83715  1.0000
  C   C5        1.0  0.32196  0.43839  0.58392  1.0000
  C   C6        1.0  0.17804  0.91608  0.06161  1.0000
  C   C7        1.0  0.34490  0.06152  0.91597  1.0000
  C   C8        1.0  0.15510  0.58403  0.43848  1.0000
  C   C9        1.0  0.29446  0.45519  0.45521  1.0000
  C   C10       1.0  0.20555  0.04479  0.04482  1.0000
  C   C11       1.0  0.81588  0.24991  0.74991  1.0000
  C   C12       1.0  0.68412  0.75008  0.25009  1.0000
  C   C13       1.0  0.65071  0.24997  0.74989  1.0000
  C   C14       1.0  0.84929  0.75011  0.25003  1.0000
  N   N1        1.0  0.00757  0.77738  0.89194  1.0000
  N   N2        1.0  0.49243  0.60806  0.72262  1.0000
  N   N3        1.0  0.67676  0.72262  0.60794  1.0000
  N   N4        1.0  0.82325  0.89206  0.77738  1.0000
  N   N5        1.0  0.87204  0.89953  0.96749  1.0000
  N   N6        1.0  0.62795  0.53252  0.60047  1.0000
  N   N7        1.0  0.73890  0.60040  0.53252  1.0000
  N   N8        1.0  0.76110  0.96749  0.89960  1.0000
  N   N9        1.0  0.21834  0.54218  0.68877  1.0000
  N   N10       1.0  0.28166  0.81122  0.95782  1.0000
  N   N11       1.0  0.44957  0.95778  0.81107  1.0000
  N   N12       1.0  0.05043  0.68894  0.54222  1.0000
  N   N13       1.0  0.81581  0.32434  0.84622  1.0000
  N   N14       1.0  0.68419  0.65377  0.17567  1.0000
  N   N15       1.0  0.98659  0.17549  0.65369  1.0000
  N   N16       1.0  0.51341  0.84630  0.32452  1.0000
  N   N17       1.0  0.99022  0.29500  0.80774  1.0000
  N   N18       1.0  0.50977  0.69225  0.20501  1.0000
  N   N19       1.0  0.09309  0.20482  0.69231  1.0000
  N   N20       1.0  0.40692  0.80768  0.29519  1.0000
  O   O1        1.0  0.49902  0.31494  0.85400  1.0000
  O   O2        1.0  0.00099  0.64599  0.18506  1.0000
  O   O3        1.0  0.66804  0.18507  0.64579  1.0000
  O   O4        1.0  0.83196  0.85421  0.31493  1.0000
  O   O5        1.0  0.25001  0.32745  0.17254  1.0000
  O   O6        1.0  0.75005  0.17252  0.32746  1.0000
  O   O7        1.0  0.48602  0.50397  0.05406  1.0000
  O   O8        1.0  0.01397  0.44594  0.99602  1.0000
  O   O9        1.0  0.04403  0.99606  0.44591  1.0000
  O   O10       1.0  0.45598  0.05410  0.50394  1.0000
