data_image0
_chemical_formula_structural       Zn2Mo8H28C32N12O26
_chemical_formula_sum              "Zn2 Mo8 H28 C32 N12 O26"
_cell_length_a       10.0734
_cell_length_b       11.5374
_cell_length_c       11.5714
_cell_angle_alpha    89.0071
_cell_angle_beta     74.6559
_cell_angle_gamma    74.6542

_space_group_name_H-M_alt    "P 1"
_space_group_IT_number       1

loop_
  _space_group_symop_operation_xyz
  'x, y, z'

loop_
  _atom_site_type_symbol
  _atom_site_label
  _atom_site_symmetry_multiplicity
  _atom_site_fract_x
  _atom_site_fract_y
  _atom_site_fract_z
  _atom_site_occupancy
  Zn  Zn1       1.0  0.86359  0.78323  0.74747  1.0000
  Zn  Zn2       1.0  0.13641  0.21677  0.25253  1.0000
  Mo  Mo1       1.0  0.39562  0.68767  0.68752  1.0000
  Mo  Mo2       1.0  0.60438  0.31233  0.31248  1.0000
  Mo  Mo3       1.0  0.49471  0.37425  0.59778  1.0000
  Mo  Mo4       1.0  0.50530  0.62575  0.40222  1.0000
  Mo  Mo5       1.0  0.19545  0.54091  0.56955  1.0000
  Mo  Mo6       1.0  0.80455  0.45909  0.43045  1.0000
  Mo  Mo7       1.0  0.70121  0.51423  0.72746  1.0000
  Mo  Mo8       1.0  0.29879  0.48577  0.27254  1.0000
  H   H1        1.0  0.64742  0.93324  0.38993  1.0000
  H   H2        1.0  0.35258  0.06676  0.61007  1.0000
  H   H3        1.0  0.72477  0.12184  0.47474  1.0000
  H   H4        1.0  0.27523  0.87816  0.52526  1.0000
  H   H5        1.0  0.86462  0.20150  0.59165  1.0000
  H   H6        1.0  0.13538  0.79851  0.40835  1.0000
  H   H7        1.0  0.99118  0.26624  0.72561  1.0000
  H   H8        1.0  0.00882  0.73376  0.27439  1.0000
  H   H9        1.0  0.07436  0.12352  0.87525  1.0000
  H   H10       1.0  0.92564  0.87648  0.12475  1.0000
  H   H11       1.0  0.02752  0.91936  0.88144  1.0000
  H   H12       1.0  0.97249  0.08064  0.11855  1.0000
  H   H13       1.0  0.54079  0.94828  0.77048  1.0000
  H   H14       1.0  0.45921  0.05173  0.22952  1.0000
  H   H15       1.0  0.29990  0.96180  0.90979  1.0000
  H   H16       1.0  0.70010  0.03820  0.09021  1.0000
  H   H17       1.0  0.28593  0.84639  0.09788  1.0000
  H   H18       1.0  0.71407  0.15361  0.90212  1.0000
  H   H19       1.0  0.51144  0.73284  0.14341  1.0000
  H   H20       1.0  0.48855  0.26717  0.85659  1.0000
  H   H21       1.0  0.76114  0.64875  0.18335  1.0000
  H   H22       1.0  0.23886  0.35125  0.81665  1.0000
  H   H23       1.0  0.05660  0.58388  0.10367  1.0000
  H   H24       1.0  0.94340  0.41612  0.89634  1.0000
  H   H25       1.0  0.74466  0.75186  0.50109  1.0000
  H   H26       1.0  0.25534  0.24814  0.49891  1.0000
  H   H27       1.0  0.11437  0.66484  0.89198  1.0000
  H   H28       1.0  0.88563  0.33517  0.10802  1.0000
  C   C1        1.0  0.70423  0.93661  0.45667  1.0000
  C   C2        1.0  0.29577  0.06339  0.54334  1.0000
  C   C3        1.0  0.74418  0.02962  0.50070  1.0000
  C   C4        1.0  0.25582  0.97038  0.49930  1.0000
  C   C5        1.0  0.81334  0.97795  0.58758  1.0000
  C   C6        1.0  0.18666  0.02205  0.41242  1.0000
  C   C7        1.0  0.88048  0.02628  0.66579  1.0000
  C   C8        1.0  0.11952  0.97372  0.33421  1.0000
  C   C9        1.0  0.90150  0.14154  0.65710  1.0000
  C   C10       1.0  0.09849  0.85846  0.34290  1.0000
  C   C11       1.0  0.97180  0.17759  0.73271  1.0000
  C   C12       1.0  0.02820  0.82241  0.26729  1.0000
  C   C13       1.0  0.01817  0.09822  0.81545  1.0000
  C   C14       1.0  0.98182  0.90178  0.18455  1.0000
  C   C15       1.0  0.99212  0.98531  0.81970  1.0000
  C   C16       1.0  0.00789  0.01469  0.18030  1.0000
  C   C17       1.0  0.52987  0.90331  0.85472  1.0000
  C   C18       1.0  0.47013  0.09669  0.14528  1.0000
  C   C19       1.0  0.39583  0.91024  0.93279  1.0000
  C   C20       1.0  0.60417  0.08976  0.06721  1.0000
  C   C21       1.0  0.38864  0.84684  0.03681  1.0000
  C   C22       1.0  0.61136  0.15316  0.96319  1.0000
  C   C23       1.0  0.51477  0.78260  0.06233  1.0000
  C   C24       1.0  0.48523  0.21740  0.93767  1.0000
  C   C25       1.0  0.64494  0.78154  0.98068  1.0000
  C   C26       1.0  0.35506  0.21846  0.01932  1.0000
  C   C27       1.0  0.78425  0.72085  0.99918  1.0000
  C   C28       1.0  0.21575  0.27916  0.00082  1.0000
  C   C29       1.0  0.82741  0.66325  0.09700  1.0000
  C   C30       1.0  0.17259  0.33675  0.90300  1.0000
  C   C31       1.0  0.97599  0.62891  0.05935  1.0000
  C   C32       1.0  0.02401  0.37109  0.94065  1.0000
  N   N1        1.0  0.74880  0.83785  0.51563  1.0000
  N   N2        1.0  0.25120  0.16215  0.48437  1.0000
  N   N3        1.0  0.81522  0.86055  0.59508  1.0000
  N   N4        1.0  0.18478  0.13945  0.40492  1.0000
  N   N5        1.0  0.92470  0.94998  0.74691  1.0000
  N   N6        1.0  0.07530  0.05002  0.25309  1.0000
  N   N7        1.0  0.65117  0.83926  0.87696  1.0000
  N   N8        1.0  0.34883  0.16074  0.12304  1.0000
  N   N9        1.0  0.90054  0.72069  0.90853  1.0000
  N   N10       1.0  0.09946  0.27931  0.09147  1.0000
  N   N11       1.0  0.01483  0.66438  0.94618  1.0000
  N   N12       1.0  0.98517  0.33562  0.05382  1.0000
  O   O1        1.0  0.77328  0.63660  0.70277  1.0000
  O   O2        1.0  0.22673  0.36340  0.29724  1.0000
  O   O3        1.0  0.13737  0.41330  0.59234  1.0000
  O   O4        1.0  0.86263  0.58670  0.40766  1.0000
  O   O5        1.0  0.05970  0.65658  0.65586  1.0000
  O   O6        1.0  0.94031  0.34342  0.34414  1.0000
  O   O7        1.0  0.42955  0.25120  0.62640  1.0000
  O   O8        1.0  0.57045  0.74880  0.37360  1.0000
  O   O9        1.0  0.32694  0.50484  0.67530  1.0000
  O   O10       1.0  0.67306  0.49516  0.32470  1.0000
  O   O11       1.0  0.58704  0.37731  0.70800  1.0000
  O   O12       1.0  0.41296  0.62268  0.29200  1.0000
  O   O13       1.0  0.66505  0.31703  0.46382  1.0000
  O   O14       1.0  0.33495  0.68297  0.53618  1.0000
  O   O15       1.0  0.41890  0.44226  0.45175  1.0000
  O   O16       1.0  0.58111  0.55773  0.54825  1.0000
  O   O17       1.0  0.45844  0.81168  0.65592  1.0000
  O   O18       1.0  0.54157  0.18832  0.34408  1.0000
  O   O19       1.0  0.50602  0.60375  0.78824  1.0000
  O   O20       1.0  0.49398  0.39624  0.21176  1.0000
  O   O21       1.0  0.75368  0.44785  0.84680  1.0000
  O   O22       1.0  0.24632  0.55215  0.15320  1.0000
  O   O23       1.0  0.82479  0.41971  0.58534  1.0000
  O   O24       1.0  0.17521  0.58029  0.41466  1.0000
  O   O25       1.0  0.23254  0.73858  0.79272  1.0000
  O   O26       1.0  0.76746  0.26142  0.20728  1.0000
