data_image0
_chemical_formula_structural       Ag2H28C36N10O6
_chemical_formula_sum              "Ag2 H28 C36 N10 O6"
_cell_length_a       8.99402
_cell_length_b       9.71443
_cell_length_c       10.7209
_cell_angle_alpha    80.709
_cell_angle_beta     75.4582
_cell_angle_gamma    66.9813

_space_group_name_H-M_alt    "P 1"
_space_group_IT_number       1

loop_
  _space_group_symop_operation_xyz
  'x, y, z'

loop_
  _atom_site_type_symbol
  _atom_site_label
  _atom_site_symmetry_multiplicity
  _atom_site_fract_x
  _atom_site_fract_y
  _atom_site_fract_z
  _atom_site_occupancy
  Ag  Ag1       1.0  0.46019  0.37916  0.45567  1.0000
  Ag  Ag2       1.0  0.53982  0.62084  0.54433  1.0000
  H   H1        1.0  0.30652  0.14922  0.53832  1.0000
  H   H2        1.0  0.69347  0.85079  0.46168  1.0000
  H   H3        1.0  0.03764  0.12579  0.64818  1.0000
  H   H4        1.0  0.96236  0.87421  0.35182  1.0000
  H   H5        1.0  0.80716  0.35042  0.74955  1.0000
  H   H6        1.0  0.19284  0.64957  0.25045  1.0000
  H   H7        1.0  0.12189  0.60372  0.59862  1.0000
  H   H8        1.0  0.87811  0.39628  0.40138  1.0000
  H   H9        1.0  0.84317  0.73254  0.72016  1.0000
  H   H10       1.0  0.15682  0.26746  0.27984  1.0000
  H   H11       1.0  0.46214  0.62353  0.01920  1.0000
  H   H12       1.0  0.53786  0.37648  0.98080  1.0000
  H   H13       1.0  0.23566  0.84385  0.11933  1.0000
  H   H14       1.0  0.76435  0.15616  0.88068  1.0000
  H   H15       1.0  0.36288  0.12912  0.79351  1.0000
  H   H16       1.0  0.63712  0.87088  0.20649  1.0000
  H   H17       1.0  0.59902  0.90995  0.69728  1.0000
  H   H18       1.0  0.40097  0.09005  0.30272  1.0000
  H   H19       1.0  0.01883  0.02335  0.14649  1.0000
  H   H20       1.0  0.98117  0.97665  0.85351  1.0000
  H   H21       1.0  0.77892  0.16333  0.30888  1.0000
  H   H22       1.0  0.22108  0.83666  0.69112  1.0000
  H   H23       1.0  0.52861  0.62125  0.25562  1.0000
  H   H24       1.0  0.47139  0.37875  0.74438  1.0000
  H   H25       1.0  0.73725  0.64223  0.05548  1.0000
  H   H26       1.0  0.26276  0.35777  0.94453  1.0000
  H   H27       1.0  0.96750  0.40410  0.97416  1.0000
  H   H28       1.0  0.03250  0.59590  0.02584  1.0000
  C   C1        1.0  0.20353  0.24537  0.58091  1.0000
  C   C2        1.0  0.79646  0.75463  0.41909  1.0000
  C   C3        1.0  0.05410  0.23175  0.64499  1.0000
  C   C4        1.0  0.94590  0.76824  0.35501  1.0000
  C   C5        1.0  0.92636  0.35564  0.69997  1.0000
  C   C6        1.0  0.07364  0.64436  0.30003  1.0000
  C   C7        1.0  0.94891  0.49286  0.68660  1.0000
  C   C8        1.0  0.05108  0.50714  0.31340  1.0000
  C   C9        1.0  0.10073  0.49849  0.61664  1.0000
  C   C10       1.0  0.89927  0.50151  0.38336  1.0000
  C   C11       1.0  0.81761  0.62800  0.74021  1.0000
  C   C12       1.0  0.18239  0.37200  0.25979  1.0000
  C   C13       1.0  0.55042  0.75172  0.85486  1.0000
  C   C14       1.0  0.44958  0.24829  0.14514  1.0000
  C   C15       1.0  0.44175  0.73528  0.97158  1.0000
  C   C16       1.0  0.55825  0.26472  0.02842  1.0000
  C   C17       1.0  0.31283  0.85839  0.02600  1.0000
  C   C18       1.0  0.68717  0.14162  0.97401  1.0000
  C   C19       1.0  0.28228  0.00209  0.96120  1.0000
  C   C20       1.0  0.71772  0.99792  0.03880  1.0000
  C   C21       1.0  0.38858  0.01767  0.84316  1.0000
  C   C22       1.0  0.61142  0.98233  0.15685  1.0000
  C   C23       1.0  0.52063  0.89506  0.79002  1.0000
  C   C24       1.0  0.47937  0.10494  0.20999  1.0000
  C   C25       1.0  0.02891  0.12811  0.09548  1.0000
  C   C26       1.0  0.97110  0.87189  0.90453  1.0000
  C   C27       1.0  0.89366  0.26671  0.13632  1.0000
  C   C28       1.0  0.10635  0.73329  0.86369  1.0000
  C   C29       1.0  0.77395  0.26628  0.24861  1.0000
  C   C30       1.0  0.22605  0.73372  0.75139  1.0000
  C   C31       1.0  0.63451  0.52330  0.21921  1.0000
  C   C32       1.0  0.36549  0.47670  0.78080  1.0000
  C   C33       1.0  0.74984  0.53347  0.10729  1.0000
  C   C34       1.0  0.25017  0.46653  0.89271  1.0000
  C   C35       1.0  0.87835  0.40375  0.06397  1.0000
  C   C36       1.0  0.12166  0.59625  0.93604  1.0000
  N   N1        1.0  0.22641  0.37698  0.56684  1.0000
  N   N2        1.0  0.77359  0.62302  0.43315  1.0000
  N   N3        1.0  0.67952  0.62216  0.80824  1.0000
  N   N4        1.0  0.32048  0.37784  0.19176  1.0000
  N   N5        1.0  0.15116  0.13278  0.00360  1.0000
  N   N6        1.0  0.84884  0.86722  0.99640  1.0000
  N   N7        1.0  0.64662  0.39185  0.28838  1.0000
  N   N8        1.0  0.35338  0.60815  0.71162  1.0000
  N   N9        1.0  0.73042  0.11400  0.58883  1.0000
  N   N10       1.0  0.26959  0.88599  0.41116  1.0000
  O   O1        1.0  0.83586  0.01066  0.64287  1.0000
  O   O2        1.0  0.16414  0.98934  0.35712  1.0000
  O   O3        1.0  0.69594  0.25117  0.60605  1.0000
  O   O4        1.0  0.30406  0.74882  0.39395  1.0000
  O   O5        1.0  0.65572  0.08348  0.51645  1.0000
  O   O6        1.0  0.34428  0.91652  0.48354  1.0000
