data_image0
_chemical_formula_structural       Na2H16C4O10
_chemical_formula_sum              "Na2 H16 C4 O10"
_cell_length_a       5.39613
_cell_length_b       6.61497
_cell_length_c       8.99657
_cell_angle_alpha    98.0591
_cell_angle_beta     102.404
_cell_angle_gamma    109.533

_space_group_name_H-M_alt    "P 1"
_space_group_IT_number       1

loop_
  _space_group_symop_operation_xyz
  'x, y, z'

loop_
  _atom_site_type_symbol
  _atom_site_label
  _atom_site_symmetry_multiplicity
  _atom_site_fract_x
  _atom_site_fract_y
  _atom_site_fract_z
  _atom_site_occupancy
  Na  Na1       1.0  0.16390  0.36311  0.90262  1.0000
  Na  Na2       1.0  0.83609  0.63688  0.09737  1.0000
  H   H1        1.0  0.21336  0.23272  0.58258  1.0000
  H   H2        1.0  0.78668  0.76730  0.41743  1.0000
  H   H3        1.0  0.26269  0.03384  0.44816  1.0000
  H   H4        1.0  0.73733  0.96617  0.55186  1.0000
  H   H5        1.0  0.78614  0.14705  0.06990  1.0000
  H   H6        1.0  0.21385  0.85294  0.93010  1.0000
  H   H7        1.0  0.59544  0.17788  0.92574  1.0000
  H   H8        1.0  0.40454  0.82211  0.07426  1.0000
  H   H9        1.0  0.02192  0.55562  0.66653  1.0000
  H   H10       1.0  0.97809  0.44438  0.33347  1.0000
  H   H11       1.0  0.78881  0.33968  0.55923  1.0000
  H   H12       1.0  0.21121  0.66032  0.44077  1.0000
  H   H13       1.0  0.50554  0.33061  0.22538  1.0000
  H   H14       1.0  0.49445  0.66939  0.77462  1.0000
  H   H15       1.0  0.33473  0.48271  0.23563  1.0000
  H   H16       1.0  0.66526  0.51728  0.76437  1.0000
  C   C1        1.0  0.15656  0.05589  0.53684  1.0000
  C   C2        1.0  0.84345  0.94412  0.46317  1.0000
  C   C3        1.0  0.23835  0.95291  0.66993  1.0000
  C   C4        1.0  0.76166  0.04709  0.33007  1.0000
  O   O1        1.0  0.23922  0.03671  0.80639  1.0000
  O   O2        1.0  0.76077  0.96330  0.19362  1.0000
  O   O3        1.0  0.29113  0.77933  0.63711  1.0000
  O   O4        1.0  0.70888  0.22069  0.36289  1.0000
  O   O5        1.0  0.78286  0.24612  0.99642  1.0000
  O   O6        1.0  0.21712  0.75388  0.00358  1.0000
  O   O7        1.0  0.86952  0.42392  0.67075  1.0000
  O   O8        1.0  0.13048  0.57608  0.32925  1.0000
  O   O9        1.0  0.43641  0.42795  0.17005  1.0000
  O   O10       1.0  0.56358  0.57203  0.82995  1.0000
