data_image0
_chemical_formula_structural       Cd4H20C24N24O12
_chemical_formula_sum              "Cd4 H20 C24 N24 O12"
_cell_length_a       5.92595
_cell_length_b       11.433
_cell_length_c       13.1526
_cell_angle_alpha    89.9999
_cell_angle_beta     90.0001
_cell_angle_gamma    93.6737

_space_group_name_H-M_alt    "P 1"
_space_group_IT_number       1

loop_
  _space_group_symop_operation_xyz
  'x, y, z'

loop_
  _atom_site_type_symbol
  _atom_site_label
  _atom_site_symmetry_multiplicity
  _atom_site_fract_x
  _atom_site_fract_y
  _atom_site_fract_z
  _atom_site_occupancy
  Cd  Cd1       1.0  0.42774  0.15726  0.54964  1.0000
  Cd  Cd2       1.0  0.07226  0.34274  0.04964  1.0000
  Cd  Cd3       1.0  0.57224  0.84274  0.45036  1.0000
  Cd  Cd4       1.0  0.92776  0.65726  0.95036  1.0000
  H   H1        1.0  0.43115  0.41329  0.60182  1.0000
  H   H2        1.0  0.06884  0.08671  0.10182  1.0000
  H   H3        1.0  0.56885  0.58670  0.39818  1.0000
  H   H4        1.0  0.93116  0.91330  0.89818  1.0000
  H   H5        1.0  0.28001  0.38377  0.50117  1.0000
  H   H6        1.0  0.21999  0.11623  0.00117  1.0000
  H   H7        1.0  0.71998  0.61622  0.49883  1.0000
  H   H8        1.0  0.78002  0.88378  0.99882  1.0000
  H   H9        1.0  0.97425  0.31991  0.63762  1.0000
  H   H10       1.0  0.52574  0.18009  0.13763  1.0000
  H   H11       1.0  0.02576  0.68008  0.36237  1.0000
  H   H12       1.0  0.47426  0.81991  0.86237  1.0000
  H   H13       1.0  0.16538  0.37480  0.80351  1.0000
  H   H14       1.0  0.33462  0.12520  0.30351  1.0000
  H   H15       1.0  0.83463  0.62520  0.19649  1.0000
  H   H16       1.0  0.66537  0.87479  0.69648  1.0000
  H   H17       1.0  0.66946  0.17265  0.95942  1.0000
  H   H18       1.0  0.83055  0.32735  0.45942  1.0000
  H   H19       1.0  0.33055  0.82736  0.04058  1.0000
  H   H20       1.0  0.16944  0.67264  0.54058  1.0000
  C   C1        1.0  0.40809  0.11275  0.79313  1.0000
  C   C2        1.0  0.09191  0.38725  0.29314  1.0000
  C   C3        1.0  0.59192  0.88725  0.20686  1.0000
  C   C4        1.0  0.90808  0.61275  0.70687  1.0000
  C   C5        1.0  0.62052  0.18418  0.79630  1.0000
  C   C6        1.0  0.87948  0.31582  0.29630  1.0000
  C   C7        1.0  0.37948  0.81582  0.20370  1.0000
  C   C8        1.0  0.12051  0.68418  0.70370  1.0000
  C   C9        1.0  0.89949  0.29033  0.70945  1.0000
  C   C10       1.0  0.60049  0.20966  0.20945  1.0000
  C   C11       1.0  0.10050  0.70966  0.29055  1.0000
  C   C12       1.0  0.39950  0.79033  0.79055  1.0000
  C   C13       1.0  0.00967  0.31852  0.80098  1.0000
  C   C14       1.0  0.49034  0.18149  0.30099  1.0000
  C   C15       1.0  0.99035  0.68149  0.19901  1.0000
  C   C16       1.0  0.50966  0.81851  0.69901  1.0000
  C   C17       1.0  0.73492  0.20831  0.88787  1.0000
  C   C18       1.0  0.76509  0.29169  0.38788  1.0000
  C   C19       1.0  0.26511  0.79170  0.11212  1.0000
  C   C20       1.0  0.23490  0.70831  0.61213  1.0000
  C   C21       1.0  0.92766  0.05240  0.51320  1.0000
  C   C22       1.0  0.57234  0.44760  0.01321  1.0000
  C   C23       1.0  0.07231  0.94759  0.48679  1.0000
  C   C24       1.0  0.42768  0.55241  0.98680  1.0000
  N   N1        1.0  0.30438  0.08095  0.70537  1.0000
  N   N2        1.0  0.19563  0.41905  0.20537  1.0000
  N   N3        1.0  0.69563  0.91905  0.29463  1.0000
  N   N4        1.0  0.80437  0.58095  0.79463  1.0000
  N   N5        1.0  0.11546  0.01702  0.73077  1.0000
  N   N6        1.0  0.38454  0.48298  0.23077  1.0000
  N   N7        1.0  0.88454  0.98299  0.26923  1.0000
  N   N8        1.0  0.61545  0.51702  0.76924  1.0000
  N   N9        1.0  0.10680  0.01075  0.83107  1.0000
  N   N10       1.0  0.39321  0.48925  0.33107  1.0000
  N   N11       1.0  0.89321  0.98926  0.16893  1.0000
  N   N12       1.0  0.60678  0.51075  0.66893  1.0000
  N   N13       1.0  0.28735  0.06967  0.87288  1.0000
  N   N14       1.0  0.21266  0.43033  0.37288  1.0000
  N   N15       1.0  0.71267  0.93034  0.12712  1.0000
  N   N16       1.0  0.78733  0.56967  0.62713  1.0000
  N   N17       1.0  0.70338  0.22568  0.70705  1.0000
  N   N18       1.0  0.79663  0.27433  0.20706  1.0000
  N   N19       1.0  0.29664  0.77432  0.29294  1.0000
  N   N20       1.0  0.20336  0.72568  0.79295  1.0000
  N   N21       1.0  0.92575  0.27732  0.88977  1.0000
  N   N22       1.0  0.57424  0.22268  0.38976  1.0000
  N   N23       1.0  0.07425  0.72268  0.11024  1.0000
  N   N24       1.0  0.42573  0.77731  0.61023  1.0000
  O   O1        1.0  0.02342  0.15352  0.51706  1.0000
  O   O2        1.0  0.47656  0.34647  0.01706  1.0000
  O   O3        1.0  0.97657  0.84648  0.48294  1.0000
  O   O4        1.0  0.52344  0.65352  0.98295  1.0000
  O   O5        1.0  0.71765  0.02626  0.52840  1.0000
  O   O6        1.0  0.78235  0.47373  0.02841  1.0000
  O   O7        1.0  0.28234  0.97374  0.47159  1.0000
  O   O8        1.0  0.21766  0.52627  0.97160  1.0000
  O   O9        1.0  0.32922  0.35176  0.56748  1.0000
  O   O10       1.0  0.17078  0.14825  0.06748  1.0000
  O   O11       1.0  0.67077  0.64824  0.43253  1.0000
  O   O12       1.0  0.82923  0.85176  0.93252  1.0000
