data_image0
_chemical_formula_structural       Ag4H12C28S4N8O8
_chemical_formula_sum              "Ag4 H12 C28 S4 N8 O8"
_cell_length_a       5.10424
_cell_length_b       10.4524
_cell_length_c       14.6977
_cell_angle_alpha    89.9993
_cell_angle_beta     90.0022
_cell_angle_gamma    100.086

_space_group_name_H-M_alt    "P 1"
_space_group_IT_number       1

loop_
  _space_group_symop_operation_xyz
  'x, y, z'

loop_
  _atom_site_type_symbol
  _atom_site_label
  _atom_site_symmetry_multiplicity
  _atom_site_fract_x
  _atom_site_fract_y
  _atom_site_fract_z
  _atom_site_occupancy
  Ag  Ag1       1.0  0.76940  0.43732  0.44043  1.0000
  Ag  Ag2       1.0  0.23067  0.06267  0.94043  1.0000
  Ag  Ag3       1.0  0.23066  0.56271  0.55957  1.0000
  Ag  Ag4       1.0  0.76926  0.93730  0.05957  1.0000
  H   H1        1.0  0.80614  0.95603  0.27014  1.0000
  H   H2        1.0  0.19389  0.54396  0.77012  1.0000
  H   H3        1.0  0.19390  0.04396  0.72986  1.0000
  H   H4        1.0  0.80610  0.45603  0.22988  1.0000
  H   H5        1.0  0.43647  0.15972  0.47887  1.0000
  H   H6        1.0  0.56364  0.34029  0.97887  1.0000
  H   H7        1.0  0.56369  0.84034  0.52110  1.0000
  H   H8        1.0  0.43625  0.65966  0.02112  1.0000
  H   H9        1.0  0.74649  0.01023  0.43434  1.0000
  H   H10       1.0  0.25359  0.48979  0.93433  1.0000
  H   H11       1.0  0.25359  0.98982  0.56565  1.0000
  H   H12       1.0  0.74632  0.51016  0.06567  1.0000
  C   C1        1.0  0.13388  0.28586  0.36276  1.0000
  C   C2        1.0  0.86611  0.21413  0.86276  1.0000
  C   C3        1.0  0.86615  0.71416  0.63725  1.0000
  C   C4        1.0  0.13384  0.78586  0.13725  1.0000
  C   C5        1.0  0.67395  0.02204  0.29134  1.0000
  C   C6        1.0  0.32611  0.47797  0.79133  1.0000
  C   C7        1.0  0.32610  0.97797  0.70866  1.0000
  C   C8        1.0  0.67384  0.52200  0.20867  1.0000
  C   C9        1.0  0.32276  0.19511  0.34277  1.0000
  C   C10       1.0  0.67725  0.30489  0.84276  1.0000
  C   C11       1.0  0.67728  0.80492  0.65723  1.0000
  C   C12       1.0  0.32272  0.69510  0.15724  1.0000
  C   C13       1.0  0.36140  0.16577  0.25122  1.0000
  C   C14       1.0  0.63864  0.33423  0.75121  1.0000
  C   C15       1.0  0.63863  0.83423  0.74879  1.0000
  C   C16       1.0  0.36139  0.66577  0.24879  1.0000
  C   C17       1.0  0.53331  0.08027  0.22543  1.0000
  C   C18       1.0  0.46675  0.41975  0.72542  1.0000
  C   C19       1.0  0.46671  0.91972  0.77457  1.0000
  C   C20       1.0  0.53326  0.58025  0.27459  1.0000
  C   C21       1.0  0.46290  0.13700  0.40749  1.0000
  C   C22       1.0  0.53714  0.36301  0.90749  1.0000
  C   C23       1.0  0.53717  0.86303  0.59249  1.0000
  C   C24       1.0  0.46275  0.63695  0.09250  1.0000
  C   C25       1.0  0.63669  0.05209  0.38183  1.0000
  C   C26       1.0  0.36339  0.44794  0.88182  1.0000
  C   C27       1.0  0.36339  0.94793  0.61815  1.0000
  C   C28       1.0  0.63648  0.55201  0.11817  1.0000
  S   S1        1.0  0.22150  0.21949  0.15672  1.0000
  S   S2        1.0  0.77847  0.28050  0.65670  1.0000
  S   S3        1.0  0.77847  0.78049  0.84330  1.0000
  S   S4        1.0  0.22159  0.71952  0.34330  1.0000
  N   N1        1.0  0.54170  0.06447  0.13230  1.0000
  N   N2        1.0  0.45829  0.43554  0.63228  1.0000
  N   N3        1.0  0.45827  0.93552  0.86770  1.0000
  N   N4        1.0  0.54177  0.56449  0.36772  1.0000
  N   N5        1.0  0.39014  0.13044  0.08800  1.0000
  N   N6        1.0  0.60980  0.36954  0.58799  1.0000
  N   N7        1.0  0.60978  0.86954  0.91201  1.0000
  N   N8        1.0  0.39028  0.63050  0.41202  1.0000
  O   O1        1.0  0.03389  0.33223  0.29388  1.0000
  O   O2        1.0  0.96609  0.16775  0.79389  1.0000
  O   O3        1.0  0.96611  0.66779  0.70613  1.0000
  O   O4        1.0  0.03387  0.83224  0.20613  1.0000
  O   O5        1.0  0.08567  0.30950  0.44596  1.0000
  O   O6        1.0  0.91432  0.19050  0.94595  1.0000
  O   O7        1.0  0.91436  0.69053  0.55406  1.0000
  O   O8        1.0  0.08561  0.80947  0.05406  1.0000
