data_image0
_chemical_formula_structural       Cu6H12C20N32O8
_chemical_formula_sum              "Cu6 H12 C20 N32 O8"
_cell_length_a       7.48985
_cell_length_b       8.31646
_cell_length_c       14.8079
_cell_angle_alpha    90.0017
_cell_angle_beta     90.0036
_cell_angle_gamma    106.251

_space_group_name_H-M_alt    "P 1"
_space_group_IT_number       1

loop_
  _space_group_symop_operation_xyz
  'x, y, z'

loop_
  _atom_site_type_symbol
  _atom_site_label
  _atom_site_symmetry_multiplicity
  _atom_site_fract_x
  _atom_site_fract_y
  _atom_site_fract_z
  _atom_site_occupancy
  Cu  Cu1       1.0  0.06740  0.70545  0.01450  1.0000
  Cu  Cu2       1.0  0.43272  0.79470  0.51446  1.0000
  Cu  Cu3       1.0  0.93266  0.29466  0.98554  1.0000
  Cu  Cu4       1.0  0.56739  0.20548  0.48543  1.0000
  Cu  Cu5       1.0  0.50005  0.00005  0.00001  1.0000
  Cu  Cu6       1.0  0.00013  0.50007  0.50002  1.0000
  H   H1        1.0  0.44929  0.86320  0.19446  1.0000
  H   H2        1.0  0.05046  0.63652  0.69456  1.0000
  H   H3        1.0  0.55078  0.13685  0.80556  1.0000
  H   H4        1.0  0.94954  0.36376  0.30553  1.0000
  H   H5        1.0  0.62198  0.69703  0.28574  1.0000
  H   H6        1.0  0.87768  0.80260  0.78586  1.0000
  H   H7        1.0  0.37804  0.30300  0.71426  1.0000
  H   H8        1.0  0.12205  0.19753  0.21417  1.0000
  H   H9        1.0  0.89108  0.61981  0.20838  1.0000
  H   H10       1.0  0.60897  0.88028  0.70836  1.0000
  H   H11       1.0  0.10902  0.38027  0.79164  1.0000
  H   H12       1.0  0.39091  0.11990  0.29152  1.0000
  C   C1        1.0  0.82212  0.88296  0.95095  1.0000
  C   C2        1.0  0.67783  0.61701  0.45095  1.0000
  C   C3        1.0  0.17795  0.11711  0.04907  1.0000
  C   C4        1.0  0.32221  0.38290  0.54908  1.0000
  C   C5        1.0  0.75859  0.82611  0.04525  1.0000
  C   C6        1.0  0.74149  0.67394  0.54525  1.0000
  C   C7        1.0  0.24153  0.17400  0.95478  1.0000
  C   C8        1.0  0.25862  0.32613  0.45473  1.0000
  C   C9        1.0  0.56811  0.82758  0.16722  1.0000
  C   C10       1.0  0.93173  0.67222  0.66728  1.0000
  C   C11       1.0  0.43197  0.17249  0.83280  1.0000
  C   C12       1.0  0.06827  0.32799  0.33275  1.0000
  C   C13       1.0  0.66331  0.73578  0.21686  1.0000
  C   C14       1.0  0.83650  0.76401  0.71692  1.0000
  C   C15       1.0  0.33678  0.26430  0.78316  1.0000
  C   C16       1.0  0.16337  0.23615  0.28308  1.0000
  C   C17       1.0  0.80922  0.69175  0.17490  1.0000
  C   C18       1.0  0.69077  0.80826  0.67490  1.0000
  C   C19       1.0  0.19087  0.30834  0.82513  1.0000
  C   C20       1.0  0.30914  0.19187  0.32503  1.0000
  N   N1        1.0  0.31209  0.76848  0.95405  1.0000
  N   N2        1.0  0.18784  0.73185  0.45410  1.0000
  N   N3        1.0  0.68797  0.23162  0.04602  1.0000
  N   N4        1.0  0.81219  0.26830  0.54583  1.0000
  N   N5        1.0  0.31026  0.74819  0.87259  1.0000
  N   N6        1.0  0.18978  0.75166  0.37261  1.0000
  N   N7        1.0  0.68980  0.25170  0.12749  1.0000
  N   N8        1.0  0.81049  0.24807  0.62729  1.0000
  N   N9        1.0  0.31238  0.72927  0.79502  1.0000
  N   N10       1.0  0.18774  0.77016  0.29500  1.0000
  N   N11       1.0  0.68765  0.27038  0.20507  1.0000
  N   N12       1.0  0.81273  0.22920  0.70486  1.0000
  N   N13       1.0  0.11144  0.53242  0.09355  1.0000
  N   N14       1.0  0.38854  0.96730  0.59388  1.0000
  N   N15       1.0  0.88832  0.46733  0.90630  1.0000
  N   N16       1.0  0.61078  0.03202  0.40648  1.0000
  N   N17       1.0  0.25881  0.49909  0.09564  1.0000
  N   N18       1.0  0.24132  0.00085  0.59592  1.0000
  N   N19       1.0  0.74107  0.50087  0.90438  1.0000
  N   N20       1.0  0.75824  0.99892  0.40399  1.0000
  N   N21       1.0  0.39484  0.45757  0.09975  1.0000
  N   N22       1.0  0.10531  0.04248  0.59994  1.0000
  N   N23       1.0  0.60511  0.54256  0.90041  1.0000
  N   N24       1.0  0.89435  0.95754  0.39953  1.0000
  N   N25       1.0  0.85567  0.73787  0.08914  1.0000
  N   N26       1.0  0.64442  0.76221  0.58912  1.0000
  N   N27       1.0  0.14441  0.26221  0.91089  1.0000
  N   N28       1.0  0.35563  0.23787  0.41082  1.0000
  N   N29       1.0  0.61702  0.87184  0.08134  1.0000
  N   N30       1.0  0.88298  0.62809  0.58137  1.0000
  N   N31       1.0  0.38308  0.12825  0.91868  1.0000
  N   N32       1.0  0.11712  0.37204  0.41865  1.0000
  O   O1        1.0  0.73492  0.96410  0.90609  1.0000
  O   O2        1.0  0.76492  0.53576  0.40612  1.0000
  O   O3        1.0  0.26519  0.03601  0.09395  1.0000
  O   O4        1.0  0.23501  0.46398  0.59397  1.0000
  O   O5        1.0  0.97081  0.84776  0.92554  1.0000
  O   O6        1.0  0.52908  0.65218  0.42556  1.0000
  O   O7        1.0  0.02925  0.15228  0.07448  1.0000
  O   O8        1.0  0.47095  0.34769  0.57444  1.0000
