data_image0
_chemical_formula_structural       Zn2H26C36N6O14
_chemical_formula_sum              "Zn2 H26 C36 N6 O14"
_cell_length_a       8.56865
_cell_length_b       9.06459
_cell_length_c       11.9886
_cell_angle_alpha    84.2589
_cell_angle_beta     77.3369
_cell_angle_gamma    74.7973

_space_group_name_H-M_alt    "P 1"
_space_group_IT_number       1

loop_
  _space_group_symop_operation_xyz
  'x, y, z'

loop_
  _atom_site_type_symbol
  _atom_site_label
  _atom_site_symmetry_multiplicity
  _atom_site_fract_x
  _atom_site_fract_y
  _atom_site_fract_z
  _atom_site_occupancy
  Zn  Zn1       1.0  0.10141  0.50737  0.27841  1.0000
  Zn  Zn2       1.0  0.89859  0.49264  0.72159  1.0000
  H   H1        1.0  0.84452  0.48256  0.43988  1.0000
  H   H2        1.0  0.15548  0.51744  0.56012  1.0000
  H   H3        1.0  0.97805  0.33076  0.46304  1.0000
  H   H4        1.0  0.02195  0.66924  0.53696  1.0000
  H   H5        1.0  0.63353  0.84532  0.28582  1.0000
  H   H6        1.0  0.36646  0.15468  0.71418  1.0000
  H   H7        1.0  0.90001  0.06826  0.45252  1.0000
  H   H8        1.0  0.09999  0.93173  0.54748  1.0000
  H   H9        1.0  0.66246  0.29667  0.47669  1.0000
  H   H10       1.0  0.33754  0.70333  0.52331  1.0000
  H   H11       1.0  0.26751  0.78509  0.20433  1.0000
  H   H12       1.0  0.73250  0.21491  0.79567  1.0000
  H   H13       1.0  0.41588  0.89183  0.02284  1.0000
  H   H14       1.0  0.58413  0.10816  0.97717  1.0000
  H   H15       1.0  0.46240  0.75374  0.84087  1.0000
  H   H16       1.0  0.53760  0.24626  0.15914  1.0000
  H   H17       1.0  0.35342  0.52718  0.84575  1.0000
  H   H18       1.0  0.64658  0.47283  0.15424  1.0000
  H   H19       1.0  0.26186  0.33370  0.86438  1.0000
  H   H20       1.0  0.73814  0.66630  0.13562  1.0000
  H   H21       1.0  0.14786  0.10791  0.89918  1.0000
  H   H22       1.0  0.85215  0.89208  0.10082  1.0000
  H   H23       1.0  0.99830  0.04879  0.09964  1.0000
  H   H24       1.0  0.00171  0.95120  0.90036  1.0000
  H   H25       1.0  0.96925  0.22929  0.25307  1.0000
  H   H26       1.0  0.03076  0.77071  0.74693  1.0000
  C   C1        1.0  0.51232  0.20182  0.39618  1.0000
  C   C2        1.0  0.48767  0.79818  0.60382  1.0000
  C   C3        1.0  0.51003  0.07328  0.34074  1.0000
  C   C4        1.0  0.48996  0.92673  0.65926  1.0000
  C   C5        1.0  0.64256  0.94500  0.32506  1.0000
  C   C6        1.0  0.35743  0.05500  0.67494  1.0000
  C   C7        1.0  0.78406  0.94203  0.36560  1.0000
  C   C8        1.0  0.21593  0.05797  0.63440  1.0000
  C   C9        1.0  0.79039  0.06967  0.42011  1.0000
  C   C10       1.0  0.20961  0.93033  0.57988  1.0000
  C   C11       1.0  0.65631  0.19741  0.43498  1.0000
  C   C12       1.0  0.34369  0.80258  0.56502  1.0000
  C   C13       1.0  0.37183  0.34438  0.40992  1.0000
  C   C14       1.0  0.62817  0.65562  0.59008  1.0000
  C   C15       1.0  0.92367  0.80009  0.35395  1.0000
  C   C16       1.0  0.07632  0.19991  0.64604  1.0000
  C   C17       1.0  0.28939  0.73123  0.12297  1.0000
  C   C18       1.0  0.71062  0.26876  0.87703  1.0000
  C   C19       1.0  0.37164  0.79004  0.02184  1.0000
  C   C20       1.0  0.62837  0.20996  0.97817  1.0000
  C   C21       1.0  0.39560  0.71467  0.92135  1.0000
  C   C22       1.0  0.60441  0.28533  0.07866  1.0000
  C   C23       1.0  0.33518  0.58580  0.92418  1.0000
  C   C24       1.0  0.66482  0.41420  0.07582  1.0000
  C   C25       1.0  0.25310  0.53385  0.02877  1.0000
  C   C26       1.0  0.74690  0.46615  0.97123  1.0000
  C   C27       1.0  0.18297  0.39860  0.04121  1.0000
  C   C28       1.0  0.81704  0.60140  0.95879  1.0000
  C   C29       1.0  0.19973  0.30676  0.95031  1.0000
  C   C30       1.0  0.80027  0.69324  0.04969  1.0000
  C   C31       1.0  0.13342  0.17959  0.97019  1.0000
  C   C32       1.0  0.86659  0.82040  0.02981  1.0000
  C   C33       1.0  0.05022  0.14795  0.07977  1.0000
  C   C34       1.0  0.94978  0.85204  0.92023  1.0000
  C   C35       1.0  0.03442  0.24639  0.16589  1.0000
  C   C36       1.0  0.96558  0.75361  0.83411  1.0000
  N   N1        1.0  0.23317  0.60616  0.12578  1.0000
  N   N2        1.0  0.76684  0.39383  0.87422  1.0000
  N   N3        1.0  0.09981  0.36779  0.14701  1.0000
  N   N4        1.0  0.90020  0.63221  0.85299  1.0000
  N   N5        1.0  0.36423  0.06628  0.29875  1.0000
  N   N6        1.0  0.63576  0.93372  0.70125  1.0000
  O   O1        1.0  0.32173  0.39899  0.31744  1.0000
  O   O2        1.0  0.67827  0.60101  0.68256  1.0000
  O   O3        1.0  0.94679  0.40721  0.40140  1.0000
  O   O4        1.0  0.05321  0.59279  0.59860  1.0000
  O   O5        1.0  0.32293  0.39627  0.50787  1.0000
  O   O6        1.0  0.67707  0.60373  0.49213  1.0000
  O   O7        1.0  0.03473  0.78273  0.41119  1.0000
  O   O8        1.0  0.96525  0.21725  0.58881  1.0000
  O   O9        1.0  0.91927  0.70336  0.28384  1.0000
  O   O10       1.0  0.08073  0.29664  0.71615  1.0000
  O   O11       1.0  0.22612  0.11714  0.35779  1.0000
  O   O12       1.0  0.77387  0.88287  0.64221  1.0000
  O   O13       1.0  0.38929  0.00642  0.20498  1.0000
  O   O14       1.0  0.61070  0.99359  0.79502  1.0000
