data_image0
_chemical_formula_structural       K4H32C32N4O20
_chemical_formula_sum              "K4 H32 C32 N4 O20"
_cell_length_a       4.34575
_cell_length_b       7.79674
_cell_length_c       27.5687
_cell_angle_alpha    90
_cell_angle_beta     90.0002
_cell_angle_gamma    90

_space_group_name_H-M_alt    "P 1"
_space_group_IT_number       1

loop_
  _space_group_symop_operation_xyz
  'x, y, z'

loop_
  _atom_site_type_symbol
  _atom_site_label
  _atom_site_symmetry_multiplicity
  _atom_site_fract_x
  _atom_site_fract_y
  _atom_site_fract_z
  _atom_site_occupancy
  K   K1        1.0  0.62802  0.52136  0.97831  1.0000
  K   K2        1.0  0.87198  0.47864  0.47831  1.0000
  K   K3        1.0  0.12802  0.97864  0.02169  1.0000
  K   K4        1.0  0.37198  0.02136  0.52169  1.0000
  H   H1        1.0  0.30791  0.58607  0.25837  1.0000
  H   H2        1.0  0.19210  0.41393  0.75837  1.0000
  H   H3        1.0  0.80790  0.91393  0.74164  1.0000
  H   H4        1.0  0.69210  0.08608  0.24163  1.0000
  H   H5        1.0  0.93322  0.49067  0.26396  1.0000
  H   H6        1.0  0.56678  0.50933  0.76396  1.0000
  H   H7        1.0  0.43321  0.00933  0.73604  1.0000
  H   H8        1.0  0.06678  0.99067  0.23604  1.0000
  H   H9        1.0  0.78110  0.68386  0.19247  1.0000
  H   H10       1.0  0.71890  0.31613  0.69247  1.0000
  H   H11       1.0  0.28110  0.81614  0.80753  1.0000
  H   H12       1.0  0.21890  0.18387  0.30753  1.0000
  H   H13       1.0  0.44637  0.45267  0.11365  1.0000
  H   H14       1.0  0.05364  0.54733  0.61365  1.0000
  H   H15       1.0  0.94636  0.04733  0.88635  1.0000
  H   H16       1.0  0.55365  0.95268  0.38635  1.0000
  H   H17       1.0  0.62982  0.76431  0.07450  1.0000
  H   H18       1.0  0.87017  0.23569  0.57450  1.0000
  H   H19       1.0  0.12983  0.73569  0.92550  1.0000
  H   H20       1.0  0.37017  0.26431  0.42550  1.0000
  H   H21       1.0  0.50526  0.04677  0.15148  1.0000
  H   H22       1.0  0.99474  0.95323  0.65148  1.0000
  H   H23       1.0  0.00525  0.45323  0.84852  1.0000
  H   H24       1.0  0.49474  0.54677  0.34852  1.0000
  H   H25       1.0  0.88683  0.99325  0.13387  1.0000
  H   H26       1.0  0.61317  0.00675  0.63387  1.0000
  H   H27       1.0  0.38682  0.50675  0.86613  1.0000
  H   H28       1.0  0.11318  0.49325  0.36613  1.0000
  H   H29       1.0  0.71228  0.21172  0.08379  1.0000
  H   H30       1.0  0.78772  0.78828  0.58379  1.0000
  H   H31       1.0  0.21228  0.28828  0.91621  1.0000
  H   H32       1.0  0.28772  0.71172  0.41621  1.0000
  C   C1        1.0  0.21338  0.39205  0.20146  1.0000
  C   C2        1.0  0.28662  0.60795  0.70146  1.0000
  C   C3        1.0  0.71339  0.10795  0.79854  1.0000
  C   C4        1.0  0.78661  0.89206  0.29854  1.0000
  C   C5        1.0  0.11548  0.52759  0.23856  1.0000
  C   C6        1.0  0.38452  0.47241  0.73856  1.0000
  C   C7        1.0  0.61548  0.97241  0.76144  1.0000
  C   C8        1.0  0.88452  0.02759  0.26144  1.0000
  C   C9        1.0  0.01399  0.63092  0.19376  1.0000
  C   C10       1.0  0.48602  0.36907  0.69376  1.0000
  C   C11       1.0  0.51397  0.86908  0.80624  1.0000
  C   C12       1.0  0.98603  0.13093  0.30624  1.0000
  C   C13       1.0  0.24295  0.53539  0.11890  1.0000
  C   C14       1.0  0.25706  0.46460  0.61890  1.0000
  C   C15       1.0  0.74294  0.96461  0.88110  1.0000
  C   C16       1.0  0.75707  0.03540  0.38110  1.0000
  C   C17       1.0  0.06107  0.52127  0.07056  1.0000
  C   C18       1.0  0.43894  0.47873  0.57056  1.0000
  C   C19       1.0  0.56108  0.97872  0.92944  1.0000
  C   C20       1.0  0.93895  0.02127  0.42944  1.0000
  C   C21       1.0  0.34803  0.71535  0.13302  1.0000
  C   C22       1.0  0.15197  0.28465  0.63302  1.0000
  C   C23       1.0  0.84802  0.78465  0.86698  1.0000
  C   C24       1.0  0.65198  0.21536  0.36698  1.0000
  C   C25       1.0  0.54203  0.81673  0.10839  1.0000
  C   C26       1.0  0.95796  0.18327  0.60839  1.0000
  C   C27       1.0  0.04203  0.68327  0.89161  1.0000
  C   C28       1.0  0.45798  0.31673  0.39161  1.0000
  C   C29       1.0  0.64385  0.99325  0.12180  1.0000
  C   C30       1.0  0.85615  0.00675  0.62180  1.0000
  C   C31       1.0  0.14384  0.50674  0.87820  1.0000
  C   C32       1.0  0.35615  0.49326  0.37820  1.0000
  N   N1        1.0  0.07919  0.48222  0.16258  1.0000
  N   N2        1.0  0.42081  0.51778  0.66258  1.0000
  N   N3        1.0  0.57919  0.01778  0.83742  1.0000
  N   N4        1.0  0.92082  0.98222  0.33742  1.0000
  O   O1        1.0  0.36170  0.25951  0.20180  1.0000
  O   O2        1.0  0.13828  0.74049  0.70179  1.0000
  O   O3        1.0  0.86171  0.24049  0.79821  1.0000
  O   O4        1.0  0.63827  0.75952  0.29821  1.0000
  O   O5        1.0  0.13859  0.62112  0.03645  1.0000
  O   O6        1.0  0.36142  0.37888  0.53645  1.0000
  O   O7        1.0  0.63858  0.87888  0.96355  1.0000
  O   O8        1.0  0.86141  0.12113  0.46355  1.0000
  O   O9        1.0  0.85713  0.40546  0.06735  1.0000
  O   O10       1.0  0.64287  0.59453  0.56735  1.0000
  O   O11       1.0  0.35712  0.09454  0.93265  1.0000
  O   O12       1.0  0.14287  0.90547  0.43265  1.0000
  O   O13       1.0  0.61493  0.09778  0.07864  1.0000
  O   O14       1.0  0.88507  0.90222  0.57864  1.0000
  O   O15       1.0  0.11493  0.40221  0.92136  1.0000
  O   O16       1.0  0.38507  0.59778  0.42136  1.0000
  O   O17       1.0  0.22918  0.76091  0.17784  1.0000
  O   O18       1.0  0.27082  0.23909  0.67784  1.0000
  O   O19       1.0  0.72917  0.73909  0.82216  1.0000
  O   O20       1.0  0.77082  0.26092  0.32216  1.0000
