data_image0
_chemical_formula_structural       Na2H26C30S2O24
_chemical_formula_sum              "Na2 H26 C30 S2 O24"
_cell_length_a       7.5354
_cell_length_b       10.0523
_cell_length_c       11.8135
_cell_angle_alpha    75.8774
_cell_angle_beta     82.6525
_cell_angle_gamma    78.7428

_space_group_name_H-M_alt    "P 1"
_space_group_IT_number       1

loop_
  _space_group_symop_operation_xyz
  'x, y, z'

loop_
  _atom_site_type_symbol
  _atom_site_label
  _atom_site_symmetry_multiplicity
  _atom_site_fract_x
  _atom_site_fract_y
  _atom_site_fract_z
  _atom_site_occupancy
  Na  Na1       1.0  0.47981  0.22434  0.09860  1.0000
  Na  Na2       1.0  0.52019  0.77566  0.90140  1.0000
  H   H1        1.0  0.60309  0.52089  0.10351  1.0000
  H   H2        1.0  0.39692  0.47911  0.89649  1.0000
  H   H3        1.0  0.55622  0.72679  0.67421  1.0000
  H   H4        1.0  0.44377  0.27320  0.32579  1.0000
  H   H5        1.0  0.21946  0.03193  0.80152  1.0000
  H   H6        1.0  0.78055  0.96807  0.19848  1.0000
  H   H7        1.0  0.28307  0.97605  0.04187  1.0000
  H   H8        1.0  0.71694  0.02395  0.95813  1.0000
  H   H9        1.0  0.87224  0.46650  0.38665  1.0000
  H   H10       1.0  0.12777  0.53351  0.61335  1.0000
  H   H11       1.0  0.27162  0.98905  0.23195  1.0000
  H   H12       1.0  0.72838  0.01094  0.76805  1.0000
  H   H13       1.0  0.54521  0.62934  0.46655  1.0000
  H   H14       1.0  0.45479  0.37065  0.53345  1.0000
  H   H15       1.0  0.61294  0.50623  0.30529  1.0000
  H   H16       1.0  0.38706  0.49376  0.69472  1.0000
  H   H17       1.0  0.91039  0.34822  0.68749  1.0000
  H   H18       1.0  0.08962  0.65178  0.31251  1.0000
  H   H19       1.0  0.76299  0.37185  0.01216  1.0000
  H   H20       1.0  0.23700  0.62816  0.98784  1.0000
  H   H21       1.0  0.81412  0.31577  0.14342  1.0000
  H   H22       1.0  0.18588  0.68423  0.85657  1.0000
  H   H23       1.0  0.15754  0.17809  0.95024  1.0000
  H   H24       1.0  0.84245  0.82191  0.04976  1.0000
  H   H25       1.0  0.11552  0.17120  0.08778  1.0000
  H   H26       1.0  0.88448  0.82880  0.91222  1.0000
  C   C1        1.0  0.35161  0.88494  0.24760  1.0000
  C   C2        1.0  0.64839  0.11505  0.75240  1.0000
  C   C3        1.0  0.10101  0.16067  0.67826  1.0000
  C   C4        1.0  0.89899  0.83934  0.32174  1.0000
  C   C5        1.0  0.50266  0.68278  0.38051  1.0000
  C   C6        1.0  0.49734  0.31722  0.61949  1.0000
  C   C7        1.0  0.48967  0.67842  0.17751  1.0000
  C   C8        1.0  0.51034  0.32158  0.82250  1.0000
  C   C9        1.0  0.54266  0.61368  0.28942  1.0000
  C   C10       1.0  0.45734  0.38631  0.71059  1.0000
  C   C11       1.0  0.39256  0.81635  0.15682  1.0000
  C   C12       1.0  0.60745  0.18365  0.84318  1.0000
  C   C13       1.0  0.96751  0.32152  0.51059  1.0000
  C   C14       1.0  0.03249  0.67848  0.48941  1.0000
  C   C15       1.0  0.98566  0.28092  0.63188  1.0000
  C   C16       1.0  0.01435  0.71908  0.36812  1.0000
  C   C17       1.0  0.19304  0.07115  0.60402  1.0000
  C   C18       1.0  0.80696  0.92885  0.39598  1.0000
  C   C19       1.0  0.16901  0.11102  0.48406  1.0000
  C   C20       1.0  0.83099  0.88898  0.51594  1.0000
  C   C21       1.0  0.40517  0.82005  0.36105  1.0000
  C   C22       1.0  0.59483  0.17995  0.63896  1.0000
  C   C23       1.0  0.38365  0.85427  0.57025  1.0000
  C   C24       1.0  0.61635  0.14573  0.42975  1.0000
  C   C25       1.0  0.34946  0.89603  0.45324  1.0000
  C   C26       1.0  0.65053  0.10397  0.54677  1.0000
  C   C27       1.0  0.31080  0.94383  0.64936  1.0000
  C   C28       1.0  0.68920  0.05617  0.35064  1.0000
  C   C29       1.0  0.06543  0.23936  0.43291  1.0000
  C   C30       1.0  0.93457  0.76064  0.56709  1.0000
  S   S1        1.0  0.07827  0.30347  0.27881  1.0000
  S   S2        1.0  0.92173  0.69653  0.72118  1.0000
  O   O1        1.0  0.52412  0.61561  0.08540  1.0000
  O   O2        1.0  0.47588  0.38439  0.91460  1.0000
  O   O3        1.0  0.27303  0.29783  0.23866  1.0000
  O   O4        1.0  0.72698  0.70216  0.76134  1.0000
  O   O5        1.0  0.97686  0.44657  0.25938  1.0000
  O   O6        1.0  0.02314  0.55344  0.74062  1.0000
  O   O7        1.0  0.48026  0.72651  0.61118  1.0000
  O   O8        1.0  0.51973  0.27349  0.38883  1.0000
  O   O9        1.0  0.12636  0.12277  0.79374  1.0000
  O   O10       1.0  0.87364  0.87724  0.20626  1.0000
  O   O11       1.0  0.34054  0.87603  0.04613  1.0000
  O   O12       1.0  0.65947  0.12397  0.95387  1.0000
  O   O13       1.0  0.99763  0.21498  0.22248  1.0000
  O   O14       1.0  0.00236  0.78502  0.77752  1.0000
  O   O15       1.0  0.85338  0.44016  0.47409  1.0000
  O   O16       1.0  0.14662  0.55984  0.52590  1.0000
  O   O17       1.0  0.34816  0.91093  0.75658  1.0000
  O   O18       1.0  0.65183  0.08907  0.24343  1.0000
  O   O19       1.0  0.24837  0.02507  0.41273  1.0000
  O   O20       1.0  0.75163  0.97493  0.58727  1.0000
  O   O21       1.0  0.71521  0.36747  0.09329  1.0000
  O   O22       1.0  0.28479  0.63254  0.90671  1.0000
  O   O23       1.0  0.20973  0.14684  0.02613  1.0000
  O   O24       1.0  0.79027  0.85315  0.97388  1.0000
