data_image0
_chemical_formula_structural       Zn4H24C28Br8N16
_chemical_formula_sum              "Zn4 H24 C28 Br8 N16"
_cell_length_a       6.61196
_cell_length_b       8.64139
_cell_length_c       18.5637
_cell_angle_alpha    90.0002
_cell_angle_beta     89.9998
_cell_angle_gamma    102.405

_space_group_name_H-M_alt    "P 1"
_space_group_IT_number       1

loop_
  _space_group_symop_operation_xyz
  'x, y, z'

loop_
  _atom_site_type_symbol
  _atom_site_label
  _atom_site_symmetry_multiplicity
  _atom_site_fract_x
  _atom_site_fract_y
  _atom_site_fract_z
  _atom_site_occupancy
  Zn  Zn1       1.0  0.59916  0.31833  0.36026  1.0000
  Zn  Zn2       1.0  0.40085  0.18167  0.86026  1.0000
  Zn  Zn3       1.0  0.40085  0.68167  0.63975  1.0000
  Zn  Zn4       1.0  0.59914  0.81833  0.13974  1.0000
  H   H1        1.0  0.26221  0.89194  0.41441  1.0000
  H   H2        1.0  0.73779  0.60806  0.91441  1.0000
  H   H3        1.0  0.73779  0.10806  0.58559  1.0000
  H   H4        1.0  0.26220  0.39193  0.08559  1.0000
  H   H5        1.0  0.31924  0.61764  0.44308  1.0000
  H   H6        1.0  0.68077  0.88236  0.94308  1.0000
  H   H7        1.0  0.68077  0.38236  0.55692  1.0000
  H   H8        1.0  0.31922  0.11763  0.05692  1.0000
  H   H9        1.0  0.03231  0.38478  0.41994  1.0000
  H   H10       1.0  0.96770  0.11523  0.91994  1.0000
  H   H11       1.0  0.96770  0.61522  0.58006  1.0000
  H   H12       1.0  0.03229  0.88477  0.08006  1.0000
  H   H13       1.0  0.65048  0.67079  0.33973  1.0000
  H   H14       1.0  0.34953  0.82921  0.83974  1.0000
  H   H15       1.0  0.34953  0.32921  0.66027  1.0000
  H   H16       1.0  0.65045  0.17079  0.16026  1.0000
  H   H17       1.0  0.13151  0.02083  0.26978  1.0000
  H   H18       1.0  0.86849  0.47917  0.76979  1.0000
  H   H19       1.0  0.86849  0.97918  0.73022  1.0000
  H   H20       1.0  0.13151  0.52082  0.23021  1.0000
  H   H21       1.0  0.67022  0.97446  0.43145  1.0000
  H   H22       1.0  0.32979  0.52554  0.93145  1.0000
  H   H23       1.0  0.32978  0.02554  0.56855  1.0000
  H   H24       1.0  0.67020  0.47445  0.06855  1.0000
  C   C1        1.0  0.14294  0.78536  0.40477  1.0000
  C   C2        1.0  0.85706  0.71464  0.90477  1.0000
  C   C3        1.0  0.85706  0.21464  0.59523  1.0000
  C   C4        1.0  0.14293  0.28536  0.09523  1.0000
  C   C5        1.0  0.17328  0.63436  0.42054  1.0000
  C   C6        1.0  0.82672  0.86565  0.92054  1.0000
  C   C7        1.0  0.82672  0.36564  0.57946  1.0000
  C   C8        1.0  0.17327  0.13435  0.07946  1.0000
  C   C9        1.0  0.01256  0.50423  0.40841  1.0000
  C   C10       1.0  0.98746  0.99578  0.90841  1.0000
  C   C11       1.0  0.98746  0.49577  0.59159  1.0000
  C   C12       1.0  0.01253  0.00422  0.09159  1.0000
  C   C13       1.0  0.79750  0.66305  0.36484  1.0000
  C   C14       1.0  0.20251  0.83695  0.86484  1.0000
  C   C15       1.0  0.20251  0.33695  0.63516  1.0000
  C   C16       1.0  0.79748  0.16305  0.13516  1.0000
  C   C17       1.0  0.95214  0.79802  0.37638  1.0000
  C   C18       1.0  0.04786  0.70197  0.87638  1.0000
  C   C19       1.0  0.04786  0.20197  0.62362  1.0000
  C   C20       1.0  0.95213  0.29802  0.12361  1.0000
  C   C21       1.0  0.00834  0.04779  0.30312  1.0000
  C   C22       1.0  0.99167  0.45221  0.80313  1.0000
  C   C23       1.0  0.99166  0.95221  0.69687  1.0000
  C   C24       1.0  0.00833  0.54779  0.19687  1.0000
  C   C25       1.0  0.76990  0.02137  0.38646  1.0000
  C   C26       1.0  0.23011  0.47863  0.88647  1.0000
  C   C27       1.0  0.23010  0.97862  0.61354  1.0000
  C   C28       1.0  0.76990  0.52138  0.11354  1.0000
  Br  Br1       1.0  0.36527  0.23226  0.45841  1.0000
  Br  Br2       1.0  0.63473  0.26773  0.95841  1.0000
  Br  Br3       1.0  0.63473  0.76773  0.54159  1.0000
  Br  Br4       1.0  0.36527  0.73226  0.04159  1.0000
  Br  Br5       1.0  0.44257  0.36673  0.25081  1.0000
  Br  Br6       1.0  0.55744  0.13327  0.75081  1.0000
  Br  Br7       1.0  0.55744  0.63327  0.74919  1.0000
  Br  Br8       1.0  0.44257  0.86672  0.24919  1.0000
  N   N1        1.0  0.77845  0.15657  0.35224  1.0000
  N   N2        1.0  0.22156  0.34343  0.85225  1.0000
  N   N3        1.0  0.22155  0.84343  0.64776  1.0000
  N   N4        1.0  0.77845  0.65657  0.14775  1.0000
  N   N5        1.0  0.92799  0.17411  0.29940  1.0000
  N   N6        1.0  0.07202  0.32589  0.79941  1.0000
  N   N7        1.0  0.07202  0.82589  0.70060  1.0000
  N   N8        1.0  0.92798  0.67411  0.20059  1.0000
  N   N9        1.0  0.91376  0.94879  0.35713  1.0000
  N   N10       1.0  0.08625  0.55121  0.85714  1.0000
  N   N11       1.0  0.08625  0.05121  0.64287  1.0000
  N   N12       1.0  0.91373  0.44879  0.14286  1.0000
  N   N13       1.0  0.82770  0.51850  0.38159  1.0000
  N   N14       1.0  0.17231  0.98151  0.88159  1.0000
  N   N15       1.0  0.17231  0.48150  0.61842  1.0000
  N   N16       1.0  0.82767  0.01850  0.11841  1.0000
