data_image0
_chemical_formula_structural       Cd3H40C22S6N4Cl6O8
_chemical_formula_sum              "Cd3 H40 C22 S6 N4 Cl6 O8"
_cell_length_a       10.0999
_cell_length_b       10.0813
_cell_length_c       11.5947
_cell_angle_alpha    73.5293
_cell_angle_beta     67.7294
_cell_angle_gamma    63.3816

_space_group_name_H-M_alt    "P 1"
_space_group_IT_number       1

loop_
  _space_group_symop_operation_xyz
  'x, y, z'

loop_
  _atom_site_type_symbol
  _atom_site_label
  _atom_site_symmetry_multiplicity
  _atom_site_fract_x
  _atom_site_fract_y
  _atom_site_fract_z
  _atom_site_occupancy
  Cd  Cd1       1.0  1.00000  0.00000  1.00000  1.0000
  Cd  Cd2       1.0  0.65445  0.94207  0.06904  1.0000
  Cd  Cd3       1.0  0.34555  0.05793  0.93096  1.0000
  H   H1        1.0  0.26146  0.67474  0.24107  1.0000
  H   H2        1.0  0.73853  0.32526  0.75893  1.0000
  H   H3        1.0  0.46036  0.60774  0.15439  1.0000
  H   H4        1.0  0.53964  0.39226  0.84561  1.0000
  H   H5        1.0  0.47069  0.34283  0.20676  1.0000
  H   H6        1.0  0.52931  0.65718  0.79323  1.0000
  H   H7        1.0  0.27122  0.40864  0.29518  1.0000
  H   H8        1.0  0.72878  0.59136  0.70482  1.0000
  H   H9        1.0  0.48179  0.30454  0.52244  1.0000
  H   H10       1.0  0.51821  0.69546  0.47756  1.0000
  H   H11       1.0  0.48529  0.20088  0.41849  1.0000
  H   H12       1.0  0.51471  0.79913  0.58150  1.0000
  H   H13       1.0  0.19091  0.42291  0.57610  1.0000
  H   H14       1.0  0.80909  0.57709  0.42390  1.0000
  H   H15       1.0  0.27621  0.22846  0.63409  1.0000
  H   H16       1.0  0.72379  0.77154  0.36591  1.0000
  H   H17       1.0  0.95785  0.40364  0.58054  1.0000
  H   H18       1.0  0.04215  0.59636  0.41946  1.0000
  H   H19       1.0  0.03970  0.22167  0.66344  1.0000
  H   H20       1.0  0.96031  0.77833  0.33656  1.0000
  H   H21       1.0  0.85128  0.21892  0.59089  1.0000
  H   H22       1.0  0.14872  0.78108  0.40911  1.0000
  H   H23       1.0  0.03777  0.10097  0.50603  1.0000
  H   H24       1.0  0.96223  0.89903  0.49397  1.0000
  H   H25       1.0  0.71474  0.29877  0.44467  1.0000
  H   H26       1.0  0.28526  0.70123  0.55533  1.0000
  H   H27       1.0  0.87474  0.13752  0.38059  1.0000
  H   H28       1.0  0.12526  0.86248  0.61941  1.0000
  H   H29       1.0  0.74580  0.28812  0.22425  1.0000
  H   H30       1.0  0.25421  0.71187  0.77575  1.0000
  H   H31       1.0  0.93465  0.28659  0.17358  1.0000
  H   H32       1.0  0.06535  0.71341  0.82642  1.0000
  H   H33       1.0  0.28135  0.09622  0.30036  1.0000
  H   H34       1.0  0.71865  0.90377  0.69964  1.0000
  H   H35       1.0  0.44908  0.03211  0.35055  1.0000
  H   H36       1.0  0.55092  0.96788  0.64946  1.0000
  H   H37       1.0  0.30918  0.94865  0.43025  1.0000
  H   H38       1.0  0.69082  0.05135  0.56976  1.0000
  H   H39       1.0  0.38356  0.88547  0.21524  1.0000
  H   H40       1.0  0.61644  0.11452  0.78477  1.0000
  C   C1        1.0  0.12827  0.61799  0.08942  1.0000
  C   C2        1.0  0.87172  0.38202  0.91058  1.0000
  C   C3        1.0  0.88984  0.57931  0.15655  1.0000
  C   C4        1.0  0.11016  0.42068  0.84345  1.0000
  C   C5        1.0  0.35394  0.58555  0.18673  1.0000
  C   C6        1.0  0.64605  0.41445  0.81327  1.0000
  C   C7        1.0  0.37745  0.43157  0.26268  1.0000
  C   C8        1.0  0.62255  0.56844  0.73731  1.0000
  C   C9        1.0  0.41937  0.30470  0.46264  1.0000
  C   C10       1.0  0.58063  0.69530  0.53736  1.0000
  C   C11       1.0  0.26126  0.30965  0.54820  1.0000
  C   C12       1.0  0.73874  0.69035  0.45180  1.0000
  C   C13       1.0  0.03263  0.28486  0.56930  1.0000
  C   C14       1.0  0.96737  0.71514  0.43070  1.0000
  C   C15       1.0  0.96124  0.21867  0.51933  1.0000
  C   C16       1.0  0.03877  0.78132  0.48067  1.0000
  C   C17       1.0  0.83055  0.26069  0.37540  1.0000
  C   C18       1.0  0.16945  0.73931  0.62460  1.0000
  C   C19       1.0  0.82060  0.32653  0.24333  1.0000
  C   C20       1.0  0.17940  0.67347  0.75667  1.0000
  C   C21       1.0  0.36702  0.99779  0.33853  1.0000
  C   C22       1.0  0.63298  0.00221  0.66148  1.0000
  S   S1        1.0  0.07664  0.46477  0.16163  1.0000
  S   S2        1.0  0.92336  0.53523  0.83836  1.0000
  S   S3        1.0  0.31540  0.61272  0.03952  1.0000
  S   S4        1.0  0.68460  0.38729  0.96048  1.0000
  S   S5        1.0  0.73159  0.52939  0.21558  1.0000
  S   S6        1.0  0.26841  0.47061  0.78442  1.0000
  N   N1        1.0  0.87601  0.71851  0.10263  1.0000
  N   N2        1.0  0.12399  0.28149  0.89737  1.0000
  N   N3        1.0  0.01013  0.74007  0.06687  1.0000
  N   N4        1.0  0.98987  0.25994  0.93313  1.0000
  Cl  Cl1       1.0  0.84750  0.01352  0.85155  1.0000
  Cl  Cl2       1.0  0.15249  0.98648  0.14845  1.0000
  Cl  Cl3       1.0  0.74653  0.04325  0.19446  1.0000
  Cl  Cl4       1.0  0.25347  0.95675  0.80554  1.0000
  Cl  Cl5       1.0  0.42593  0.19604  0.03314  1.0000
  Cl  Cl6       1.0  0.57407  0.80396  0.96686  1.0000
  O   O1        1.0  0.41742  0.43287  0.36863  1.0000
  O   O2        1.0  0.58258  0.56713  0.63137  1.0000
  O   O3        1.0  0.18381  0.27226  0.48846  1.0000
  O   O4        1.0  0.81619  0.72774  0.51154  1.0000
  O   O5        1.0  0.93220  0.30149  0.40308  1.0000
  O   O6        1.0  0.06780  0.69850  0.59692  1.0000
  O   O7        1.0  0.45526  0.88701  0.25279  1.0000
  O   O8        1.0  0.54474  0.11298  0.74722  1.0000
