data_image0
_chemical_formula_structural       Zn8P8H40C24N8O24
_chemical_formula_sum              "Zn8 P8 H40 C24 N8 O24"
_cell_length_a       8.66526
_cell_length_b       9.31752
_cell_length_c       15.005
_cell_angle_alpha    90
_cell_angle_beta     90
_cell_angle_gamma    109.134

_space_group_name_H-M_alt    "P 1"
_space_group_IT_number       1

loop_
  _space_group_symop_operation_xyz
  'x, y, z'

loop_
  _atom_site_type_symbol
  _atom_site_label
  _atom_site_symmetry_multiplicity
  _atom_site_fract_x
  _atom_site_fract_y
  _atom_site_fract_z
  _atom_site_occupancy
  Zn  Zn1       1.0  0.40365  0.03656  0.35689  1.0000
  Zn  Zn2       1.0  0.09635  0.96344  0.85689  1.0000
  Zn  Zn3       1.0  0.59635  0.96344  0.64311  1.0000
  Zn  Zn4       1.0  0.90365  0.03656  0.14311  1.0000
  Zn  Zn5       1.0  0.07460  0.53243  0.25280  1.0000
  Zn  Zn6       1.0  0.42540  0.46757  0.75280  1.0000
  Zn  Zn7       1.0  0.92540  0.46757  0.74720  1.0000
  Zn  Zn8       1.0  0.57460  0.53243  0.24720  1.0000
  P   P1        1.0  0.39710  0.69655  0.37265  1.0000
  P   P2        1.0  0.10290  0.30345  0.87265  1.0000
  P   P3        1.0  0.60290  0.30345  0.62735  1.0000
  P   P4        1.0  0.89710  0.69655  0.12735  1.0000
  P   P5        1.0  0.74260  0.33153  0.35250  1.0000
  P   P6        1.0  0.75740  0.66847  0.85250  1.0000
  P   P7        1.0  0.25740  0.66847  0.64750  1.0000
  P   P8        1.0  0.24260  0.33153  0.14750  1.0000
  H   H1        1.0  0.44737  0.61434  0.43919  1.0000
  H   H2        1.0  0.05263  0.38566  0.93919  1.0000
  H   H3        1.0  0.55263  0.38566  0.56081  1.0000
  H   H4        1.0  0.94737  0.61434  0.06081  1.0000
  H   H5        1.0  0.80022  0.33575  0.44097  1.0000
  H   H6        1.0  0.69977  0.66425  0.94097  1.0000
  H   H7        1.0  0.19977  0.66425  0.55903  1.0000
  H   H8        1.0  0.30022  0.33575  0.05903  1.0000
  H   H9        1.0  0.30535  0.31228  0.36474  1.0000
  H   H10       1.0  0.19465  0.68772  0.86474  1.0000
  H   H11       1.0  0.69465  0.68772  0.63526  1.0000
  H   H12       1.0  0.80535  0.31228  0.13526  1.0000
  H   H13       1.0  0.14892  0.42107  0.46947  1.0000
  H   H14       1.0  0.35109  0.57893  0.96947  1.0000
  H   H15       1.0  0.85109  0.57893  0.53053  1.0000
  H   H16       1.0  0.64892  0.42107  0.03053  1.0000
  H   H17       1.0  0.03945  0.27875  0.61170  1.0000
  H   H18       1.0  0.46055  0.72125  0.11171  1.0000
  H   H19       1.0  0.96055  0.72125  0.38830  1.0000
  H   H20       1.0  0.53945  0.27875  0.88830  1.0000
  H   H21       1.0  0.25608  0.94344  0.52990  1.0000
  H   H22       1.0  0.24392  0.05655  0.02990  1.0000
  H   H23       1.0  0.74392  0.05656  0.47010  1.0000
  H   H24       1.0  0.75608  0.94344  0.97010  1.0000
  H   H25       1.0  0.98200  0.05535  0.69444  1.0000
  H   H26       1.0  0.51800  0.94465  0.19444  1.0000
  H   H27       1.0  0.01800  0.94465  0.30556  1.0000
  H   H28       1.0  0.48200  0.05535  0.80556  1.0000
  H   H29       1.0  0.01393  0.89013  0.65118  1.0000
  H   H30       1.0  0.48607  0.10987  0.15118  1.0000
  H   H31       1.0  0.98607  0.10987  0.34882  1.0000
  H   H32       1.0  0.51393  0.89013  0.84882  1.0000
  H   H33       1.0  0.28686  0.12632  0.73369  1.0000
  H   H34       1.0  0.21314  0.87367  0.23369  1.0000
  H   H35       1.0  0.71314  0.87367  0.26631  1.0000
  H   H36       1.0  0.78686  0.12633  0.76631  1.0000
  H   H37       1.0  0.26160  0.94614  0.71522  1.0000
  H   H38       1.0  0.23840  0.05386  0.21522  1.0000
  H   H39       1.0  0.73840  0.05386  0.28478  1.0000
  H   H40       1.0  0.76160  0.94614  0.78478  1.0000
  C   C1        1.0  0.25690  0.25635  0.42748  1.0000
  C   C2        1.0  0.24310  0.74365  0.92748  1.0000
  C   C3        1.0  0.74310  0.74365  0.57252  1.0000
  C   C4        1.0  0.75690  0.25635  0.07252  1.0000
  C   C5        1.0  0.16944  0.31520  0.48629  1.0000
  C   C6        1.0  0.33056  0.68480  0.98629  1.0000
  C   C7        1.0  0.83056  0.68480  0.51371  1.0000
  C   C8        1.0  0.66945  0.31520  0.01371  1.0000
  C   C9        1.0  0.10972  0.23589  0.56460  1.0000
  C   C10       1.0  0.39028  0.76411  0.06460  1.0000
  C   C11       1.0  0.89028  0.76411  0.43540  1.0000
  C   C12       1.0  0.60972  0.23589  0.93540  1.0000
  C   C13       1.0  0.22825  0.04827  0.52017  1.0000
  C   C14       1.0  0.27175  0.95173  0.02017  1.0000
  C   C15       1.0  0.77175  0.95173  0.47983  1.0000
  C   C16       1.0  0.72825  0.04827  0.97983  1.0000
  C   C17       1.0  0.13921  0.09994  0.58254  1.0000
  C   C18       1.0  0.36079  0.90006  0.08254  1.0000
  C   C19       1.0  0.86079  0.90006  0.41746  1.0000
  C   C20       1.0  0.63921  0.09994  0.91746  1.0000
  C   C21       1.0  0.07356  0.01100  0.66593  1.0000
  C   C22       1.0  0.42644  0.98900  0.16593  1.0000
  C   C23       1.0  0.92644  0.98900  0.33407  1.0000
  C   C24       1.0  0.57356  0.01101  0.83407  1.0000
  N   N1        1.0  0.28435  0.12429  0.44422  1.0000
  N   N2        1.0  0.21565  0.87571  0.94422  1.0000
  N   N3        1.0  0.71565  0.87571  0.55578  1.0000
  N   N4        1.0  0.78435  0.12429  0.05578  1.0000
  N   N5        1.0  0.19982  0.01956  0.73467  1.0000
  N   N6        1.0  0.30018  0.98044  0.23467  1.0000
  N   N7        1.0  0.80018  0.98044  0.26533  1.0000
  N   N8        1.0  0.69982  0.01956  0.76533  1.0000
  O   O1        1.0  0.21574  0.60888  0.35499  1.0000
  O   O2        1.0  0.28426  0.39112  0.85499  1.0000
  O   O3        1.0  0.78426  0.39112  0.64501  1.0000
  O   O4        1.0  0.71574  0.60888  0.14501  1.0000
  O   O5        1.0  0.50708  0.70443  0.28992  1.0000
  O   O6        1.0  0.99292  0.29557  0.78992  1.0000
  O   O7        1.0  0.49292  0.29556  0.71008  1.0000
  O   O8        1.0  0.00708  0.70443  0.21008  1.0000
  O   O9        1.0  0.42377  0.85407  0.41302  1.0000
  O   O10       1.0  0.07623  0.14593  0.91302  1.0000
  O   O11       1.0  0.57623  0.14593  0.58698  1.0000
  O   O12       1.0  0.92377  0.85407  0.08698  1.0000
  O   O13       1.0  0.62777  0.16781  0.33592  1.0000
  O   O14       1.0  0.87224  0.83219  0.83592  1.0000
  O   O15       1.0  0.37224  0.83219  0.66408  1.0000
  O   O16       1.0  0.12776  0.16781  0.16408  1.0000
  O   O17       1.0  0.65900  0.45291  0.34980  1.0000
  O   O18       1.0  0.84100  0.54709  0.84980  1.0000
  O   O19       1.0  0.34100  0.54709  0.65020  1.0000
  O   O20       1.0  0.15900  0.45291  0.15020  1.0000
  O   O21       1.0  0.88927  0.35811  0.28978  1.0000
  O   O22       1.0  0.61074  0.64189  0.78978  1.0000
  O   O23       1.0  0.11074  0.64189  0.71022  1.0000
  O   O24       1.0  0.38926  0.35811  0.21022  1.0000
