data_image0
_chemical_formula_structural       Zn8P8H40C24N8O28
_chemical_formula_sum              "Zn8 P8 H40 C24 N8 O28"
_cell_length_a       9.4005
_cell_length_b       10.4674
_cell_length_c       13.5147
_cell_angle_alpha    107.911
_cell_angle_beta     90
_cell_angle_gamma    90

_space_group_name_H-M_alt    "P 1"
_space_group_IT_number       1

loop_
  _space_group_symop_operation_xyz
  'x, y, z'

loop_
  _atom_site_type_symbol
  _atom_site_label
  _atom_site_symmetry_multiplicity
  _atom_site_fract_x
  _atom_site_fract_y
  _atom_site_fract_z
  _atom_site_occupancy
  Zn  Zn1       1.0  0.60872  0.23500  0.76164  1.0000
  Zn  Zn2       1.0  0.10872  0.26500  0.23836  1.0000
  Zn  Zn3       1.0  0.39127  0.76500  0.23836  1.0000
  Zn  Zn4       1.0  0.89127  0.73500  0.76164  1.0000
  Zn  Zn5       1.0  0.60115  0.87369  0.58617  1.0000
  Zn  Zn6       1.0  0.10115  0.62631  0.41383  1.0000
  Zn  Zn7       1.0  0.39885  0.12631  0.41383  1.0000
  Zn  Zn8       1.0  0.89885  0.37369  0.58617  1.0000
  P   P1        1.0  0.69172  0.12661  0.52246  1.0000
  P   P2        1.0  0.19172  0.37339  0.47754  1.0000
  P   P3        1.0  0.30828  0.87339  0.47754  1.0000
  P   P4        1.0  0.80828  0.62661  0.52246  1.0000
  P   P5        1.0  0.71921  0.99471  0.82453  1.0000
  P   P6        1.0  0.21920  0.50529  0.17546  1.0000
  P   P7        1.0  0.28079  0.00529  0.17546  1.0000
  P   P8        1.0  0.78079  0.49471  0.82453  1.0000
  H   H1        1.0  0.64986  0.00243  0.91912  1.0000
  H   H2        1.0  0.14986  0.49757  0.08088  1.0000
  H   H3        1.0  0.35014  0.99756  0.08088  1.0000
  H   H4        1.0  0.85014  0.50243  0.91912  1.0000
  H   H5        1.0  0.46711  0.21225  0.95357  1.0000
  H   H6        1.0  0.96711  0.28775  0.04643  1.0000
  H   H7        1.0  0.53289  0.78775  0.04643  1.0000
  H   H8        1.0  0.03289  0.71225  0.95357  1.0000
  H   H9        1.0  0.22447  0.15869  0.00483  1.0000
  H   H10       1.0  0.72447  0.34131  0.99517  1.0000
  H   H11       1.0  0.77553  0.84131  0.99517  1.0000
  H   H12       1.0  0.27553  0.65869  0.00483  1.0000
  H   H13       1.0  0.02846  0.11189  0.87103  1.0000
  H   H14       1.0  0.52846  0.38811  0.12897  1.0000
  H   H15       1.0  0.97154  0.88811  0.12897  1.0000
  H   H16       1.0  0.47154  0.61189  0.87103  1.0000
  H   H17       1.0  0.33278  0.18269  0.65468  1.0000
  H   H18       1.0  0.83278  0.31731  0.34532  1.0000
  H   H19       1.0  0.66722  0.81731  0.34532  1.0000
  H   H20       1.0  0.16722  0.68269  0.65468  1.0000
  H   H21       1.0  0.96439  0.19732  0.70303  1.0000
  H   H22       1.0  0.46439  0.30267  0.29697  1.0000
  H   H23       1.0  0.03561  0.80267  0.29697  1.0000
  H   H24       1.0  0.53561  0.69732  0.70303  1.0000
  H   H25       1.0  0.09412  0.14645  0.60239  1.0000
  H   H26       1.0  0.59412  0.35355  0.39761  1.0000
  H   H27       1.0  0.90588  0.85355  0.39761  1.0000
  H   H28       1.0  0.40588  0.64645  0.60239  1.0000
  H   H29       1.0  0.89375  0.98817  0.59817  1.0000
  H   H30       1.0  0.39375  0.51183  0.40183  1.0000
  H   H31       1.0  0.10625  0.01183  0.40183  1.0000
  H   H32       1.0  0.60625  0.48817  0.59817  1.0000
  H   H33       1.0  0.96212  0.95972  0.70330  1.0000
  H   H34       1.0  0.46212  0.54028  0.29670  1.0000
  H   H35       1.0  0.03788  0.04028  0.29670  1.0000
  H   H36       1.0  0.53788  0.45972  0.70330  1.0000
  H   H37       1.0  0.05895  0.91642  0.59107  1.0000
  H   H38       1.0  0.55895  0.58358  0.40893  1.0000
  H   H39       1.0  0.94105  0.08358  0.40893  1.0000
  H   H40       1.0  0.44105  0.41642  0.59107  1.0000
  C   C1        1.0  0.37893  0.19266  0.89851  1.0000
  C   C2        1.0  0.87893  0.30734  0.10149  1.0000
  C   C3        1.0  0.62107  0.80734  0.10149  1.0000
  C   C4        1.0  0.12107  0.69266  0.89851  1.0000
  C   C5        1.0  0.24386  0.16180  0.92620  1.0000
  C   C6        1.0  0.74387  0.33820  0.07380  1.0000
  C   C7        1.0  0.75614  0.83820  0.07380  1.0000
  C   C8        1.0  0.25614  0.66180  0.92620  1.0000
  C   C9        1.0  0.13553  0.13777  0.85230  1.0000
  C   C10       1.0  0.63553  0.36223  0.14770  1.0000
  C   C11       1.0  0.86447  0.86223  0.14770  1.0000
  C   C12       1.0  0.36447  0.63777  0.85230  1.0000
  C   C13       1.0  0.30377  0.17633  0.73114  1.0000
  C   C14       1.0  0.80377  0.32367  0.26886  1.0000
  C   C15       1.0  0.69623  0.82367  0.26886  1.0000
  C   C16       1.0  0.19623  0.67633  0.73114  1.0000
  C   C17       1.0  0.16524  0.14560  0.75283  1.0000
  C   C18       1.0  0.66524  0.35440  0.24717  1.0000
  C   C19       1.0  0.83476  0.85440  0.24717  1.0000
  C   C20       1.0  0.33476  0.64560  0.75283  1.0000
  C   C21       1.0  0.05156  0.12672  0.67168  1.0000
  C   C22       1.0  0.55156  0.37328  0.32832  1.0000
  C   C23       1.0  0.94844  0.87328  0.32832  1.0000
  C   C24       1.0  0.44844  0.62672  0.67168  1.0000
  N   N1        1.0  0.40818  0.19927  0.80259  1.0000
  N   N2        1.0  0.90818  0.30073  0.19741  1.0000
  N   N3        1.0  0.59182  0.80073  0.19741  1.0000
  N   N4        1.0  0.09182  0.69927  0.80259  1.0000
  N   N5        1.0  0.99011  0.98870  0.63927  1.0000
  N   N6        1.0  0.49011  0.51130  0.36072  1.0000
  N   N7        1.0  0.00989  0.01130  0.36073  1.0000
  N   N8        1.0  0.50989  0.48870  0.63927  1.0000
  O   O1        1.0  0.86662  0.93081  0.82870  1.0000
  O   O2        1.0  0.36662  0.56919  0.17130  1.0000
  O   O3        1.0  0.13338  0.06919  0.17130  1.0000
  O   O4        1.0  0.63338  0.43081  0.82870  1.0000
  O   O5        1.0  0.60861  0.22005  0.61574  1.0000
  O   O6        1.0  0.10861  0.27995  0.38426  1.0000
  O   O7        1.0  0.39139  0.77995  0.38426  1.0000
  O   O8        1.0  0.89139  0.72005  0.61574  1.0000
  O   O9        1.0  0.74245  0.13986  0.82289  1.0000
  O   O10       1.0  0.24245  0.36014  0.17711  1.0000
  O   O11       1.0  0.25755  0.86014  0.17711  1.0000
  O   O12       1.0  0.75755  0.63986  0.82289  1.0000
  O   O13       1.0  0.62197  0.90947  0.73893  1.0000
  O   O14       1.0  0.12197  0.59053  0.26107  1.0000
  O   O15       1.0  0.37803  0.09053  0.26107  1.0000
  O   O16       1.0  0.87803  0.40947  0.73893  1.0000
  O   O17       1.0  0.60095  0.09706  0.42318  1.0000
  O   O18       1.0  0.10095  0.40294  0.57682  1.0000
  O   O19       1.0  0.39905  0.90294  0.57682  1.0000
  O   O20       1.0  0.89906  0.59706  0.42318  1.0000
  O   O21       1.0  0.83539  0.19181  0.50524  1.0000
  O   O22       1.0  0.33539  0.30819  0.49476  1.0000
  O   O23       1.0  0.16461  0.80819  0.49476  1.0000
  O   O24       1.0  0.66461  0.69181  0.50524  1.0000
  O   O25       1.0  0.73444  0.99262  0.54371  1.0000
  O   O26       1.0  0.23444  0.50738  0.45629  1.0000
  O   O27       1.0  0.26556  0.00738  0.45629  1.0000
  O   O28       1.0  0.76556  0.49262  0.54371  1.0000
