data_image0
_chemical_formula_structural       La4H30C42N6O30
_chemical_formula_sum              "La4 H30 C42 N6 O30"
_cell_length_a       8.972
_cell_length_b       9.43434
_cell_length_c       14.5126
_cell_angle_alpha    99.0467
_cell_angle_beta     95.3772
_cell_angle_gamma    105.038

_space_group_name_H-M_alt    "P 1"
_space_group_IT_number       1

loop_
  _space_group_symop_operation_xyz
  'x, y, z'

loop_
  _atom_site_type_symbol
  _atom_site_label
  _atom_site_symmetry_multiplicity
  _atom_site_fract_x
  _atom_site_fract_y
  _atom_site_fract_z
  _atom_site_occupancy
  La  La1       1.0  0.85288  0.73251  0.72464  1.0000
  La  La2       1.0  0.14712  0.26749  0.27536  1.0000
  La  La3       1.0  0.54719  0.14209  0.15622  1.0000
  La  La4       1.0  0.45281  0.85791  0.84378  1.0000
  H   H1        1.0  0.96423  0.42354  0.64282  1.0000
  H   H2        1.0  0.03577  0.57646  0.35718  1.0000
  H   H3        1.0  0.83549  0.45723  0.57114  1.0000
  H   H4        1.0  0.16451  0.54277  0.42886  1.0000
  H   H5        1.0  0.64707  0.68444  0.51180  1.0000
  H   H6        1.0  0.35293  0.31556  0.48820  1.0000
  H   H7        1.0  0.82936  0.70068  0.52138  1.0000
  H   H8        1.0  0.17064  0.29932  0.47862  1.0000
  H   H9        1.0  0.46033  0.82821  0.04579  1.0000
  H   H10       1.0  0.53967  0.17179  0.95421  1.0000
  H   H11       1.0  0.28421  0.84600  0.05169  1.0000
  H   H12       1.0  0.71579  0.15400  0.94831  1.0000
  H   H13       1.0  0.96871  0.10644  0.02610  1.0000
  H   H14       1.0  0.03129  0.89356  0.97390  1.0000
  H   H15       1.0  0.31707  0.47423  0.96184  1.0000
  H   H16       1.0  0.68293  0.52576  0.03815  1.0000
  H   H17       1.0  0.82972  0.37532  0.85422  1.0000
  H   H18       1.0  0.17028  0.62467  0.14578  1.0000
  H   H19       1.0  0.25181  0.53225  0.65763  1.0000
  H   H20       1.0  0.74819  0.46776  0.34237  1.0000
  H   H21       1.0  0.45923  0.26602  0.81649  1.0000
  H   H22       1.0  0.54077  0.73397  0.18351  1.0000
  H   H23       1.0  0.97257  0.13054  0.70274  1.0000
  H   H24       1.0  0.02743  0.86946  0.29725  1.0000
  H   H25       1.0  0.57784  0.30943  0.40058  1.0000
  H   H26       1.0  0.42215  0.69057  0.59942  1.0000
  H   H27       1.0  0.84443  0.05713  0.53298  1.0000
  H   H28       1.0  0.15557  0.94287  0.46702  1.0000
  H   H29       1.0  0.45288  0.16634  0.64529  1.0000
  H   H30       1.0  0.54712  0.83366  0.35471  1.0000
  C   C1        1.0  0.00366  0.19908  0.98907  1.0000
  C   C2        1.0  0.99634  0.80092  0.01093  1.0000
  C   C3        1.0  0.16022  0.28139  0.99839  1.0000
  C   C4        1.0  0.83978  0.71861  0.00161  1.0000
  C   C5        1.0  0.19710  0.40499  0.95467  1.0000
  C   C6        1.0  0.80290  0.59501  0.04533  1.0000
  C   C7        1.0  0.07737  0.44176  0.90351  1.0000
  C   C8        1.0  0.92264  0.55824  0.09649  1.0000
  C   C9        1.0  0.92513  0.35003  0.89491  1.0000
  C   C10       1.0  0.07487  0.64997  0.10509  1.0000
  C   C11       1.0  0.28381  0.24028  0.05608  1.0000
  C   C12       1.0  0.71619  0.75972  0.94392  1.0000
  C   C13       1.0  0.11056  0.58099  0.86271  1.0000
  C   C14       1.0  0.88944  0.41901  0.13729  1.0000
  C   C15       1.0  0.24401  0.43150  0.68681  1.0000
  C   C16       1.0  0.75599  0.56850  0.31319  1.0000
  C   C17       1.0  0.37633  0.41170  0.73621  1.0000
  C   C18       1.0  0.62367  0.58830  0.26379  1.0000
  C   C19       1.0  0.35926  0.28452  0.77660  1.0000
  C   C20       1.0  0.64073  0.71548  0.22340  1.0000
  C   C21       1.0  0.21178  0.18247  0.76593  1.0000
  C   C22       1.0  0.78822  0.81753  0.23407  1.0000
  C   C23       1.0  0.08769  0.21011  0.71270  1.0000
  C   C24       1.0  0.91230  0.78989  0.28730  1.0000
  C   C25       1.0  0.53068  0.52543  0.74438  1.0000
  C   C26       1.0  0.46931  0.47457  0.25562  1.0000
  C   C27       1.0  0.18254  0.04960  0.81381  1.0000
  C   C28       1.0  0.81745  0.95040  0.18619  1.0000
  C   C29       1.0  0.60320  0.25334  0.45788  1.0000
  C   C30       1.0  0.39680  0.74666  0.54212  1.0000
  C   C31       1.0  0.72590  0.18708  0.45798  1.0000
  C   C32       1.0  0.27410  0.81292  0.54202  1.0000
  C   C33       1.0  0.75130  0.11180  0.53090  1.0000
  C   C34       1.0  0.24870  0.88821  0.46910  1.0000
  C   C35       1.0  0.65148  0.10318  0.59937  1.0000
  C   C36       1.0  0.34852  0.89682  0.40063  1.0000
  C   C37       1.0  0.53262  0.17376  0.59311  1.0000
  C   C38       1.0  0.46738  0.82624  0.40689  1.0000
  C   C39       1.0  0.82190  0.19502  0.37859  1.0000
  C   C40       1.0  0.17810  0.80498  0.62141  1.0000
  C   C41       1.0  0.66203  0.01217  0.67472  1.0000
  C   C42       1.0  0.33797  0.98783  0.32528  1.0000
  N   N1        1.0  0.88941  0.23130  0.93726  1.0000
  N   N2        1.0  0.11059  0.76869  0.06274  1.0000
  N   N3        1.0  0.10261  0.33265  0.67406  1.0000
  N   N4        1.0  0.89739  0.66735  0.32594  1.0000
  N   N5        1.0  0.50890  0.24883  0.52457  1.0000
  N   N6        1.0  0.49110  0.75117  0.47543  1.0000
  O   O1        1.0  0.90672  0.49843  0.62963  1.0000
  O   O2        1.0  0.09328  0.50157  0.37037  1.0000
  O   O3        1.0  0.73260  0.64709  0.54146  1.0000
  O   O4        1.0  0.26740  0.35291  0.45854  1.0000
  O   O5        1.0  0.39660  0.89750  0.03987  1.0000
  O   O6        1.0  0.60340  0.10250  0.96013  1.0000
  O   O7        1.0  0.24412  0.16355  0.12000  1.0000
  O   O8        1.0  0.75588  0.83645  0.88000  1.0000
  O   O9        1.0  0.42430  0.28173  0.04081  1.0000
  O   O10       1.0  0.57570  0.71827  0.95919  1.0000
  O   O11       1.0  0.99657  0.61851  0.82620  1.0000
  O   O12       1.0  0.00343  0.38149  0.17380  1.0000
  O   O13       1.0  0.25276  0.65395  0.87031  1.0000
  O   O14       1.0  0.74724  0.34605  0.12969  1.0000
  O   O15       1.0  0.53122  0.65698  0.72877  1.0000
  O   O16       1.0  0.46878  0.34301  0.27123  1.0000
  O   O17       1.0  0.65518  0.49114  0.76370  1.0000
  O   O18       1.0  0.34482  0.50886  0.23630  1.0000
  O   O19       1.0  0.04507  0.96534  0.80408  1.0000
  O   O20       1.0  0.95493  0.03466  0.19592  1.0000
  O   O21       1.0  0.29870  0.03258  0.86398  1.0000
  O   O22       1.0  0.70129  0.96742  0.13602  1.0000
  O   O23       1.0  0.75918  0.21276  0.30060  1.0000
  O   O24       1.0  0.24082  0.78724  0.69940  1.0000
  O   O25       1.0  0.96055  0.18504  0.39442  1.0000
  O   O26       1.0  0.03946  0.81496  0.60559  1.0000
  O   O27       1.0  0.57111  0.01643  0.73672  1.0000
  O   O28       1.0  0.42889  0.98357  0.26328  1.0000
  O   O29       1.0  0.75847  0.93504  0.67027  1.0000
  O   O30       1.0  0.24153  0.06496  0.32973  1.0000
