data_image0
_chemical_formula_structural       Zn2H30C38N6O8
_chemical_formula_sum              "Zn2 H30 C38 N6 O8"
_cell_length_a       7.88033
_cell_length_b       10.3576
_cell_length_c       11.2435
_cell_angle_alpha    70.6271
_cell_angle_beta     84.0942
_cell_angle_gamma    73.7548

_space_group_name_H-M_alt    "P 1"
_space_group_IT_number       1

loop_
  _space_group_symop_operation_xyz
  'x, y, z'

loop_
  _atom_site_type_symbol
  _atom_site_label
  _atom_site_symmetry_multiplicity
  _atom_site_fract_x
  _atom_site_fract_y
  _atom_site_fract_z
  _atom_site_occupancy
  Zn  Zn1       1.0  0.15313  0.34273  0.21635  1.0000
  Zn  Zn2       1.0  0.84686  0.65727  0.78365  1.0000
  H   H1        1.0  0.93341  0.35878  0.57789  1.0000
  H   H2        1.0  0.06660  0.64122  0.42211  1.0000
  H   H3        1.0  0.83346  0.46740  0.09036  1.0000
  H   H4        1.0  0.16653  0.53260  0.90964  1.0000
  H   H5        1.0  0.54874  0.63637  0.11345  1.0000
  H   H6        1.0  0.45124  0.36363  0.88657  1.0000
  H   H7        1.0  0.46629  0.66711  0.32779  1.0000
  H   H8        1.0  0.53371  0.33288  0.67222  1.0000
  H   H9        1.0  0.67320  0.52634  0.50749  1.0000
  H   H10       1.0  0.32681  0.47366  0.49252  1.0000
  H   H11       1.0  0.05737  0.15671  0.43535  1.0000
  H   H12       1.0  0.94263  0.84329  0.56465  1.0000
  H   H13       1.0  0.08271  0.12736  0.59774  1.0000
  H   H14       1.0  0.91729  0.87264  0.40226  1.0000
  H   H15       1.0  0.36994  0.10836  0.66890  1.0000
  H   H16       1.0  0.63007  0.89164  0.33110  1.0000
  H   H17       1.0  0.69212  0.08631  0.61234  1.0000
  H   H18       1.0  0.30788  0.91370  0.38765  1.0000
  H   H19       1.0  0.77581  0.17606  0.38256  1.0000
  H   H20       1.0  0.22419  0.82394  0.61743  1.0000
  H   H21       1.0  0.53324  0.29353  0.22430  1.0000
  H   H22       1.0  0.46674  0.70647  0.77569  1.0000
  H   H23       1.0  0.29151  0.70984  0.92832  1.0000
  H   H24       1.0  0.70848  0.29016  0.07168  1.0000
  H   H25       1.0  0.34484  0.94643  0.81493  1.0000
  H   H26       1.0  0.65517  0.05357  0.18507  1.0000
  H   H27       1.0  0.28010  0.13202  0.92364  1.0000
  H   H28       1.0  0.71991  0.86798  0.07637  1.0000
  H   H29       1.0  0.12153  0.83832  0.25590  1.0000
  H   H30       1.0  0.87847  0.16168  0.74410  1.0000
  C   C1        1.0  0.79163  0.48263  0.18153  1.0000
  C   C2        1.0  0.20837  0.51737  0.81847  1.0000
  C   C3        1.0  0.63357  0.57677  0.19448  1.0000
  C   C4        1.0  0.36642  0.42323  0.80552  1.0000
  C   C5        1.0  0.59048  0.59416  0.31364  1.0000
  C   C6        1.0  0.40952  0.40584  0.68636  1.0000
  C   C7        1.0  0.70356  0.51689  0.41350  1.0000
  C   C8        1.0  0.29645  0.48312  0.58651  1.0000
  C   C9        1.0  0.86203  0.41873  0.39502  1.0000
  C   C10       1.0  0.13797  0.58127  0.60498  1.0000
  C   C11       1.0  0.09419  0.20087  0.50266  1.0000
  C   C12       1.0  0.90581  0.79913  0.49734  1.0000
  C   C13       1.0  0.28628  0.20155  0.47648  1.0000
  C   C14       1.0  0.71372  0.79845  0.52352  1.0000
  C   C15       1.0  0.41264  0.14511  0.57113  1.0000
  C   C16       1.0  0.58737  0.85488  0.42887  1.0000
  C   C17       1.0  0.59072  0.13481  0.53977  1.0000
  C   C18       1.0  0.40928  0.86519  0.46022  1.0000
  C   C19       1.0  0.63843  0.18509  0.41308  1.0000
  C   C20       1.0  0.36156  0.81491  0.58691  1.0000
  C   C21       1.0  0.50541  0.24703  0.32391  1.0000
  C   C22       1.0  0.49458  0.75297  0.67608  1.0000
  C   C23       1.0  0.18324  0.61345  0.17174  1.0000
  C   C24       1.0  0.81675  0.38655  0.82826  1.0000
  C   C25       1.0  0.20475  0.75842  0.09926  1.0000
  C   C26       1.0  0.79526  0.24157  0.90074  1.0000
  C   C27       1.0  0.26567  0.79111  0.97412  1.0000
  C   C28       1.0  0.73433  0.20889  0.02589  1.0000
  C   C29       1.0  0.29417  0.92411  0.91140  1.0000
  C   C30       1.0  0.70583  0.07589  0.08860  1.0000
  C   C31       1.0  0.25894  0.02732  0.97138  1.0000
  C   C32       1.0  0.74107  0.97268  0.02862  1.0000
  C   C33       1.0  0.19428  0.99677  0.09580  1.0000
  C   C34       1.0  0.80572  0.00323  0.90420  1.0000
  C   C35       1.0  0.16926  0.86217  0.15876  1.0000
  C   C36       1.0  0.83074  0.13784  0.84124  1.0000
  C   C37       1.0  0.15280  0.10407  0.16466  1.0000
  C   C38       1.0  0.84721  0.89592  0.83535  1.0000
  N   N1        1.0  0.90489  0.40586  0.27846  1.0000
  N   N2        1.0  0.09511  0.59414  0.72154  1.0000
  N   N3        1.0  0.96960  0.33703  0.49438  1.0000
  N   N4        1.0  0.03040  0.66296  0.50562  1.0000
  N   N5        1.0  0.33452  0.25299  0.35485  1.0000
  N   N6        1.0  0.66547  0.74701  0.64515  1.0000
  O   O1        1.0  0.20853  0.52404  0.10951  1.0000
  O   O2        1.0  0.79146  0.47596  0.89048  1.0000
  O   O3        1.0  0.14560  0.58336  0.28740  1.0000
  O   O4        1.0  0.85441  0.41663  0.71260  1.0000
  O   O5        1.0  0.08929  0.07273  0.27473  1.0000
  O   O6        1.0  0.91073  0.92726  0.72528  1.0000
  O   O7        1.0  0.18910  0.22426  0.10541  1.0000
  O   O8        1.0  0.81089  0.77574  0.89459  1.0000
