data_image0
_chemical_formula_structural       Zn2H30C38N6O8
_chemical_formula_sum              "Zn2 H30 C38 N6 O8"
_cell_length_a       9.14557
_cell_length_b       10.2797
_cell_length_c       10.2083
_cell_angle_alpha    64.9827
_cell_angle_beta     76.7536
_cell_angle_gamma    73.0715

_space_group_name_H-M_alt    "P 1"
_space_group_IT_number       1

loop_
  _space_group_symop_operation_xyz
  'x, y, z'

loop_
  _atom_site_type_symbol
  _atom_site_label
  _atom_site_symmetry_multiplicity
  _atom_site_fract_x
  _atom_site_fract_y
  _atom_site_fract_z
  _atom_site_occupancy
  Zn  Zn1       1.0  0.11468  0.87534  0.39221  1.0000
  Zn  Zn2       1.0  0.88532  0.12466  0.60779  1.0000
  H   H1        1.0  0.54640  0.07928  0.05576  1.0000
  H   H2        1.0  0.45360  0.92072  0.94425  1.0000
  H   H3        1.0  0.13329  0.14275  0.11665  1.0000
  H   H4        1.0  0.86671  0.85725  0.88335  1.0000
  H   H5        1.0  0.97210  0.29173  0.90966  1.0000
  H   H6        1.0  0.02790  0.70827  0.09034  1.0000
  H   H7        1.0  0.72491  0.22925  0.92135  1.0000
  H   H8        1.0  0.27509  0.77075  0.07865  1.0000
  H   H9        1.0  0.83457  0.86051  0.32315  1.0000
  H   H10       1.0  0.16543  0.13949  0.67685  1.0000
  H   H11       1.0  0.45092  0.88709  0.24769  1.0000
  H   H12       1.0  0.54909  0.11291  0.75231  1.0000
  H   H13       1.0  0.60888  0.83652  0.34242  1.0000
  H   H14       1.0  0.39112  0.16347  0.65758  1.0000
  H   H15       1.0  0.80627  0.61724  0.33751  1.0000
  H   H16       1.0  0.19374  0.38276  0.66248  1.0000
  H   H17       1.0  0.90416  0.41764  0.23895  1.0000
  H   H18       1.0  0.09584  0.58236  0.76105  1.0000
  H   H19       1.0  0.79517  0.44548  0.02120  1.0000
  H   H20       1.0  0.20483  0.55452  0.97880  1.0000
  H   H21       1.0  0.59180  0.66934  0.91438  1.0000
  H   H22       1.0  0.40820  0.33066  0.08562  1.0000
  H   H23       1.0  0.51057  0.49865  0.35782  1.0000
  H   H24       1.0  0.48943  0.50135  0.64218  1.0000
  H   H25       1.0  0.64242  0.25031  0.35425  1.0000
  H   H26       1.0  0.35758  0.74969  0.64575  1.0000
  H   H27       1.0  0.48671  0.08010  0.37017  1.0000
  H   H28       1.0  0.51329  0.91990  0.62983  1.0000
  H   H29       1.0  0.07251  0.40827  0.38588  1.0000
  H   H30       1.0  0.92749  0.59173  0.61412  1.0000
  C   C1        1.0  0.02545  0.11815  0.11619  1.0000
  C   C2        1.0  0.97455  0.88185  0.88381  1.0000
  C   C3        1.0  0.93385  0.20153  0.00359  1.0000
  C   C4        1.0  0.06615  0.79847  0.99641  1.0000
  C   C5        1.0  0.79712  0.16610  0.00902  1.0000
  C   C6        1.0  0.20288  0.83390  0.99098  1.0000
  C   C7        1.0  0.75230  0.04296  0.12692  1.0000
  C   C8        1.0  0.24769  0.95704  0.87308  1.0000
  C   C9        1.0  0.85413  0.96172  0.23349  1.0000
  C   C10       1.0  0.14587  0.03828  0.76651  1.0000
  C   C11       1.0  0.57669  0.86921  0.23382  1.0000
  C   C12       1.0  0.42331  0.13079  0.76618  1.0000
  C   C13       1.0  0.64532  0.74554  0.17921  1.0000
  C   C14       1.0  0.35468  0.25446  0.82079  1.0000
  C   C15       1.0  0.76013  0.62448  0.24477  1.0000
  C   C16       1.0  0.23988  0.37552  0.75523  1.0000
  C   C17       1.0  0.81630  0.51442  0.18834  1.0000
  C   C18       1.0  0.18370  0.48557  0.81166  1.0000
  C   C19       1.0  0.75614  0.52909  0.06790  1.0000
  C   C20       1.0  0.24386  0.47091  0.93210  1.0000
  C   C21       1.0  0.64236  0.65354  0.00863  1.0000
  C   C22       1.0  0.35765  0.34646  0.99136  1.0000
  C   C23       1.0  0.19763  0.61748  0.37072  1.0000
  C   C24       1.0  0.80237  0.38252  0.62928  1.0000
  C   C25       1.0  0.28347  0.47032  0.36720  1.0000
  C   C26       1.0  0.71653  0.52968  0.63280  1.0000
  C   C27       1.0  0.44420  0.42496  0.36052  1.0000
  C   C28       1.0  0.55580  0.57504  0.63948  1.0000
  C   C29       1.0  0.51744  0.28543  0.35961  1.0000
  C   C30       1.0  0.48255  0.71457  0.64039  1.0000
  C   C31       1.0  0.43090  0.18938  0.36941  1.0000
  C   C32       1.0  0.56910  0.81062  0.63059  1.0000
  C   C33       1.0  0.26941  0.23291  0.37957  1.0000
  C   C34       1.0  0.73059  0.76709  0.62044  1.0000
  C   C35       1.0  0.19722  0.37400  0.37618  1.0000
  C   C36       1.0  0.80278  0.62600  0.62382  1.0000
  C   C37       1.0  0.17278  0.13016  0.39801  1.0000
  C   C38       1.0  0.82722  0.86984  0.60199  1.0000
  N   N1        1.0  0.98424  0.00046  0.22795  1.0000
  N   N2        1.0  0.01576  0.99954  0.77205  1.0000
  N   N3        1.0  0.61835  0.00681  0.13376  1.0000
  N   N4        1.0  0.38165  0.99319  0.86625  1.0000
  N   N5        1.0  0.58837  0.75963  0.06208  1.0000
  N   N6        1.0  0.41163  0.24037  0.93792  1.0000
  O   O1        1.0  0.05630  0.65835  0.35893  1.0000
  O   O2        1.0  0.94370  0.34165  0.64107  1.0000
  O   O3        1.0  0.27415  0.69702  0.38770  1.0000
  O   O4        1.0  0.72585  0.30298  0.61230  1.0000
  O   O5        1.0  0.02615  0.17127  0.41896  1.0000
  O   O6        1.0  0.97385  0.82873  0.58103  1.0000
  O   O7        1.0  0.24238  0.00566  0.39033  1.0000
  O   O8        1.0  0.75762  0.99434  0.60967  1.0000
