data_image0
_chemical_formula_structural       Ag8H24C48S8N8Cl8O40
_chemical_formula_sum              "Ag8 H24 C48 S8 N8 Cl8 O40"
_cell_length_a       5.13474
_cell_length_b       15.1922
_cell_length_c       24.0585
_cell_angle_alpha    106.867
_cell_angle_beta     90
_cell_angle_gamma    90

_space_group_name_H-M_alt    "P 1"
_space_group_IT_number       1

loop_
  _space_group_symop_operation_xyz
  'x, y, z'

loop_
  _atom_site_type_symbol
  _atom_site_label
  _atom_site_symmetry_multiplicity
  _atom_site_fract_x
  _atom_site_fract_y
  _atom_site_fract_z
  _atom_site_occupancy
  Ag  Ag1       1.0  0.03076  0.03359  0.44914  1.0000
  Ag  Ag2       1.0  0.53076  0.96641  0.05086  1.0000
  Ag  Ag3       1.0  0.96924  0.96641  0.55086  1.0000
  Ag  Ag4       1.0  0.46923  0.03359  0.94914  1.0000
  Ag  Ag5       1.0  0.06323  0.02041  0.17920  1.0000
  Ag  Ag6       1.0  0.56323  0.97959  0.32080  1.0000
  Ag  Ag7       1.0  0.93677  0.97959  0.82080  1.0000
  Ag  Ag8       1.0  0.43677  0.02041  0.67920  1.0000
  H   H1        1.0  0.50169  0.35578  0.75737  1.0000
  H   H2        1.0  0.00169  0.64422  0.74263  1.0000
  H   H3        1.0  0.49831  0.64422  0.24263  1.0000
  H   H4        1.0  0.99831  0.35578  0.25737  1.0000
  H   H5        1.0  0.14613  0.44954  0.73306  1.0000
  H   H6        1.0  0.64613  0.55046  0.76694  1.0000
  H   H7        1.0  0.85387  0.55046  0.26694  1.0000
  H   H8        1.0  0.35387  0.44954  0.23306  1.0000
  H   H9        1.0  0.08361  0.25586  0.56244  1.0000
  H   H10       1.0  0.58361  0.74414  0.93756  1.0000
  H   H11       1.0  0.91639  0.74414  0.43756  1.0000
  H   H12       1.0  0.41639  0.25586  0.06244  1.0000
  H   H13       1.0  0.99175  0.37804  0.50202  1.0000
  H   H14       1.0  0.49175  0.62196  0.99798  1.0000
  H   H15       1.0  0.00825  0.62196  0.49798  1.0000
  H   H16       1.0  0.50825  0.37804  0.00202  1.0000
  H   H17       1.0  0.33542  0.47083  0.47149  1.0000
  H   H18       1.0  0.83541  0.52917  0.02852  1.0000
  H   H19       1.0  0.66459  0.52917  0.52852  1.0000
  H   H20       1.0  0.16459  0.47083  0.97148  1.0000
  H   H21       1.0  0.43837  0.25373  0.31154  1.0000
  H   H22       1.0  0.93837  0.74627  0.18846  1.0000
  H   H23       1.0  0.56163  0.74627  0.68846  1.0000
  H   H24       1.0  0.06163  0.25373  0.81154  1.0000
  C   C1        1.0  0.37710  0.22548  0.61813  1.0000
  C   C2        1.0  0.87711  0.77452  0.88187  1.0000
  C   C3        1.0  0.62290  0.77452  0.38187  1.0000
  C   C4        1.0  0.12290  0.22548  0.11813  1.0000
  C   C5        1.0  0.49260  0.25364  0.67366  1.0000
  C   C6        1.0  0.99260  0.74636  0.82634  1.0000
  C   C7        1.0  0.50740  0.74636  0.32634  1.0000
  C   C8        1.0  0.00740  0.25364  0.17366  1.0000
  C   C9        1.0  0.40935  0.33426  0.71485  1.0000
  C   C10       1.0  0.90936  0.66574  0.78515  1.0000
  C   C11       1.0  0.59065  0.66574  0.28515  1.0000
  C   C12       1.0  0.09065  0.33426  0.21485  1.0000
  C   C13       1.0  0.21136  0.38687  0.70131  1.0000
  C   C14       1.0  0.71136  0.61313  0.79869  1.0000
  C   C15       1.0  0.78864  0.61313  0.29869  1.0000
  C   C16       1.0  0.28864  0.38687  0.20131  1.0000
  C   C17       1.0  0.09788  0.35767  0.64637  1.0000
  C   C18       1.0  0.59788  0.64233  0.85363  1.0000
  C   C19       1.0  0.90212  0.64233  0.35363  1.0000
  C   C20       1.0  0.40212  0.35767  0.14637  1.0000
  C   C21       1.0  0.17803  0.27801  0.60461  1.0000
  C   C22       1.0  0.67803  0.72199  0.89539  1.0000
  C   C23       1.0  0.82197  0.72199  0.39539  1.0000
  C   C24       1.0  0.32197  0.27801  0.10461  1.0000
  C   C25       1.0  0.14555  0.22956  0.36966  1.0000
  C   C26       1.0  0.64555  0.77044  0.13035  1.0000
  C   C27       1.0  0.85445  0.77044  0.63035  1.0000
  C   C28       1.0  0.35445  0.22956  0.86966  1.0000
  C   C29       1.0  0.02113  0.26528  0.42372  1.0000
  C   C30       1.0  0.52113  0.73471  0.07628  1.0000
  C   C31       1.0  0.97887  0.73472  0.57628  1.0000
  C   C32       1.0  0.47887  0.26528  0.92372  1.0000
  C   C33       1.0  0.08998  0.35183  0.46038  1.0000
  C   C34       1.0  0.58998  0.64817  0.03962  1.0000
  C   C35       1.0  0.91002  0.64817  0.53962  1.0000
  C   C36       1.0  0.41002  0.35183  0.96038  1.0000
  C   C37       1.0  0.28231  0.40315  0.44366  1.0000
  C   C38       1.0  0.78231  0.59685  0.05634  1.0000
  C   C39       1.0  0.71770  0.59685  0.55634  1.0000
  C   C40       1.0  0.21770  0.40315  0.94366  1.0000
  C   C41       1.0  0.40366  0.36690  0.39005  1.0000
  C   C42       1.0  0.90366  0.63310  0.10995  1.0000
  C   C43       1.0  0.59634  0.63310  0.60995  1.0000
  C   C44       1.0  0.09634  0.36690  0.89005  1.0000
  C   C45       1.0  0.33782  0.28114  0.35272  1.0000
  C   C46       1.0  0.83782  0.71886  0.14728  1.0000
  C   C47       1.0  0.66217  0.71886  0.64728  1.0000
  C   C48       1.0  0.16217  0.28114  0.85272  1.0000
  S   S1        1.0  0.46367  0.12155  0.56399  1.0000
  S   S2        1.0  0.96367  0.87845  0.93601  1.0000
  S   S3        1.0  0.53633  0.87845  0.43601  1.0000
  S   S4        1.0  0.03633  0.12155  0.06399  1.0000
  S   S5        1.0  0.06968  0.11861  0.32181  1.0000
  S   S6        1.0  0.56968  0.88139  0.17819  1.0000
  S   S7        1.0  0.93032  0.88139  0.67819  1.0000
  S   S8        1.0  0.43032  0.11861  0.82181  1.0000
  N   N1        1.0  0.88391  0.41098  0.63234  1.0000
  N   N2        1.0  0.38391  0.58902  0.86766  1.0000
  N   N3        1.0  0.11609  0.58902  0.36766  1.0000
  N   N4        1.0  0.61609  0.41098  0.13234  1.0000
  N   N5        1.0  0.61104  0.41932  0.37273  1.0000
  N   N6        1.0  0.11104  0.58068  0.12727  1.0000
  N   N7        1.0  0.38896  0.58068  0.62727  1.0000
  N   N8        1.0  0.88896  0.41932  0.87273  1.0000
  Cl  Cl1       1.0  0.73508  0.19071  0.69385  1.0000
  Cl  Cl2       1.0  0.23508  0.80929  0.80615  1.0000
  Cl  Cl3       1.0  0.26492  0.80929  0.30615  1.0000
  Cl  Cl4       1.0  0.76492  0.19071  0.19385  1.0000
  Cl  Cl5       1.0  0.78087  0.20574  0.44760  1.0000
  Cl  Cl6       1.0  0.28087  0.79426  0.05240  1.0000
  Cl  Cl7       1.0  0.21913  0.79426  0.55240  1.0000
  Cl  Cl8       1.0  0.71913  0.20574  0.94760  1.0000
  O   O1        1.0  0.33661  0.12717  0.51049  1.0000
  O   O2        1.0  0.83661  0.87283  0.98951  1.0000
  O   O3        1.0  0.66339  0.87283  0.48951  1.0000
  O   O4        1.0  0.16339  0.12717  0.01049  1.0000
  O   O5        1.0  0.35527  0.04617  0.58538  1.0000
  O   O6        1.0  0.85528  0.95382  0.91462  1.0000
  O   O7        1.0  0.64473  0.95383  0.41462  1.0000
  O   O8        1.0  0.14472  0.04617  0.08538  1.0000
  O   O9        1.0  0.74835  0.11843  0.56044  1.0000
  O   O10       1.0  0.24834  0.88157  0.93956  1.0000
  O   O11       1.0  0.25165  0.88157  0.43956  1.0000
  O   O12       1.0  0.75165  0.11843  0.06044  1.0000
  O   O13       1.0  0.80672  0.47960  0.67077  1.0000
  O   O14       1.0  0.30672  0.52040  0.82923  1.0000
  O   O15       1.0  0.19328  0.52040  0.32923  1.0000
  O   O16       1.0  0.69328  0.47960  0.17077  1.0000
  O   O17       1.0  0.78783  0.38437  0.58283  1.0000
  O   O18       1.0  0.28783  0.61563  0.91717  1.0000
  O   O19       1.0  0.21217  0.61563  0.41717  1.0000
  O   O20       1.0  0.71217  0.38437  0.08283  1.0000
  O   O21       1.0  0.22791  0.11053  0.26969  1.0000
  O   O22       1.0  0.72791  0.88947  0.23031  1.0000
  O   O23       1.0  0.77209  0.88947  0.73031  1.0000
  O   O24       1.0  0.27209  0.11053  0.76969  1.0000
  O   O25       1.0  0.78798  0.11725  0.31216  1.0000
  O   O26       1.0  0.28798  0.88276  0.18784  1.0000
  O   O27       1.0  0.21202  0.88276  0.68784  1.0000
  O   O28       1.0  0.71202  0.11725  0.81216  1.0000
  O   O29       1.0  0.15152  0.05139  0.35287  1.0000
  O   O30       1.0  0.65152  0.94861  0.14713  1.0000
  O   O31       1.0  0.84847  0.94861  0.64713  1.0000
  O   O32       1.0  0.34847  0.05139  0.85287  1.0000
  O   O33       1.0  0.70537  0.48548  0.41054  1.0000
  O   O34       1.0  0.20537  0.51452  0.08946  1.0000
  O   O35       1.0  0.29464  0.51452  0.58946  1.0000
  O   O36       1.0  0.79464  0.48548  0.91054  1.0000
  O   O37       1.0  0.68248  0.39418  0.32121  1.0000
  O   O38       1.0  0.18248  0.60582  0.17879  1.0000
  O   O39       1.0  0.31752  0.60582  0.67879  1.0000
  O   O40       1.0  0.81752  0.39418  0.82121  1.0000
