data_image0
_chemical_formula_structural       Ag4H30C42S4N6O14
_chemical_formula_sum              "Ag4 H30 C42 S4 N6 O14"
_cell_length_a       8.24139
_cell_length_b       10.9134
_cell_length_c       12.0829
_cell_angle_alpha    70.1811
_cell_angle_beta     83.4138
_cell_angle_gamma    82.687

_space_group_name_H-M_alt    "P 1"
_space_group_IT_number       1

loop_
  _space_group_symop_operation_xyz
  'x, y, z'

loop_
  _atom_site_type_symbol
  _atom_site_label
  _atom_site_symmetry_multiplicity
  _atom_site_fract_x
  _atom_site_fract_y
  _atom_site_fract_z
  _atom_site_occupancy
  Ag  Ag1       1.0  0.34660  0.01970  0.66732  1.0000
  Ag  Ag2       1.0  0.65340  0.98030  0.33268  1.0000
  Ag  Ag3       1.0  0.15736  0.40355  0.42851  1.0000
  Ag  Ag4       1.0  0.84264  0.59645  0.57149  1.0000
  H   H1        1.0  0.80218  0.71224  0.05041  1.0000
  H   H2        1.0  0.19782  0.28776  0.94959  1.0000
  H   H3        1.0  0.87917  0.18756  0.57618  1.0000
  H   H4        1.0  0.12083  0.81244  0.42382  1.0000
  H   H5        1.0  0.17528  0.12970  0.43100  1.0000
  H   H6        1.0  0.82472  0.87030  0.56900  1.0000
  H   H7        1.0  0.47646  0.73130  0.78829  1.0000
  H   H8        1.0  0.52355  0.26870  0.21170  1.0000
  H   H9        1.0  0.54813  0.07395  0.84387  1.0000
  H   H10       1.0  0.45186  0.92605  0.15614  1.0000
  H   H11       1.0  0.43894  0.38042  0.79909  1.0000
  H   H12       1.0  0.56106  0.61959  0.20091  1.0000
  H   H13       1.0  0.86757  0.20611  0.98828  1.0000
  H   H14       1.0  0.13243  0.79389  0.01172  1.0000
  H   H15       1.0  0.06664  0.99469  0.33177  1.0000
  H   H16       1.0  0.93336  0.00530  0.66823  1.0000
  H   H17       1.0  0.90804  0.10180  0.15736  1.0000
  H   H18       1.0  0.09196  0.89820  0.84264  1.0000
  H   H19       1.0  0.37077  0.31098  0.63610  1.0000
  H   H20       1.0  0.62924  0.68902  0.36390  1.0000
  H   H21       1.0  0.74316  0.95467  0.99946  1.0000
  H   H22       1.0  0.25684  0.04532  0.00054  1.0000
  H   H23       1.0  0.59460  0.55665  0.78532  1.0000
  H   H24       1.0  0.40541  0.44335  0.21468  1.0000
  H   H25       1.0  0.95901  0.47243  0.19999  1.0000
  H   H26       1.0  0.04098  0.52757  0.80001  1.0000
  H   H27       1.0  0.15086  0.44104  0.63859  1.0000
  H   H28       1.0  0.84914  0.55896  0.36142  1.0000
  H   H29       1.0  0.26913  0.55129  0.56834  1.0000
  H   H30       1.0  0.73087  0.44872  0.43166  1.0000
  C   C1        1.0  0.82030  0.25636  0.72438  1.0000
  C   C2        1.0  0.17970  0.74364  0.27562  1.0000
  C   C3        1.0  0.71833  0.76733  0.98339  1.0000
  C   C4        1.0  0.28167  0.23267  0.01661  1.0000
  C   C5        1.0  0.91935  0.29789  0.16383  1.0000
  C   C6        1.0  0.08065  0.70211  0.83617  1.0000
  C   C7        1.0  0.78194  0.22434  0.62867  1.0000
  C   C8        1.0  0.21806  0.77566  0.37133  1.0000
  C   C9        1.0  0.10051  0.17471  0.35643  1.0000
  C   C10       1.0  0.89949  0.82530  0.64356  1.0000
  C   C11       1.0  0.69729  0.31689  0.78591  1.0000
  C   C12       1.0  0.30271  0.68311  0.21409  1.0000
  C   C13       1.0  0.53842  0.77645  0.83743  1.0000
  C   C14       1.0  0.46159  0.22356  0.16257  1.0000
  C   C15       1.0  0.64591  0.70187  0.92274  1.0000
  C   C16       1.0  0.35410  0.29813  0.07725  1.0000
  C   C17       1.0  0.82986  0.36845  0.05737  1.0000
  C   C18       1.0  0.17013  0.63155  0.94263  1.0000
  C   C19       1.0  0.57731  0.96843  0.86876  1.0000
  C   C20       1.0  0.42268  0.03158  0.13124  1.0000
  C   C21       1.0  0.53557  0.33466  0.75237  1.0000
  C   C22       1.0  0.46443  0.66534  0.24763  1.0000
  C   C23       1.0  0.69131  0.56027  0.94418  1.0000
  C   C24       1.0  0.30869  0.43973  0.05581  1.0000
  C   C25       1.0  0.81218  0.30523  0.97632  1.0000
  C   C26       1.0  0.18782  0.69477  0.02368  1.0000
  C   C27       1.0  0.04144  0.10018  0.29980  1.0000
  C   C28       1.0  0.95856  0.89982  0.70020  1.0000
  C   C29       1.0  0.95076  0.16137  0.20256  1.0000
  C   C30       1.0  0.04924  0.83863  0.79744  1.0000
  C   C31       1.0  0.49628  0.29708  0.66046  1.0000
  C   C32       1.0  0.50372  0.70292  0.33954  1.0000
  C   C33       1.0  0.62139  0.24495  0.59696  1.0000
  C   C34       1.0  0.37861  0.75505  0.40304  1.0000
  C   C35       1.0  0.68405  0.90196  0.95560  1.0000
  C   C36       1.0  0.31595  0.09804  0.04440  1.0000
  C   C37       1.0  0.66073  0.50168  0.86284  1.0000
  C   C38       1.0  0.33927  0.49831  0.13716  1.0000
  C   C39       1.0  0.72546  0.37267  0.87738  1.0000
  C   C40       1.0  0.27455  0.62733  0.12262  1.0000
  C   C41       1.0  0.98056  0.36629  0.22710  1.0000
  C   C42       1.0  0.01944  0.63371  0.77290  1.0000
  S   S1        1.0  0.03145  0.21792  0.75824  1.0000
  S   S2        1.0  0.96855  0.78208  0.24176  1.0000
  S   S3        1.0  0.58260  0.22377  0.46325  1.0000
  S   S4        1.0  0.41740  0.77623  0.53675  1.0000
  N   N1        1.0  0.77240  0.49402  0.04062  1.0000
  N   N2        1.0  0.22761  0.50598  0.95938  1.0000
  N   N3        1.0  0.07000  0.30639  0.32061  1.0000
  N   N4        1.0  0.93000  0.69361  0.67938  1.0000
  N   N5        1.0  0.50426  0.90670  0.81096  1.0000
  N   N6        1.0  0.49574  0.09330  0.18904  1.0000
  O   O1        1.0  0.08653  0.33848  0.76590  1.0000
  O   O2        1.0  0.91346  0.66152  0.23411  1.0000
  O   O3        1.0  0.03548  0.10895  0.86887  1.0000
  O   O4        1.0  0.96452  0.89105  0.13113  1.0000
  O   O5        1.0  0.11672  0.18460  0.65587  1.0000
  O   O6        1.0  0.88328  0.81540  0.34413  1.0000
  O   O7        1.0  0.40998  0.19417  0.47651  1.0000
  O   O8        1.0  0.59002  0.80583  0.52349  1.0000
  O   O9        1.0  0.70161  0.11660  0.44958  1.0000
  O   O10       1.0  0.29839  0.88340  0.55042  1.0000
  O   O11       1.0  0.60873  0.35229  0.37355  1.0000
  O   O12       1.0  0.39127  0.64771  0.62645  1.0000
  O   O13       1.0  0.18566  0.49949  0.55768  1.0000
  O   O14       1.0  0.81434  0.50051  0.44232  1.0000
