data_image0
_chemical_formula_structural       Zn2H40C44N4O8
_chemical_formula_sum              "Zn2 H40 C44 N4 O8"
_cell_length_a       7.65682
_cell_length_b       8.82203
_cell_length_c       15.4068
_cell_angle_alpha    86.8227
_cell_angle_beta     90.5967
_cell_angle_gamma    82.3828

_space_group_name_H-M_alt    "P 1"
_space_group_IT_number       1

loop_
  _space_group_symop_operation_xyz
  'x, y, z'

loop_
  _atom_site_type_symbol
  _atom_site_label
  _atom_site_symmetry_multiplicity
  _atom_site_fract_x
  _atom_site_fract_y
  _atom_site_fract_z
  _atom_site_occupancy
  Zn  Zn1       1.0  0.61902  0.19626  0.75499  1.0000
  Zn  Zn2       1.0  0.38097  0.80373  0.24501  1.0000
  H   H1        1.0  0.49572  0.50948  0.79734  1.0000
  H   H2        1.0  0.50429  0.49051  0.20266  1.0000
  H   H3        1.0  0.27618  0.64248  0.89466  1.0000
  H   H4        1.0  0.72385  0.35753  0.10533  1.0000
  H   H5        1.0  0.24794  0.20487  0.03074  1.0000
  H   H6        1.0  0.75207  0.79516  0.96927  1.0000
  H   H7        1.0  0.47325  0.09001  0.92832  1.0000
  H   H8        1.0  0.52674  0.91000  0.07169  1.0000
  H   H9        1.0  0.10006  0.63225  0.02502  1.0000
  H   H10       1.0  0.89997  0.36779  0.97497  1.0000
  H   H11       1.0  0.09496  0.46241  0.08883  1.0000
  H   H12       1.0  0.90506  0.53762  0.91117  1.0000
  H   H13       1.0  0.22016  0.18690  0.77333  1.0000
  H   H14       1.0  0.77983  0.81311  0.22666  1.0000
  H   H15       1.0  0.97509  0.13802  0.67613  1.0000
  H   H16       1.0  0.02490  0.86197  0.32387  1.0000
  H   H17       1.0  0.33464  0.12562  0.46302  1.0000
  H   H18       1.0  0.66534  0.87437  0.53698  1.0000
  H   H19       1.0  0.57179  0.16647  0.56991  1.0000
  H   H20       1.0  0.42819  0.83353  0.43008  1.0000
  H   H21       1.0  0.00465  0.14048  0.43741  1.0000
  H   H22       1.0  0.99533  0.85950  0.56259  1.0000
  H   H23       1.0  0.86342  0.13065  0.52846  1.0000
  H   H24       1.0  0.13656  0.86933  0.47154  1.0000
  H   H25       1.0  0.90406  0.48641  0.57980  1.0000
  H   H26       1.0  0.09597  0.51356  0.42020  1.0000
  H   H27       1.0  0.78363  0.63220  0.63586  1.0000
  H   H28       1.0  0.21638  0.36778  0.36413  1.0000
  H   H29       1.0  0.20701  0.47043  0.56781  1.0000
  H   H30       1.0  0.79301  0.52956  0.43219  1.0000
  H   H31       1.0  0.48190  0.58522  0.58639  1.0000
  H   H32       1.0  0.51811  0.41478  0.41362  1.0000
  H   H33       1.0  0.49040  0.79344  0.69031  1.0000
  H   H34       1.0  0.50959  0.20657  0.30969  1.0000
  H   H35       1.0  0.23003  0.86644  0.78124  1.0000
  H   H36       1.0  0.76996  0.13356  0.21876  1.0000
  H   H37       1.0  0.96470  0.77987  0.84820  1.0000
  H   H38       1.0  0.03530  0.22011  0.15180  1.0000
  H   H39       1.0  0.82913  0.67490  0.78859  1.0000
  H   H40       1.0  0.17086  0.32510  0.21141  1.0000
  C   C1        1.0  0.43959  0.44680  0.85074  1.0000
  C   C2        1.0  0.56042  0.55320  0.14926  1.0000
  C   C3        1.0  0.31602  0.51964  0.90498  1.0000
  C   C4        1.0  0.68401  0.48037  0.09501  1.0000
  C   C5        1.0  0.23861  0.43483  0.96979  1.0000
  C   C6        1.0  0.76141  0.56520  0.03021  1.0000
  C   C7        1.0  0.29931  0.27736  0.98002  1.0000
  C   C8        1.0  0.70070  0.72266  0.01998  1.0000
  C   C9        1.0  0.42477  0.21234  0.92365  1.0000
  C   C10       1.0  0.57524  0.78767  0.07635  1.0000
  C   C11       1.0  0.08974  0.50965  0.02141  1.0000
  C   C12       1.0  0.91027  0.49039  0.97859  1.0000
  C   C13       1.0  0.24273  0.16928  0.70463  1.0000
  C   C14       1.0  0.75726  0.83073  0.29536  1.0000
  C   C15       1.0  0.10545  0.14414  0.65013  1.0000
  C   C16       1.0  0.89454  0.85585  0.34987  1.0000
  C   C17       1.0  0.13531  0.12608  0.56172  1.0000
  C   C18       1.0  0.86468  0.87390  0.43827  1.0000
  C   C19       1.0  0.30571  0.13719  0.53168  1.0000
  C   C20       1.0  0.69427  0.86280  0.46832  1.0000
  C   C21       1.0  0.43726  0.15961  0.59035  1.0000
  C   C22       1.0  0.56272  0.84039  0.40964  1.0000
  C   C23       1.0  0.99283  0.08792  0.50288  1.0000
  C   C24       1.0  0.00716  0.91207  0.49712  1.0000
  C   C25       1.0  0.83748  0.41882  0.70874  1.0000
  C   C26       1.0  0.16252  0.58118  0.29126  1.0000
  C   C27       1.0  0.89446  0.53864  0.64294  1.0000
  C   C28       1.0  0.10555  0.46135  0.35706  1.0000
  C   C29       1.0  0.06159  0.60332  0.66273  1.0000
  C   C30       1.0  0.93841  0.39668  0.33728  1.0000
  C   C31       1.0  0.21225  0.55820  0.61464  1.0000
  C   C32       1.0  0.78775  0.44180  0.38537  1.0000
  C   C33       1.0  0.36672  0.62382  0.62432  1.0000
  C   C34       1.0  0.63328  0.37618  0.37568  1.0000
  C   C35       1.0  0.37254  0.73752  0.68345  1.0000
  C   C36       1.0  0.62746  0.26248  0.31656  1.0000
  C   C37       1.0  0.22542  0.77925  0.73390  1.0000
  C   C38       1.0  0.77457  0.22076  0.26610  1.0000
  C   C39       1.0  0.06985  0.71323  0.72510  1.0000
  C   C40       1.0  0.93015  0.28677  0.27490  1.0000
  C   C41       1.0  0.91665  0.76401  0.78235  1.0000
  C   C42       1.0  0.08334  0.23598  0.21765  1.0000
  C   C43       1.0  0.80330  0.91216  0.74962  1.0000
  C   C44       1.0  0.19670  0.08784  0.25038  1.0000
  N   N1        1.0  0.49174  0.29481  0.85877  1.0000
  N   N2        1.0  0.50826  0.70518  0.14123  1.0000
  N   N3        1.0  0.40748  0.17358  0.67594  1.0000
  N   N4        1.0  0.59250  0.82642  0.32406  1.0000
  O   O1        1.0  0.71689  0.34507  0.67707  1.0000
  O   O2        1.0  0.28311  0.65493  0.32293  1.0000
  O   O3        1.0  0.89969  0.39786  0.78405  1.0000
  O   O4        1.0  0.10032  0.60214  0.21596  1.0000
  O   O5        1.0  0.75134  0.00644  0.80918  1.0000
  O   O6        1.0  0.24864  0.99355  0.19083  1.0000
  O   O7        1.0  0.76406  0.93667  0.67071  1.0000
  O   O8        1.0  0.23596  0.06334  0.32929  1.0000
