data_image0
_chemical_formula_structural       Cd2H32C40N4O8
_chemical_formula_sum              "Cd2 H32 C40 N4 O8"
_cell_length_a       9.16094
_cell_length_b       9.65778
_cell_length_c       11.311
_cell_angle_alpha    93.0312
_cell_angle_beta     110.983
_cell_angle_gamma    110.494

_space_group_name_H-M_alt    "P 1"
_space_group_IT_number       1

loop_
  _space_group_symop_operation_xyz
  'x, y, z'

loop_
  _atom_site_type_symbol
  _atom_site_label
  _atom_site_symmetry_multiplicity
  _atom_site_fract_x
  _atom_site_fract_y
  _atom_site_fract_z
  _atom_site_occupancy
  Cd  Cd1       1.0  0.50105  0.17104  0.10293  1.0000
  Cd  Cd2       1.0  0.49895  0.82896  0.89707  1.0000
  H   H1        1.0  0.10276  0.25240  0.23792  1.0000
  H   H2        1.0  0.89723  0.74760  0.76208  1.0000
  H   H3        1.0  0.26516  0.28702  0.39224  1.0000
  H   H4        1.0  0.73484  0.71298  0.60776  1.0000
  H   H5        1.0  0.40074  0.53722  0.52389  1.0000
  H   H6        1.0  0.59926  0.46278  0.47610  1.0000
  H   H7        1.0  0.45413  0.80860  0.54605  1.0000
  H   H8        1.0  0.54587  0.19140  0.45395  1.0000
  H   H9        1.0  0.34396  0.91231  0.35060  1.0000
  H   H10       1.0  0.65604  0.08769  0.64940  1.0000
  H   H11       1.0  0.14128  0.47405  0.11120  1.0000
  H   H12       1.0  0.85872  0.52595  0.88880  1.0000
  H   H13       1.0  0.16470  0.86929  0.12721  1.0000
  H   H14       1.0  0.83531  0.13071  0.87279  1.0000
  H   H15       1.0  0.02956  0.67903  0.04068  1.0000
  H   H16       1.0  0.97044  0.32097  0.95932  1.0000
  H   H17       1.0  0.87694  0.38938  0.30006  1.0000
  H   H18       1.0  0.12305  0.61062  0.69994  1.0000
  H   H19       1.0  0.09088  0.41471  0.51934  1.0000
  H   H20       1.0  0.90912  0.58529  0.48066  1.0000
  H   H21       1.0  0.78996  0.94951  0.50563  1.0000
  H   H22       1.0  0.21004  0.05049  0.49437  1.0000
  H   H23       1.0  0.58781  0.94606  0.28908  1.0000
  H   H24       1.0  0.41219  0.05394  0.71092  1.0000
  H   H25       1.0  0.29769  0.38710  0.67075  1.0000
  H   H26       1.0  0.70231  0.61290  0.32925  1.0000
  H   H27       1.0  0.48745  0.38423  0.88608  1.0000
  H   H28       1.0  0.51256  0.61577  0.11392  1.0000
  H   H29       1.0  0.10837  0.02124  0.92460  1.0000
  H   H30       1.0  0.89163  0.97876  0.07540  1.0000
  H   H31       1.0  0.89817  0.00851  0.71148  1.0000
  H   H32       1.0  0.10183  0.99149  0.28851  1.0000
  C   C1        1.0  0.34170  0.27399  0.23654  1.0000
  C   C2        1.0  0.65830  0.72601  0.76346  1.0000
  C   C3        1.0  0.23769  0.32175  0.29824  1.0000
  C   C4        1.0  0.76231  0.67825  0.70176  1.0000
  C   C5        1.0  0.26891  0.48641  0.31537  1.0000
  C   C6        1.0  0.73109  0.51359  0.68463  1.0000
  C   C7        1.0  0.35584  0.58213  0.43775  1.0000
  C   C8        1.0  0.64416  0.41788  0.56225  1.0000
  C   C9        1.0  0.38524  0.73517  0.45037  1.0000
  C   C10       1.0  0.61476  0.26483  0.54963  1.0000
  C   C11       1.0  0.32377  0.79328  0.34138  1.0000
  C   C12       1.0  0.67623  0.20672  0.65862  1.0000
  C   C13       1.0  0.23216  0.69828  0.21871  1.0000
  C   C14       1.0  0.76784  0.30173  0.78129  1.0000
  C   C15       1.0  0.20864  0.54643  0.20725  1.0000
  C   C16       1.0  0.79137  0.45357  0.79275  1.0000
  C   C17       1.0  0.16126  0.75754  0.09953  1.0000
  C   C18       1.0  0.83874  0.24246  0.90048  1.0000
  C   C19       1.0  0.26839  0.77061  0.02101  1.0000
  C   C20       1.0  0.73161  0.22939  0.97899  1.0000
  C   C21       1.0  0.86192  0.29567  0.35082  1.0000
  C   C22       1.0  0.13808  0.70433  0.64918  1.0000
  C   C23       1.0  0.98164  0.30794  0.47299  1.0000
  C   C24       1.0  0.01836  0.69206  0.52701  1.0000
  C   C25       1.0  0.95828  0.18470  0.53490  1.0000
  C   C26       1.0  0.04172  0.81529  0.46510  1.0000
  C   C27       1.0  0.81458  0.05136  0.46583  1.0000
  C   C28       1.0  0.18542  0.94864  0.53417  1.0000
  C   C29       1.0  0.70088  0.04794  0.34405  1.0000
  C   C30       1.0  0.29912  0.95206  0.65595  1.0000
  C   C31       1.0  0.07843  0.19369  0.66665  1.0000
  C   C32       1.0  0.92157  0.80631  0.33335  1.0000
  C   C33       1.0  0.24649  0.30209  0.72091  1.0000
  C   C34       1.0  0.75351  0.69791  0.27909  1.0000
  C   C35       1.0  0.35591  0.30182  0.84361  1.0000
  C   C36       1.0  0.64409  0.69818  0.15639  1.0000
  C   C37       1.0  0.14505  0.09925  0.86408  1.0000
  C   C38       1.0  0.85495  0.90075  0.13592  1.0000
  C   C39       1.0  0.02799  0.09185  0.74250  1.0000
  C   C40       1.0  0.97201  0.90816  0.25750  1.0000
  N   N1        1.0  0.72217  0.16846  0.28771  1.0000
  N   N2        1.0  0.27783  0.83154  0.71229  1.0000
  N   N3        1.0  0.30711  0.20099  0.91393  1.0000
  N   N4        1.0  0.69289  0.79901  0.08607  1.0000
  O   O1        1.0  0.29519  0.13181  0.20092  1.0000
  O   O2        1.0  0.70481  0.86819  0.79908  1.0000
  O   O3        1.0  0.46691  0.37240  0.22397  1.0000
  O   O4        1.0  0.53309  0.62760  0.77603  1.0000
  O   O5        1.0  0.24588  0.65704  0.94562  1.0000
  O   O6        1.0  0.75412  0.34297  0.05438  1.0000
  O   O7        1.0  0.38723  0.90101  0.03981  1.0000
  O   O8        1.0  0.61277  0.09899  0.96019  1.0000
