data_image0
_chemical_formula_structural       Cd2H40C44N4O8
_chemical_formula_sum              "Cd2 H40 C44 N4 O8"
_cell_length_a       9.98248
_cell_length_b       10.1978
_cell_length_c       11.4838
_cell_angle_alpha    102.597
_cell_angle_beta     99.6074
_cell_angle_gamma    119.23

_space_group_name_H-M_alt    "P 1"
_space_group_IT_number       1

loop_
  _space_group_symop_operation_xyz
  'x, y, z'

loop_
  _atom_site_type_symbol
  _atom_site_label
  _atom_site_symmetry_multiplicity
  _atom_site_fract_x
  _atom_site_fract_y
  _atom_site_fract_z
  _atom_site_occupancy
  Cd  Cd1       1.0  0.94184  0.60073  0.62804  1.0000
  Cd  Cd2       1.0  0.05817  0.39927  0.37196  1.0000
  H   H1        1.0  0.05502  0.37984  0.68947  1.0000
  H   H2        1.0  0.94498  0.62016  0.31053  1.0000
  H   H3        1.0  0.20802  0.35304  0.86848  1.0000
  H   H4        1.0  0.79198  0.64696  0.13152  1.0000
  H   H5        1.0  0.23521  0.75652  0.11651  1.0000
  H   H6        1.0  0.76478  0.24348  0.88349  1.0000
  H   H7        1.0  0.08269  0.76690  0.92702  1.0000
  H   H8        1.0  0.91731  0.23310  0.07298  1.0000
  H   H9        1.0  0.25462  0.51776  0.18567  1.0000
  H   H10       1.0  0.74538  0.48224  0.81433  1.0000
  H   H11       1.0  0.32475  0.42755  0.08541  1.0000
  H   H12       1.0  0.67524  0.57245  0.91459  1.0000
  H   H13       1.0  0.49078  0.78700  0.23052  1.0000
  H   H14       1.0  0.50922  0.21300  0.76948  1.0000
  H   H15       1.0  0.56266  0.71323  0.12110  1.0000
  H   H16       1.0  0.43734  0.28676  0.87890  1.0000
  H   H17       1.0  0.40127  0.42222  0.27543  1.0000
  H   H18       1.0  0.59873  0.57778  0.72457  1.0000
  H   H19       1.0  0.57805  0.40385  0.44043  1.0000
  H   H20       1.0  0.42196  0.59615  0.55957  1.0000
  H   H21       1.0  0.97112  0.85483  0.50011  1.0000
  H   H22       1.0  0.02888  0.14517  0.49989  1.0000
  H   H23       1.0  0.81082  0.89403  0.33408  1.0000
  H   H24       1.0  0.18918  0.10597  0.66592  1.0000
  H   H25       1.0  0.01542  0.09571  0.89292  1.0000
  H   H26       1.0  0.98458  0.90429  0.10708  1.0000
  H   H27       1.0  0.95647  0.07485  0.73352  1.0000
  H   H28       1.0  0.04353  0.92515  0.26648  1.0000
  H   H29       1.0  0.79238  0.92243  0.98075  1.0000
  H   H30       1.0  0.20761  0.07757  0.01925  1.0000
  H   H31       1.0  0.52073  0.85421  0.99131  1.0000
  H   H32       1.0  0.47927  0.14579  0.00869  1.0000
  H   H33       1.0  0.33216  0.85598  0.82152  1.0000
  H   H34       1.0  0.66785  0.14402  0.17847  1.0000
  H   H35       1.0  0.68410  0.98727  0.62663  1.0000
  H   H36       1.0  0.31591  0.01273  0.37338  1.0000
  H   H37       1.0  0.43966  0.00235  0.56499  1.0000
  H   H38       1.0  0.56035  0.99765  0.43501  1.0000
  H   H39       1.0  0.29360  0.93989  0.64614  1.0000
  H   H40       1.0  0.70640  0.06011  0.35386  1.0000
  C   C1        1.0  0.09787  0.46071  0.78582  1.0000
  C   C2        1.0  0.90213  0.53929  0.21418  1.0000
  C   C3        1.0  0.18253  0.44659  0.88611  1.0000
  C   C4        1.0  0.81747  0.55341  0.11389  1.0000
  C   C5        1.0  0.23453  0.55198  0.00871  1.0000
  C   C6        1.0  0.76546  0.44802  0.99128  1.0000
  C   C7        1.0  0.19842  0.67019  0.02374  1.0000
  C   C8        1.0  0.80158  0.32980  0.97626  1.0000
  C   C9        1.0  0.11369  0.67733  0.91886  1.0000
  C   C10       1.0  0.88631  0.32267  0.08114  1.0000
  C   C11       1.0  0.32258  0.53590  0.11832  1.0000
  C   C12       1.0  0.67741  0.46410  0.88169  1.0000
  C   C13       1.0  0.49505  0.68195  0.18803  1.0000
  C   C14       1.0  0.50495  0.31804  0.81197  1.0000
  C   C15       1.0  0.59130  0.66110  0.28987  1.0000
  C   C16       1.0  0.40870  0.33891  0.71013  1.0000
  C   C17       1.0  0.52714  0.52229  0.32106  1.0000
  C   C18       1.0  0.47286  0.47771  0.67894  1.0000
  C   C19       1.0  0.62553  0.51055  0.41403  1.0000
  C   C20       1.0  0.37448  0.48945  0.58597  1.0000
  C   C21       1.0  0.84413  0.76267  0.44732  1.0000
  C   C22       1.0  0.15587  0.23734  0.55268  1.0000
  C   C23       1.0  0.75416  0.78387  0.35614  1.0000
  C   C24       1.0  0.24584  0.21613  0.64386  1.0000
  C   C25       1.0  0.95205  0.87353  0.76396  1.0000
  C   C26       1.0  0.04795  0.12647  0.23604  1.0000
  C   C27       1.0  0.92503  0.01069  0.79996  1.0000
  C   C28       1.0  0.07497  0.98931  0.20004  1.0000
  C   C29       1.0  0.75749  0.96118  0.80345  1.0000
  C   C30       1.0  0.24251  0.03882  0.19655  1.0000
  C   C31       1.0  0.70880  0.92052  0.90481  1.0000
  C   C32       1.0  0.29119  0.07948  0.09518  1.0000
  C   C33       1.0  0.55612  0.88143  0.91063  1.0000
  C   C34       1.0  0.44388  0.11857  0.08937  1.0000
  C   C35       1.0  0.44963  0.88165  0.81513  1.0000
  C   C36       1.0  0.55037  0.11835  0.18486  1.0000
  C   C37       1.0  0.49368  0.91832  0.71145  1.0000
  C   C38       1.0  0.50632  0.08168  0.28855  1.0000
  C   C39       1.0  0.64803  0.95750  0.70673  1.0000
  C   C40       1.0  0.35197  0.04249  0.29327  1.0000
  C   C41       1.0  0.37424  0.91327  0.60725  1.0000
  C   C42       1.0  0.62577  0.08673  0.39275  1.0000
  C   C43       1.0  0.27144  0.74600  0.50616  1.0000
  C   C44       1.0  0.72856  0.25400  0.49384  1.0000
  N   N1        1.0  0.06405  0.57451  0.80149  1.0000
  N   N2        1.0  0.93595  0.42549  0.19851  1.0000
  N   N3        1.0  0.78174  0.62777  0.47624  1.0000
  N   N4        1.0  0.21826  0.37223  0.52376  1.0000
  O   O1        1.0  0.07406  0.90112  0.72725  1.0000
  O   O2        1.0  0.92594  0.09888  0.27275  1.0000
  O   O3        1.0  0.85244  0.73915  0.77036  1.0000
  O   O4        1.0  0.14757  0.26085  0.22965  1.0000
  O   O5        1.0  0.32753  0.70362  0.42638  1.0000
  O   O6        1.0  0.67247  0.29639  0.57362  1.0000
  O   O7        1.0  0.12825  0.64937  0.51020  1.0000
  O   O8        1.0  0.87175  0.35063  0.48980  1.0000
