data_image0
_chemical_formula_structural       Cd2H40C44N4O8
_chemical_formula_sum              "Cd2 H40 C44 N4 O8"
_cell_length_a       9.85781
_cell_length_b       10.5903
_cell_length_c       10.5579
_cell_angle_alpha    81.8975
_cell_angle_beta     65.1998
_cell_angle_gamma    70.9272

_space_group_name_H-M_alt    "P 1"
_space_group_IT_number       1

loop_
  _space_group_symop_operation_xyz
  'x, y, z'

loop_
  _atom_site_type_symbol
  _atom_site_label
  _atom_site_symmetry_multiplicity
  _atom_site_fract_x
  _atom_site_fract_y
  _atom_site_fract_z
  _atom_site_occupancy
  Cd  Cd1       1.0  0.47128  0.63985  0.37192  1.0000
  Cd  Cd2       1.0  0.52872  0.36015  0.62807  1.0000
  H   H1        1.0  0.42696  0.48332  0.16370  1.0000
  H   H2        1.0  0.57304  0.51667  0.83630  1.0000
  H   H3        1.0  0.56513  0.29528  0.99227  1.0000
  H   H4        1.0  0.43487  0.70472  0.00773  1.0000
  H   H5        1.0  0.97965  0.24953  0.06338  1.0000
  H   H6        1.0  0.02035  0.75047  0.93662  1.0000
  H   H7        1.0  0.82490  0.43746  0.23108  1.0000
  H   H8        1.0  0.17510  0.56254  0.76892  1.0000
  H   H9        1.0  0.78662  0.11675  0.88437  1.0000
  H   H10       1.0  0.21338  0.88325  0.11563  1.0000
  H   H11       1.0  0.91676  0.05222  0.96898  1.0000
  H   H12       1.0  0.08324  0.94778  0.03102  1.0000
  H   H13       1.0  0.95702  0.23790  0.71508  1.0000
  H   H14       1.0  0.04298  0.76210  0.28492  1.0000
  H   H15       1.0  0.08011  0.20631  0.80624  1.0000
  H   H16       1.0  0.91989  0.79369  0.19376  1.0000
  H   H17       1.0  0.92617  0.99371  0.66446  1.0000
  H   H18       1.0  0.07383  0.00629  0.33553  1.0000
  H   H19       1.0  0.10707  0.79076  0.52257  1.0000
  H   H20       1.0  0.89293  0.20924  0.47743  1.0000
  H   H21       1.0  0.48699  0.83588  0.56579  1.0000
  H   H22       1.0  0.51301  0.16412  0.43421  1.0000
  H   H23       1.0  0.32179  0.04341  0.70794  1.0000
  H   H24       1.0  0.67821  0.95659  0.29206  1.0000
  H   H25       1.0  0.94520  0.58317  0.45399  1.0000
  H   H26       1.0  0.05480  0.41683  0.54601  1.0000
  H   H27       1.0  0.77554  0.70257  0.44409  1.0000
  H   H28       1.0  0.22446  0.29744  0.55591  1.0000
  H   H29       1.0  0.87522  0.50461  0.74106  1.0000
  H   H30       1.0  0.12477  0.49539  0.25894  1.0000
  H   H31       1.0  0.82159  0.61010  0.95763  1.0000
  H   H32       1.0  0.17840  0.38990  0.04237  1.0000
  H   H33       1.0  0.64505  0.99620  0.79621  1.0000
  H   H34       1.0  0.35494  0.00380  0.20379  1.0000
  H   H35       1.0  0.69824  0.88996  0.57942  1.0000
  H   H36       1.0  0.30176  0.11004  0.42058  1.0000
  H   H37       1.0  0.61513  0.97885  0.03194  1.0000
  H   H38       1.0  0.38486  0.02115  0.96807  1.0000
  H   H39       1.0  0.79694  0.87889  0.03418  1.0000
  H   H40       1.0  0.20307  0.12111  0.96582  1.0000
  C   C1        1.0  0.54993  0.42892  0.13786  1.0000
  C   C2        1.0  0.45007  0.57108  0.86215  1.0000
  C   C3        1.0  0.62710  0.32433  0.04266  1.0000
  C   C4        1.0  0.37290  0.67566  0.95734  1.0000
  C   C5        1.0  0.78488  0.25627  0.01246  1.0000
  C   C6        1.0  0.21512  0.74373  0.98754  1.0000
  C   C7        1.0  0.85746  0.29862  0.08089  1.0000
  C   C8        1.0  0.14254  0.70138  0.91911  1.0000
  C   C9        1.0  0.77194  0.40373  0.17506  1.0000
  C   C10       1.0  0.22806  0.59627  0.82494  1.0000
  C   C11       1.0  0.87047  0.14010  0.91336  1.0000
  C   C12       1.0  0.12953  0.85990  0.08664  1.0000
  C   C13       1.0  0.00701  0.16373  0.78042  1.0000
  C   C14       1.0  0.99299  0.83627  0.21959  1.0000
  C   C15       1.0  0.10916  0.03743  0.69830  1.0000
  C   C16       1.0  0.89084  0.96257  0.30170  1.0000
  C   C17       1.0  0.04972  0.96332  0.64564  1.0000
  C   C18       1.0  0.95028  0.03668  0.35436  1.0000
  C   C19       1.0  0.14951  0.84997  0.56603  1.0000
  C   C20       1.0  0.85049  0.15003  0.43397  1.0000
  C   C21       1.0  0.36186  0.87468  0.58998  1.0000
  C   C22       1.0  0.63814  0.12532  0.41002  1.0000
  C   C23       1.0  0.26939  0.98891  0.67046  1.0000
  C   C24       1.0  0.73061  0.01109  0.32954  1.0000
  C   C25       1.0  0.74124  0.51640  0.53945  1.0000
  C   C26       1.0  0.25876  0.48360  0.46055  1.0000
  C   C27       1.0  0.81828  0.62665  0.51158  1.0000
  C   C28       1.0  0.18172  0.37335  0.48842  1.0000
  C   C29       1.0  0.78977  0.68936  0.64415  1.0000
  C   C30       1.0  0.21023  0.31064  0.35585  1.0000
  C   C31       1.0  0.82646  0.61276  0.75184  1.0000
  C   C32       1.0  0.17353  0.38724  0.24816  1.0000
  C   C33       1.0  0.79529  0.67256  0.87436  1.0000
  C   C34       1.0  0.20471  0.32744  0.12564  1.0000
  C   C35       1.0  0.72734  0.81107  0.89341  1.0000
  C   C36       1.0  0.27266  0.18893  0.10659  1.0000
  C   C37       1.0  0.69454  0.88787  0.78497  1.0000
  C   C38       1.0  0.30546  0.11213  0.21503  1.0000
  C   C39       1.0  0.72501  0.82773  0.66248  1.0000
  C   C40       1.0  0.27498  0.17227  0.33752  1.0000
  C   C41       1.0  0.68988  0.87507  0.02782  1.0000
  C   C42       1.0  0.31012  0.12493  0.97218  1.0000
  C   C43       1.0  0.60570  0.80054  0.15602  1.0000
  C   C44       1.0  0.39431  0.19946  0.84398  1.0000
  N   N1        1.0  0.62002  0.46833  0.20369  1.0000
  N   N2        1.0  0.37999  0.53166  0.79631  1.0000
  N   N3        1.0  0.30412  0.80677  0.53661  1.0000
  N   N4        1.0  0.69588  0.19322  0.46339  1.0000
  O   O1        1.0  0.47588  0.78730  0.17051  1.0000
  O   O2        1.0  0.52412  0.21270  0.82949  1.0000
  O   O3        1.0  0.66851  0.75388  0.24324  1.0000
  O   O4        1.0  0.33149  0.24611  0.75676  1.0000
  O   O5        1.0  0.63289  0.53376  0.49553  1.0000
  O   O6        1.0  0.36711  0.46624  0.50447  1.0000
  O   O7        1.0  0.78033  0.41322  0.60782  1.0000
  O   O8        1.0  0.21967  0.58678  0.39218  1.0000
