data_image0
_chemical_formula_structural       Mn2H32C32N12O12
_chemical_formula_sum              "Mn2 H32 C32 N12 O12"
_cell_length_a       6.93522
_cell_length_b       7.90567
_cell_length_c       16.1078
_cell_angle_alpha    90.32
_cell_angle_beta     90.0003
_cell_angle_gamma    89.9998

_space_group_name_H-M_alt    "P 1"
_space_group_IT_number       1

loop_
  _space_group_symop_operation_xyz
  'x, y, z'

loop_
  _atom_site_type_symbol
  _atom_site_label
  _atom_site_symmetry_multiplicity
  _atom_site_fract_x
  _atom_site_fract_y
  _atom_site_fract_z
  _atom_site_occupancy
  Mn  Mn1       1.0  0.50000  0.50000  0.50000  1.0000
  Mn  Mn2       1.0  0.00000  0.00000  0.50000  1.0000
  H   H1        1.0  0.68939  0.63542  0.35236  1.0000
  H   H2        1.0  0.18938  0.86458  0.64764  1.0000
  H   H3        1.0  0.31062  0.36458  0.64764  1.0000
  H   H4        1.0  0.81062  0.13541  0.35236  1.0000
  H   H5        1.0  0.66223  0.75714  0.43178  1.0000
  H   H6        1.0  0.16223  0.74286  0.56822  1.0000
  H   H7        1.0  0.33777  0.24286  0.56822  1.0000
  H   H8        1.0  0.83777  0.25714  0.43178  1.0000
  H   H9        1.0  0.77572  0.00357  0.66571  1.0000
  H   H10       1.0  0.27572  0.49643  0.33428  1.0000
  H   H11       1.0  0.22428  0.99644  0.33428  1.0000
  H   H12       1.0  0.72429  0.50357  0.66572  1.0000
  H   H13       1.0  0.54533  0.07774  0.63723  1.0000
  H   H14       1.0  0.04533  0.42227  0.36277  1.0000
  H   H15       1.0  0.45466  0.92227  0.36277  1.0000
  H   H16       1.0  0.95467  0.57773  0.63723  1.0000
  H   H17       1.0  0.95365  0.82821  0.76816  1.0000
  H   H18       1.0  0.45364  0.67179  0.23184  1.0000
  H   H19       1.0  0.04634  0.17179  0.23183  1.0000
  H   H20       1.0  0.54636  0.32821  0.76816  1.0000
  H   H21       1.0  0.02691  0.67813  0.89727  1.0000
  H   H22       1.0  0.52690  0.82187  0.10273  1.0000
  H   H23       1.0  0.97309  0.32187  0.10273  1.0000
  H   H24       1.0  0.47310  0.17813  0.89727  1.0000
  H   H25       1.0  0.76840  0.57786  0.99144  1.0000
  H   H26       1.0  0.26840  0.92214  0.00856  1.0000
  H   H27       1.0  0.23160  0.42214  0.00856  1.0000
  H   H28       1.0  0.73161  0.07786  0.99144  1.0000
  H   H29       1.0  0.42073  0.62447  0.95728  1.0000
  H   H30       1.0  0.92073  0.87553  0.04271  1.0000
  H   H31       1.0  0.57927  0.37553  0.04271  1.0000
  H   H32       1.0  0.07928  0.12447  0.95729  1.0000
  C   C1        1.0  0.62647  0.84322  0.57817  1.0000
  C   C2        1.0  0.12649  0.65676  0.42183  1.0000
  C   C3        1.0  0.37353  0.15678  0.42183  1.0000
  C   C4        1.0  0.87352  0.34324  0.57817  1.0000
  C   C5        1.0  0.62735  0.96321  0.65279  1.0000
  C   C6        1.0  0.12735  0.53679  0.34721  1.0000
  C   C7        1.0  0.37265  0.03679  0.34721  1.0000
  C   C8        1.0  0.87266  0.46321  0.65279  1.0000
  C   C9        1.0  0.64188  0.81011  0.78979  1.0000
  C   C10       1.0  0.14187  0.68988  0.21020  1.0000
  C   C11       1.0  0.35812  0.18989  0.21020  1.0000
  C   C12       1.0  0.85814  0.31012  0.78980  1.0000
  C   C13       1.0  0.83724  0.78438  0.80787  1.0000
  C   C14       1.0  0.33724  0.71562  0.19213  1.0000
  C   C15       1.0  0.16276  0.21562  0.19212  1.0000
  C   C16       1.0  0.66277  0.28438  0.80787  1.0000
  C   C17       1.0  0.87646  0.69962  0.88107  1.0000
  C   C18       1.0  0.37645  0.80038  0.11893  1.0000
  C   C19       1.0  0.12354  0.30038  0.11893  1.0000
  C   C20       1.0  0.62355  0.19963  0.88107  1.0000
  C   C21       1.0  0.72810  0.64291  0.93452  1.0000
  C   C22       1.0  0.22810  0.85709  0.06548  1.0000
  C   C23       1.0  0.27190  0.35709  0.06548  1.0000
  C   C24       1.0  0.77190  0.14292  0.93452  1.0000
  C   C25       1.0  0.53482  0.66810  0.91629  1.0000
  C   C26       1.0  0.03482  0.83190  0.08371  1.0000
  C   C27       1.0  0.46517  0.33190  0.08371  1.0000
  C   C28       1.0  0.96519  0.16810  0.91630  1.0000
  C   C29       1.0  0.49174  0.75335  0.84228  1.0000
  C   C30       1.0  0.99173  0.74665  0.15772  1.0000
  C   C31       1.0  0.50826  0.24666  0.15772  1.0000
  C   C32       1.0  0.00827  0.25335  0.84228  1.0000
  N   N1        1.0  0.54755  0.88851  0.72642  1.0000
  N   N2        1.0  0.04755  0.61149  0.27358  1.0000
  N   N3        1.0  0.45245  0.11150  0.27358  1.0000
  N   N4        1.0  0.95245  0.38851  0.72642  1.0000
  N   N5        1.0  0.35365  0.87789  0.73806  1.0000
  N   N6        1.0  0.85365  0.62210  0.26194  1.0000
  N   N7        1.0  0.64635  0.12211  0.26194  1.0000
  N   N8        1.0  0.14636  0.37790  0.73806  1.0000
  N   N9        1.0  0.31788  0.79823  0.80718  1.0000
  N   N10       1.0  0.81788  0.70177  0.19281  1.0000
  N   N11       1.0  0.68211  0.20177  0.19281  1.0000
  N   N12       1.0  0.18212  0.29823  0.80719  1.0000
  O   O1        1.0  0.54343  0.70197  0.58594  1.0000
  O   O2        1.0  0.04343  0.79805  0.41406  1.0000
  O   O3        1.0  0.45658  0.29803  0.41406  1.0000
  O   O4        1.0  0.95658  0.20195  0.58595  1.0000
  O   O5        1.0  0.70836  0.89628  0.51226  1.0000
  O   O6        1.0  0.20835  0.60373  0.48774  1.0000
  O   O7        1.0  0.29164  0.10372  0.48774  1.0000
  O   O8        1.0  0.79165  0.39627  0.51226  1.0000
  O   O9        1.0  0.59887  0.66626  0.39806  1.0000
  O   O10       1.0  0.09886  0.83374  0.60195  1.0000
  O   O11       1.0  0.40114  0.33374  0.60194  1.0000
  O   O12       1.0  0.90114  0.16626  0.39805  1.0000
