data_image0
_chemical_formula_structural       Cd2H34C40N10O8
_chemical_formula_sum              "Cd2 H34 C40 N10 O8"
_cell_length_a       8.18551
_cell_length_b       9.21661
_cell_length_c       13.8865
_cell_angle_alpha    92.7785
_cell_angle_beta     97.4376
_cell_angle_gamma    105.915

_space_group_name_H-M_alt    "P 1"
_space_group_IT_number       1

loop_
  _space_group_symop_operation_xyz
  'x, y, z'

loop_
  _atom_site_type_symbol
  _atom_site_label
  _atom_site_symmetry_multiplicity
  _atom_site_fract_x
  _atom_site_fract_y
  _atom_site_fract_z
  _atom_site_occupancy
  Cd  Cd1       1.0  0.80078  0.13340  0.74626  1.0000
  Cd  Cd2       1.0  0.19921  0.86660  0.25374  1.0000
  H   H1        1.0  0.30248  0.22658  0.08220  1.0000
  H   H2        1.0  0.69753  0.77341  0.91781  1.0000
  H   H3        1.0  0.53658  0.45562  0.16027  1.0000
  H   H4        1.0  0.46342  0.54438  0.83974  1.0000
  H   H5        1.0  0.81780  0.52928  0.10221  1.0000
  H   H6        1.0  0.18220  0.47072  0.89780  1.0000
  H   H7        1.0  0.86966  0.39284  0.95290  1.0000
  H   H8        1.0  0.13035  0.60716  0.04711  1.0000
  H   H9        1.0  0.16247  0.97947  0.99108  1.0000
  H   H10       1.0  0.83753  0.02054  0.00891  1.0000
  H   H11       1.0  0.17739  0.85560  0.89249  1.0000
  H   H12       1.0  0.82262  0.14440  0.10750  1.0000
  H   H13       1.0  0.51017  0.81577  0.76147  1.0000
  H   H14       1.0  0.48984  0.18423  0.23853  1.0000
  H   H15       1.0  0.33289  0.57971  0.66025  1.0000
  H   H16       1.0  0.66711  0.42028  0.33975  1.0000
  H   H17       1.0  0.35409  0.56246  0.47833  1.0000
  H   H18       1.0  0.64591  0.43753  0.52168  1.0000
  H   H19       1.0  0.55029  0.76763  0.41236  1.0000
  H   H20       1.0  0.44970  0.23237  0.58764  1.0000
  H   H21       1.0  0.73598  0.93536  0.36572  1.0000
  H   H22       1.0  0.26401  0.06465  0.63427  1.0000
  H   H23       1.0  0.95428  0.14867  0.31921  1.0000
  H   H24       1.0  0.04570  0.85134  0.68079  1.0000
  H   H25       1.0  0.11127  0.36731  0.44356  1.0000
  H   H26       1.0  0.88872  0.63269  0.55644  1.0000
  H   H27       1.0  0.03962  0.35198  0.61562  1.0000
  H   H28       1.0  0.96037  0.64802  0.38438  1.0000
  H   H29       1.0  0.78238  0.66967  0.72541  1.0000
  H   H30       1.0  0.21763  0.33032  0.27459  1.0000
  H   H31       1.0  0.99670  0.67096  0.77745  1.0000
  H   H32       1.0  0.00330  0.32904  0.22255  1.0000
  H   H33       1.0  0.82978  0.63601  0.84928  1.0000
  H   H34       1.0  0.17023  0.36400  0.15072  1.0000
  C   C1        1.0  0.45677  0.18958  0.97233  1.0000
  C   C2        1.0  0.54323  0.81042  0.02768  1.0000
  C   C3        1.0  0.42386  0.26588  0.05408  1.0000
  C   C4        1.0  0.57615  0.73411  0.94592  1.0000
  C   C5        1.0  0.55603  0.39007  0.09732  1.0000
  C   C6        1.0  0.44397  0.60992  0.90268  1.0000
  C   C7        1.0  0.71624  0.43494  0.06239  1.0000
  C   C8        1.0  0.28376  0.56506  0.93761  1.0000
  C   C9        1.0  0.74748  0.35951  0.98079  1.0000
  C   C10       1.0  0.25252  0.64049  0.01921  1.0000
  C   C11       1.0  0.61329  0.23580  0.93455  1.0000
  C   C12       1.0  0.38671  0.76420  0.06545  1.0000
  C   C13       1.0  0.18849  0.97401  0.91547  1.0000
  C   C14       1.0  0.81151  0.02600  0.08452  1.0000
  C   C15       1.0  0.05576  0.02772  0.84938  1.0000
  C   C16       1.0  0.94425  0.97228  0.15061  1.0000
  C   C17       1.0  0.51802  0.79983  0.68417  1.0000
  C   C18       1.0  0.48198  0.20017  0.31583  1.0000
  C   C19       1.0  0.41824  0.66936  0.62701  1.0000
  C   C20       1.0  0.58177  0.33063  0.37299  1.0000
  C   C21       1.0  0.43072  0.65913  0.52801  1.0000
  C   C22       1.0  0.56927  0.34087  0.47200  1.0000
  C   C23       1.0  0.54414  0.77646  0.49008  1.0000
  C   C24       1.0  0.45586  0.22354  0.50992  1.0000
  C   C25       1.0  0.64292  0.90265  0.55229  1.0000
  C   C26       1.0  0.35708  0.09735  0.44771  1.0000
  C   C27       1.0  0.76998  0.02960  0.51695  1.0000
  C   C28       1.0  0.23001  0.97040  0.48305  1.0000
  C   C29       1.0  0.80258  0.02866  0.42030  1.0000
  C   C30       1.0  0.19741  0.97134  0.57971  1.0000
  C   C31       1.0  0.92629  0.15021  0.39359  1.0000
  C   C32       1.0  0.07369  0.84978  0.60641  1.0000
  C   C33       1.0  0.01394  0.27058  0.46255  1.0000
  C   C34       1.0  0.98604  0.72943  0.53745  1.0000
  C   C35       1.0  0.97503  0.26313  0.55726  1.0000
  C   C36       1.0  0.02496  0.73686  0.44274  1.0000
  C   C37       1.0  0.81712  0.44823  0.74967  1.0000
  C   C38       1.0  0.18289  0.55177  0.25033  1.0000
  C   C39       1.0  0.85903  0.61716  0.77550  1.0000
  C   C40       1.0  0.14098  0.38284  0.22450  1.0000
  N   N1        1.0  0.36303  0.06321  0.91314  1.0000
  N   N2        1.0  0.63697  0.93678  0.08686  1.0000
  N   N3        1.0  0.45078  0.03410  0.84268  1.0000
  N   N4        1.0  0.54922  0.96590  0.15732  1.0000
  N   N5        1.0  0.60105  0.13591  0.85487  1.0000
  N   N6        1.0  0.39895  0.86409  0.14513  1.0000
  N   N7        1.0  0.62691  0.91316  0.64787  1.0000
  N   N8        1.0  0.37309  0.08683  0.35213  1.0000
  N   N9        1.0  0.85673  0.14587  0.58312  1.0000
  N   N10       1.0  0.14326  0.85413  0.41688  1.0000
  O   O1        1.0  0.10384  0.11552  0.78525  1.0000
  O   O2        1.0  0.89618  0.88449  0.21475  1.0000
  O   O3        1.0  0.90032  0.97636  0.86416  1.0000
  O   O4        1.0  0.09969  0.02364  0.13583  1.0000
  O   O5        1.0  0.93056  0.38446  0.78595  1.0000
  O   O6        1.0  0.06944  0.61554  0.21406  1.0000
  O   O7        1.0  0.67725  0.37775  0.69776  1.0000
  O   O8        1.0  0.32276  0.62224  0.30224  1.0000
