data_image0
_chemical_formula_structural       Pr4H32C24S4N4O36
_chemical_formula_sum              "Pr4 H32 C24 S4 N4 O36"
_cell_length_a       7.33434
_cell_length_b       10.4178
_cell_length_c       15.9554
_cell_angle_alpha    78.4579
_cell_angle_beta     77.2681
_cell_angle_gamma    69.4644

_space_group_name_H-M_alt    "P 1"
_space_group_IT_number       1

loop_
  _space_group_symop_operation_xyz
  'x, y, z'

loop_
  _atom_site_type_symbol
  _atom_site_label
  _atom_site_symmetry_multiplicity
  _atom_site_fract_x
  _atom_site_fract_y
  _atom_site_fract_z
  _atom_site_occupancy
  Pr  Pr1       1.0  0.29428  0.50864  0.92799  1.0000
  Pr  Pr2       1.0  0.73310  0.99130  0.57183  1.0000
  Pr  Pr3       1.0  0.70572  0.49136  0.07200  1.0000
  Pr  Pr4       1.0  0.26690  0.00870  0.42817  1.0000
  H   H1        1.0  0.16277  0.39256  0.79549  1.0000
  H   H2        1.0  0.35565  0.10751  0.70348  1.0000
  H   H3        1.0  0.83723  0.60744  0.20451  1.0000
  H   H4        1.0  0.64435  0.89249  0.29652  1.0000
  H   H5        1.0  0.38332  0.38912  0.76346  1.0000
  H   H6        1.0  0.54055  0.11140  0.73646  1.0000
  H   H7        1.0  0.61668  0.61088  0.23654  1.0000
  H   H8        1.0  0.45945  0.88860  0.26354  1.0000
  H   H9        1.0  0.15039  0.72436  0.76998  1.0000
  H   H10       1.0  0.64749  0.77537  0.72940  1.0000
  H   H11       1.0  0.84961  0.27564  0.23002  1.0000
  H   H12       1.0  0.35251  0.22463  0.27060  1.0000
  H   H13       1.0  0.97430  0.65964  0.80706  1.0000
  H   H14       1.0  0.44447  0.84135  0.69163  1.0000
  H   H15       1.0  0.02570  0.34036  0.19294  1.0000
  H   H16       1.0  0.55553  0.15865  0.30837  1.0000
  H   H17       1.0  0.77168  0.80368  0.89146  1.0000
  H   H18       1.0  0.47018  0.69597  0.60796  1.0000
  H   H19       1.0  0.22832  0.19632  0.10854  1.0000
  H   H20       1.0  0.52982  0.30403  0.39204  1.0000
  H   H21       1.0  0.98339  0.74803  0.12098  1.0000
  H   H22       1.0  0.84966  0.75195  0.37953  1.0000
  H   H23       1.0  0.01660  0.25197  0.87902  1.0000
  H   H24       1.0  0.15034  0.24805  0.62047  1.0000
  H   H25       1.0  0.63371  0.06365  0.89121  1.0000
  H   H26       1.0  0.59200  0.43613  0.60825  1.0000
  H   H27       1.0  0.36628  0.93635  0.10879  1.0000
  H   H28       1.0  0.40800  0.56387  0.39175  1.0000
  H   H29       1.0  0.84562  0.00339  0.13233  1.0000
  H   H30       1.0  0.97853  0.49650  0.36822  1.0000
  H   H31       1.0  0.15437  0.99661  0.86768  1.0000
  H   H32       1.0  0.02148  0.50350  0.63178  1.0000
  C   C1        1.0  0.63837  0.20714  0.01513  1.0000
  C   C2        1.0  0.86057  0.29276  0.48471  1.0000
  C   C3        1.0  0.36163  0.79287  0.98487  1.0000
  C   C4        1.0  0.13943  0.70724  0.51529  1.0000
  C   C5        1.0  0.78443  0.85560  0.94141  1.0000
  C   C6        1.0  0.58320  0.64423  0.55814  1.0000
  C   C7        1.0  0.21557  0.14440  0.05859  1.0000
  C   C8        1.0  0.41680  0.35577  0.44185  1.0000
  C   C9        1.0  0.90136  0.82356  0.07351  1.0000
  C   C10       1.0  0.79672  0.67637  0.42666  1.0000
  C   C11       1.0  0.09864  0.17644  0.92649  1.0000
  C   C12       1.0  0.20328  0.32362  0.57334  1.0000
  C   C13       1.0  0.70927  0.99677  0.94327  1.0000
  C   C14       1.0  0.65110  0.50305  0.55631  1.0000
  C   C15       1.0  0.29072  0.00323  0.05673  1.0000
  C   C16       1.0  0.34890  0.49695  0.44369  1.0000
  C   C17       1.0  0.72585  0.05356  0.01248  1.0000
  C   C18       1.0  0.79178  0.44638  0.48737  1.0000
  C   C19       1.0  0.27414  0.94645  0.98752  1.0000
  C   C20       1.0  0.20822  0.55362  0.51263  1.0000
  C   C21       1.0  0.82534  0.96438  0.07775  1.0000
  C   C22       1.0  0.86565  0.53559  0.42239  1.0000
  C   C23       1.0  0.17465  0.03562  0.92225  1.0000
  C   C24       1.0  0.13435  0.46441  0.57761  1.0000
  S   S1        1.0  0.71965  0.52507  0.82528  1.0000
  S   S2        1.0  0.07414  0.97507  0.67504  1.0000
  S   S3        1.0  0.28035  0.47493  0.17471  1.0000
  S   S4        1.0  0.92586  0.02493  0.32496  1.0000
  N   N1        1.0  0.87618  0.77176  0.00688  1.0000
  N   N2        1.0  0.65483  0.72812  0.49294  1.0000
  N   N3        1.0  0.12382  0.22824  0.99312  1.0000
  N   N4        1.0  0.34517  0.27188  0.50706  1.0000
  O   O1        1.0  0.29412  0.36251  0.81343  1.0000
  O   O2        1.0  0.47471  0.13715  0.68593  1.0000
  O   O3        1.0  0.70588  0.63749  0.18657  1.0000
  O   O4        1.0  0.52529  0.86285  0.31407  1.0000
  O   O5        1.0  0.10633  0.65602  0.81572  1.0000
  O   O6        1.0  0.58191  0.84372  0.68290  1.0000
  O   O7        1.0  0.89367  0.34398  0.18428  1.0000
  O   O8        1.0  0.41809  0.15628  0.31710  1.0000
  O   O9        1.0  0.90202  0.42047  0.79157  1.0000
  O   O10       1.0  0.11955  0.07986  0.70873  1.0000
  O   O11       1.0  0.09798  0.57953  0.20843  1.0000
  O   O12       1.0  0.88045  0.92014  0.29127  1.0000
  O   O13       1.0  0.50504  0.27152  0.96881  1.0000
  O   O14       1.0  0.74693  0.22824  0.53080  1.0000
  O   O15       1.0  0.49495  0.72848  0.03119  1.0000
  O   O16       1.0  0.25308  0.77176  0.46920  1.0000
  O   O17       1.0  0.70486  0.25839  0.06282  1.0000
  O   O18       1.0  0.02435  0.24163  0.43731  1.0000
  O   O19       1.0  0.29514  0.74161  0.93718  1.0000
  O   O20       1.0  0.97565  0.75837  0.56269  1.0000
  O   O21       1.0  0.94016  0.63425  0.00637  1.0000
  O   O22       1.0  0.58108  0.86562  0.49335  1.0000
  O   O23       1.0  0.05984  0.36576  0.99363  1.0000
  O   O24       1.0  0.41892  0.13438  0.50665  1.0000
  O   O25       1.0  0.66420  0.49195  0.92259  1.0000
  O   O26       1.0  0.08088  0.00759  0.57764  1.0000
  O   O27       1.0  0.33580  0.50805  0.07741  1.0000
  O   O28       1.0  0.91913  0.99241  0.42236  1.0000
  O   O29       1.0  0.74619  0.66424  0.80688  1.0000
  O   O30       1.0  0.22046  0.83573  0.69432  1.0000
  O   O31       1.0  0.25381  0.33575  0.19312  1.0000
  O   O32       1.0  0.77954  0.16427  0.30568  1.0000
  O   O33       1.0  0.54579  0.52864  0.78960  1.0000
  O   O34       1.0  0.86901  0.97217  0.71014  1.0000
  O   O35       1.0  0.45421  0.47136  0.21040  1.0000
  O   O36       1.0  0.13099  0.02783  0.28986  1.0000
