data_image0
_chemical_formula_structural       Gd4H48C56N4O32
_chemical_formula_sum              "Gd4 H48 C56 N4 O32"
_cell_length_a       6.02851
_cell_length_b       14.4959
_cell_length_c       17.7212
_cell_angle_alpha    92.3054
_cell_angle_beta     90
_cell_angle_gamma    90

_space_group_name_H-M_alt    "P 1"
_space_group_IT_number       1

loop_
  _space_group_symop_operation_xyz
  'x, y, z'

loop_
  _atom_site_type_symbol
  _atom_site_label
  _atom_site_symmetry_multiplicity
  _atom_site_fract_x
  _atom_site_fract_y
  _atom_site_fract_z
  _atom_site_occupancy
  Gd  Gd1       1.0  0.09139  0.48435  0.38379  1.0000
  Gd  Gd2       1.0  0.59139  0.01565  0.11621  1.0000
  Gd  Gd3       1.0  0.90860  0.51565  0.61621  1.0000
  Gd  Gd4       1.0  0.40860  0.98435  0.88379  1.0000
  H   H1        1.0  0.00258  0.20164  0.51506  1.0000
  H   H2        1.0  0.50260  0.29835  0.98494  1.0000
  H   H3        1.0  0.99741  0.79836  0.48495  1.0000
  H   H4        1.0  0.49741  0.70164  0.01506  1.0000
  H   H5        1.0  0.79543  0.65469  0.28628  1.0000
  H   H6        1.0  0.29542  0.84531  0.21372  1.0000
  H   H7        1.0  0.20458  0.34531  0.71372  1.0000
  H   H8        1.0  0.70457  0.15469  0.78628  1.0000
  H   H9        1.0  0.81747  0.74956  0.16990  1.0000
  H   H10       1.0  0.31748  0.75044  0.33011  1.0000
  H   H11       1.0  0.18253  0.25043  0.83010  1.0000
  H   H12       1.0  0.68253  0.24957  0.66989  1.0000
  H   H13       1.0  0.13931  0.72745  0.08389  1.0000
  H   H14       1.0  0.63933  0.77255  0.41611  1.0000
  H   H15       1.0  0.86069  0.27254  0.91612  1.0000
  H   H16       1.0  0.36070  0.22745  0.58388  1.0000
  H   H17       1.0  0.43547  0.61013  0.11719  1.0000
  H   H18       1.0  0.93549  0.88987  0.38281  1.0000
  H   H19       1.0  0.56453  0.38986  0.88281  1.0000
  H   H20       1.0  0.06454  0.11013  0.61718  1.0000
  H   H21       1.0  0.28561  0.15924  0.38058  1.0000
  H   H22       1.0  0.78562  0.34076  0.11941  1.0000
  H   H23       1.0  0.71440  0.84075  0.61941  1.0000
  H   H24       1.0  0.21439  0.65925  0.88059  1.0000
  H   H25       1.0  0.52741  0.02333  0.40015  1.0000
  H   H26       1.0  0.02743  0.47667  0.09985  1.0000
  H   H27       1.0  0.47260  0.97667  0.59985  1.0000
  H   H28       1.0  0.97261  0.52333  0.90015  1.0000
  H   H29       1.0  0.89440  0.04605  0.46433  1.0000
  H   H30       1.0  0.39442  0.45395  0.03567  1.0000
  H   H31       1.0  0.10561  0.95395  0.53567  1.0000
  H   H32       1.0  0.60562  0.54605  0.96433  1.0000
  H   H33       1.0  0.68677  0.57377  0.44547  1.0000
  H   H34       1.0  0.18677  0.92624  0.05453  1.0000
  H   H35       1.0  0.31322  0.42623  0.55453  1.0000
  H   H36       1.0  0.81322  0.07376  0.94547  1.0000
  H   H37       1.0  0.77724  0.43034  0.24956  1.0000
  H   H38       1.0  0.27724  0.06967  0.25044  1.0000
  H   H39       1.0  0.22276  0.56966  0.75044  1.0000
  H   H40       1.0  0.72275  0.93034  0.74956  1.0000
  H   H41       1.0  0.62122  0.52953  0.36563  1.0000
  H   H42       1.0  0.12122  0.97046  0.13437  1.0000
  H   H43       1.0  0.37877  0.47046  0.63437  1.0000
  H   H44       1.0  0.87877  0.02954  0.86563  1.0000
  H   H45       1.0  0.89563  0.33895  0.28165  1.0000
  H   H46       1.0  0.39563  0.16106  0.21835  1.0000
  H   H47       1.0  0.10437  0.66105  0.71835  1.0000
  H   H48       1.0  0.60437  0.83895  0.78165  1.0000
  C   C1        1.0  0.84423  0.19168  0.48621  1.0000
  C   C2        1.0  0.34424  0.30831  0.01379  1.0000
  C   C3        1.0  0.15577  0.80832  0.51379  1.0000
  C   C4        1.0  0.65577  0.69168  0.98621  1.0000
  C   C5        1.0  0.70434  0.26776  0.47810  1.0000
  C   C6        1.0  0.20436  0.23224  0.02191  1.0000
  C   C7        1.0  0.29565  0.73224  0.52191  1.0000
  C   C8        1.0  0.79564  0.76776  0.97810  1.0000
  C   C9        1.0  0.77414  0.35702  0.51718  1.0000
  C   C10       1.0  0.27415  0.14298  0.98283  1.0000
  C   C11       1.0  0.22585  0.64298  0.48283  1.0000
  C   C12       1.0  0.72585  0.85702  0.01718  1.0000
  C   C13       1.0  0.26406  0.57368  0.21751  1.0000
  C   C14       1.0  0.76407  0.92633  0.28249  1.0000
  C   C15       1.0  0.73594  0.42632  0.78250  1.0000
  C   C16       1.0  0.23593  0.07368  0.71750  1.0000
  C   C17       1.0  0.93286  0.64698  0.24660  1.0000
  C   C18       1.0  0.43286  0.85302  0.25340  1.0000
  C   C19       1.0  0.06714  0.35301  0.75340  1.0000
  C   C20       1.0  0.56714  0.14698  0.74660  1.0000
  C   C21       1.0  0.94498  0.69918  0.18229  1.0000
  C   C22       1.0  0.44499  0.80081  0.31772  1.0000
  C   C23       1.0  0.05501  0.30081  0.81771  1.0000
  C   C24       1.0  0.55501  0.19919  0.68228  1.0000
  C   C25       1.0  0.12628  0.68678  0.13408  1.0000
  C   C26       1.0  0.62629  0.81322  0.36592  1.0000
  C   C27       1.0  0.87372  0.31322  0.86592  1.0000
  C   C28       1.0  0.37373  0.18678  0.63408  1.0000
  C   C29       1.0  0.28874  0.62274  0.15192  1.0000
  C   C30       1.0  0.78875  0.87726  0.34808  1.0000
  C   C31       1.0  0.71126  0.37725  0.84808  1.0000
  C   C32       1.0  0.21126  0.12275  0.65191  1.0000
  C   C33       1.0  0.43891  0.50714  0.24231  1.0000
  C   C34       1.0  0.93891  0.99286  0.25769  1.0000
  C   C35       1.0  0.56109  0.49285  0.75769  1.0000
  C   C36       1.0  0.06107  0.00715  0.74230  1.0000
  C   C37       1.0  0.35225  0.33397  0.42379  1.0000
  C   C38       1.0  0.85225  0.16603  0.07620  1.0000
  C   C39       1.0  0.64774  0.66602  0.57621  1.0000
  C   C40       1.0  0.14773  0.83398  0.92379  1.0000
  C   C41       1.0  0.50379  0.25566  0.43828  1.0000
  C   C42       1.0  0.00381  0.24434  0.06172  1.0000
  C   C43       1.0  0.49620  0.74434  0.56172  1.0000
  C   C44       1.0  0.99620  0.75566  0.93828  1.0000
  C   C45       1.0  0.44300  0.16727  0.41036  1.0000
  C   C46       1.0  0.94301  0.33273  0.08963  1.0000
  C   C47       1.0  0.55700  0.83273  0.58964  1.0000
  C   C48       1.0  0.05700  0.66728  0.91037  1.0000
  C   C49       1.0  0.57928  0.09156  0.42110  1.0000
  C   C50       1.0  0.07929  0.40844  0.07890  1.0000
  C   C51       1.0  0.42073  0.90844  0.57890  1.0000
  C   C52       1.0  0.92074  0.59156  0.92110  1.0000
  C   C53       1.0  0.78266  0.10428  0.45790  1.0000
  C   C54       1.0  0.28268  0.39571  0.04210  1.0000
  C   C55       1.0  0.21735  0.89572  0.54210  1.0000
  C   C56       1.0  0.71735  0.60428  0.95790  1.0000
  N   N1        1.0  0.08904  0.58561  0.26436  1.0000
  N   N2        1.0  0.58904  0.91439  0.23564  1.0000
  N   N3        1.0  0.91096  0.41438  0.73564  1.0000
  N   N4        1.0  0.41095  0.08562  0.76436  1.0000
  O   O1        1.0  0.89426  0.41565  0.48420  1.0000
  O   O2        1.0  0.39427  0.08435  0.01580  1.0000
  O   O3        1.0  0.10572  0.58435  0.51580  1.0000
  O   O4        1.0  0.60572  0.91565  0.98420  1.0000
  O   O5        1.0  0.72533  0.36878  0.58657  1.0000
  O   O6        1.0  0.22534  0.13122  0.91343  1.0000
  O   O7        1.0  0.27465  0.63122  0.41343  1.0000
  O   O8        1.0  0.77465  0.86878  0.08657  1.0000
  O   O9        1.0  0.41574  0.47796  0.30952  1.0000
  O   O10       1.0  0.91574  0.02204  0.19047  1.0000
  O   O11       1.0  0.58426  0.52204  0.69048  1.0000
  O   O12       1.0  0.08425  0.97797  0.80952  1.0000
  O   O13       1.0  0.59913  0.48654  0.19941  1.0000
  O   O14       1.0  0.09913  0.01346  0.30059  1.0000
  O   O15       1.0  0.40087  0.51345  0.80059  1.0000
  O   O16       1.0  0.90086  0.98655  0.69941  1.0000
  O   O17       1.0  0.20065  0.32350  0.37440  1.0000
  O   O18       1.0  0.70065  0.17650  0.12560  1.0000
  O   O19       1.0  0.79934  0.67650  0.62560  1.0000
  O   O20       1.0  0.29933  0.82350  0.87440  1.0000
  O   O21       1.0  0.37744  0.41195  0.46064  1.0000
  O   O22       1.0  0.87744  0.08805  0.03936  1.0000
  O   O23       1.0  0.62254  0.58805  0.53936  1.0000
  O   O24       1.0  0.12254  0.91195  0.96064  1.0000
  O   O25       1.0  0.74387  0.56227  0.39309  1.0000
  O   O26       1.0  0.24387  0.93772  0.10691  1.0000
  O   O27       1.0  0.25612  0.43772  0.60691  1.0000
  O   O28       1.0  0.75612  0.06228  0.89308  1.0000
  O   O29       1.0  0.89513  0.40597  0.28453  1.0000
  O   O30       1.0  0.39513  0.09404  0.21547  1.0000
  O   O31       1.0  0.10487  0.59403  0.71547  1.0000
  O   O32       1.0  0.60486  0.90597  0.78453  1.0000
