data_image0
_chemical_formula_structural       Gd2Cu2H48C68N2O20
_chemical_formula_sum              "Gd2 Cu2 H48 C68 N2 O20"
_cell_length_a       11.1963
_cell_length_b       11.4099
_cell_length_c       12.185
_cell_angle_alpha    81.6147
_cell_angle_beta     84.6941
_cell_angle_gamma    82.6365

_space_group_name_H-M_alt    "P 1"
_space_group_IT_number       1

loop_
  _space_group_symop_operation_xyz
  'x, y, z'

loop_
  _atom_site_type_symbol
  _atom_site_label
  _atom_site_symmetry_multiplicity
  _atom_site_fract_x
  _atom_site_fract_y
  _atom_site_fract_z
  _atom_site_occupancy
  Gd  Gd1       1.0  0.41803  0.98097  0.66859  1.0000
  Gd  Gd2       1.0  0.58197  0.01904  0.33141  1.0000
  Cu  Cu1       1.0  0.50000  1.00000  0.00000  1.0000
  Cu  Cu2       1.0  1.00000  0.00000  0.00000  1.0000
  H   H1        1.0  0.27635  0.64287  0.60196  1.0000
  H   H2        1.0  0.72364  0.35713  0.39803  1.0000
  H   H3        1.0  0.23137  0.44758  0.55294  1.0000
  H   H4        1.0  0.76863  0.55242  0.44705  1.0000
  H   H5        1.0  0.32980  0.37576  0.37952  1.0000
  H   H6        1.0  0.67019  0.62424  0.62047  1.0000
  H   H7        1.0  0.46911  0.49734  0.25544  1.0000
  H   H8        1.0  0.53089  0.50266  0.74455  1.0000
  H   H9        1.0  0.50799  0.69459  0.30263  1.0000
  H   H10       1.0  0.49201  0.30541  0.69736  1.0000
  H   H11       1.0  0.26991  0.22075  0.21823  1.0000
  H   H12       1.0  0.73010  0.77924  0.78178  1.0000
  H   H13       1.0  0.09276  0.35603  0.14266  1.0000
  H   H14       1.0  0.90724  0.64396  0.85734  1.0000
  H   H15       1.0  0.91620  0.41430  0.26925  1.0000
  H   H16       1.0  0.08381  0.58569  0.73074  1.0000
  H   H17       1.0  0.91627  0.34238  0.47309  1.0000
  H   H18       1.0  0.08372  0.65762  0.52690  1.0000
  H   H19       1.0  0.09453  0.21042  0.54715  1.0000
  H   H20       1.0  0.90547  0.78958  0.45285  1.0000
  H   H21       1.0  0.35613  0.69201  0.76552  1.0000
  H   H22       1.0  0.64387  0.30798  0.23448  1.0000
  H   H23       1.0  0.28464  0.49002  0.78931  1.0000
  H   H24       1.0  0.71537  0.50997  0.21069  1.0000
  H   H25       1.0  0.26604  0.37327  0.97726  1.0000
  H   H26       1.0  0.73397  0.62672  0.02274  1.0000
  H   H27       1.0  0.31579  0.45718  0.14253  1.0000
  H   H28       1.0  0.68421  0.54281  0.85747  1.0000
  H   H29       1.0  0.38451  0.65968  0.11845  1.0000
  H   H30       1.0  0.61548  0.34032  0.88155  1.0000
  H   H31       1.0  0.22690  0.24606  0.69256  1.0000
  H   H32       1.0  0.77311  0.75395  0.30743  1.0000
  H   H33       1.0  0.02715  0.36810  0.66466  1.0000
  H   H34       1.0  0.97285  0.63191  0.33534  1.0000
  H   H35       1.0  0.88047  0.39725  0.82707  1.0000
  H   H36       1.0  0.11954  0.60275  0.17293  1.0000
  H   H37       1.0  0.93236  0.30705  0.01724  1.0000
  H   H38       1.0  0.06764  0.69296  0.98276  1.0000
  H   H39       1.0  0.13494  0.18928  0.04474  1.0000
  H   H40       1.0  0.86507  0.81073  0.95526  1.0000
  H   H41       1.0  0.04797  0.00290  0.59643  1.0000
  H   H42       1.0  0.95204  0.99711  0.40358  1.0000
  H   H43       1.0  0.83282  0.08858  0.55481  1.0000
  H   H44       1.0  0.16719  0.91141  0.44520  1.0000
  H   H45       1.0  0.68504  0.13445  0.71490  1.0000
  H   H46       1.0  0.31496  0.86554  0.28510  1.0000
  H   H47       1.0  0.75437  0.09757  0.90765  1.0000
  H   H48       1.0  0.24562  0.90243  0.09235  1.0000
  C   C1        1.0  0.41998  0.79531  0.48563  1.0000
  C   C2        1.0  0.58002  0.20469  0.51436  1.0000
  C   C3        1.0  0.39370  0.67963  0.45501  1.0000
  C   C4        1.0  0.60631  0.32037  0.54499  1.0000
  C   C5        1.0  0.31628  0.60998  0.52568  1.0000
  C   C6        1.0  0.68372  0.39002  0.47431  1.0000
  C   C7        1.0  0.29193  0.50164  0.49800  1.0000
  C   C8        1.0  0.70807  0.49836  0.50200  1.0000
  C   C9        1.0  0.34674  0.46137  0.40045  1.0000
  C   C10       1.0  0.65325  0.53863  0.59955  1.0000
  C   C11       1.0  0.42462  0.53018  0.33020  1.0000
  C   C12       1.0  0.57538  0.46981  0.66980  1.0000
  C   C13       1.0  0.44741  0.63962  0.35656  1.0000
  C   C14       1.0  0.55259  0.36038  0.64344  1.0000
  C   C15       1.0  0.29810  0.12900  0.43351  1.0000
  C   C16       1.0  0.70191  0.87100  0.56649  1.0000
  C   C17       1.0  0.19173  0.20770  0.38717  1.0000
  C   C18       1.0  0.80828  0.79230  0.61284  1.0000
  C   C19       1.0  0.19157  0.24824  0.27276  1.0000
  C   C20       1.0  0.80843  0.75176  0.72724  1.0000
  C   C21       1.0  0.09260  0.32282  0.23117  1.0000
  C   C22       1.0  0.90740  0.67718  0.76883  1.0000
  C   C23       1.0  0.99321  0.35636  0.30287  1.0000
  C   C24       1.0  0.00680  0.64364  0.69713  1.0000
  C   C25       1.0  0.99340  0.31633  0.41686  1.0000
  C   C26       1.0  0.00660  0.68367  0.58314  1.0000
  C   C27       1.0  0.09249  0.24250  0.45867  1.0000
  C   C28       1.0  0.90751  0.75750  0.54134  1.0000
  C   C29       1.0  0.42084  0.80586  0.92676  1.0000
  C   C30       1.0  0.57916  0.19413  0.07324  1.0000
  C   C31       1.0  0.37433  0.68737  0.94091  1.0000
  C   C32       1.0  0.62567  0.31263  0.05909  1.0000
  C   C33       1.0  0.34584  0.64022  0.84778  1.0000
  C   C34       1.0  0.65417  0.35977  0.15222  1.0000
  C   C35       1.0  0.30573  0.52777  0.86153  1.0000
  C   C36       1.0  0.69427  0.47222  0.13847  1.0000
  C   C37       1.0  0.29527  0.46182  0.96735  1.0000
  C   C38       1.0  0.70473  0.53818  0.03265  1.0000
  C   C39       1.0  0.32344  0.50891  0.06008  1.0000
  C   C40       1.0  0.67656  0.49108  0.93992  1.0000
  C   C41       1.0  0.36200  0.62174  0.04709  1.0000
  C   C42       1.0  0.63800  0.37826  0.95291  1.0000
  C   C43       1.0  0.31195  0.13612  0.88587  1.0000
  C   C44       1.0  0.68805  0.86389  0.11413  1.0000
  C   C45       1.0  0.19260  0.21038  0.87047  1.0000
  C   C46       1.0  0.80741  0.78963  0.12952  1.0000
  C   C47       1.0  0.16231  0.26098  0.76324  1.0000
  C   C48       1.0  0.83769  0.73902  0.23677  1.0000
  C   C49       1.0  0.05043  0.32829  0.74801  1.0000
  C   C50       1.0  0.94957  0.67172  0.25199  1.0000
  C   C51       1.0  0.96791  0.34511  0.83921  1.0000
  C   C52       1.0  0.03209  0.65489  0.16079  1.0000
  C   C53       1.0  0.99742  0.29486  0.94632  1.0000
  C   C54       1.0  0.00258  0.70515  0.05368  1.0000
  C   C55       1.0  0.10945  0.22781  0.96184  1.0000
  C   C56       1.0  0.89055  0.77220  0.03816  1.0000
  C   C57       1.0  0.13333  0.95635  0.80596  1.0000
  C   C58       1.0  0.86667  0.04365  0.19404  1.0000
  C   C59       1.0  0.00958  0.00546  0.77094  1.0000
  C   C60       1.0  0.99042  0.99454  0.22907  1.0000
  C   C61       1.0  0.97875  0.02485  0.66137  1.0000
  C   C62       1.0  0.02125  0.97515  0.33864  1.0000
  C   C63       1.0  0.86074  0.07248  0.63962  1.0000
  C   C64       1.0  0.13927  0.92751  0.36038  1.0000
  C   C65       1.0  0.77825  0.09872  0.72815  1.0000
  C   C66       1.0  0.22174  0.90128  0.27185  1.0000
  C   C67       1.0  0.81558  0.07803  0.83610  1.0000
  C   C68       1.0  0.18441  0.92197  0.16391  1.0000
  N   N1        1.0  0.92910  0.03209  0.85590  1.0000
  N   N2        1.0  0.07090  0.96791  0.14411  1.0000
  O   O1        1.0  0.38190  0.82043  0.58210  1.0000
  O   O2        1.0  0.61811  0.17958  0.41790  1.0000
  O   O3        1.0  0.47795  0.86318  0.41322  1.0000
  O   O4        1.0  0.52205  0.13682  0.58676  1.0000
  O   O5        1.0  0.29004  0.08833  0.53658  1.0000
  O   O6        1.0  0.70995  0.91166  0.46343  1.0000
  O   O7        1.0  0.38944  0.10835  0.36628  1.0000
  O   O8        1.0  0.61056  0.89165  0.63372  1.0000
  O   O9        1.0  0.45627  0.85306  0.83070  1.0000
  O   O10       1.0  0.54372  0.14694  0.16930  1.0000
  O   O11       1.0  0.42477  0.85300  0.01567  1.0000
  O   O12       1.0  0.57522  0.14699  0.98433  1.0000
  O   O13       1.0  0.37813  0.11263  0.79937  1.0000
  O   O14       1.0  0.62187  0.88738  0.20063  1.0000
  O   O15       1.0  0.34087  0.10077  0.98525  1.0000
  O   O16       1.0  0.65913  0.89923  0.01475  1.0000
  O   O17       1.0  0.21779  0.93905  0.73336  1.0000
  O   O18       1.0  0.78221  0.06095  0.26665  1.0000
  O   O19       1.0  0.14417  0.93637  0.91161  1.0000
  O   O20       1.0  0.85582  0.06363  0.08840  1.0000
