data_image0
_chemical_formula_structural       Nd4H32C24S4N4O36
_chemical_formula_sum              "Nd4 H32 C24 S4 N4 O36"
_cell_length_a       7.31151
_cell_length_b       10.4
_cell_length_c       15.9275
_cell_angle_alpha    92.8013
_cell_angle_beta     102.665
_cell_angle_gamma    110.663

_space_group_name_H-M_alt    "P 1"
_space_group_IT_number       1

loop_
  _space_group_symop_operation_xyz
  'x, y, z'

loop_
  _atom_site_type_symbol
  _atom_site_label
  _atom_site_symmetry_multiplicity
  _atom_site_fract_x
  _atom_site_fract_y
  _atom_site_fract_z
  _atom_site_occupancy
  Nd  Nd1       1.0  0.19720  0.49063  0.92847  1.0000
  Nd  Nd2       1.0  0.27582  0.00930  0.57131  1.0000
  Nd  Nd3       1.0  0.80280  0.50937  0.07152  1.0000
  Nd  Nd4       1.0  0.72418  0.99070  0.42869  1.0000
  H   H1        1.0  0.22858  0.60591  0.76335  1.0000
  H   H2        1.0  0.35264  0.89357  0.73655  1.0000
  H   H3        1.0  0.77142  0.39409  0.23665  1.0000
  H   H4        1.0  0.64736  0.10643  0.26345  1.0000
  H   H5        1.0  0.44700  0.60397  0.79663  1.0000
  H   H6        1.0  0.54046  0.89600  0.70255  1.0000
  H   H7        1.0  0.55300  0.39603  0.20337  1.0000
  H   H8        1.0  0.45954  0.10400  0.29745  1.0000
  H   H9        1.0  0.12351  0.27496  0.77153  1.0000
  H   H10       1.0  0.57436  0.22534  0.72765  1.0000
  H   H11       1.0  0.87649  0.72504  0.22847  1.0000
  H   H12       1.0  0.42564  0.77466  0.27235  1.0000
  H   H13       1.0  0.36514  0.33821  0.80902  1.0000
  H   H14       1.0  0.71335  0.16080  0.68953  1.0000
  H   H15       1.0  0.63486  0.66179  0.19097  1.0000
  H   H16       1.0  0.28665  0.83920  0.31047  1.0000
  H   H17       1.0  0.42848  0.19696  0.89182  1.0000
  H   H18       1.0  0.83636  0.30351  0.60746  1.0000
  H   H19       1.0  0.57151  0.80304  0.10818  1.0000
  H   H20       1.0  0.16366  0.69650  0.39254  1.0000
  H   H21       1.0  0.26839  0.25210  0.12114  1.0000
  H   H22       1.0  0.39802  0.24777  0.37930  1.0000
  H   H23       1.0  0.73161  0.74790  0.87886  1.0000
  H   H24       1.0  0.60199  0.75224  0.62071  1.0000
  H   H25       1.0  0.30461  0.93618  0.89041  1.0000
  H   H26       1.0  0.97411  0.56408  0.60894  1.0000
  H   H27       1.0  0.69539  0.06381  0.10959  1.0000
  H   H28       1.0  0.02589  0.43593  0.39106  1.0000
  H   H29       1.0  0.14977  0.99588  0.13158  1.0000
  H   H30       1.0  0.52502  0.50405  0.36897  1.0000
  H   H31       1.0  0.85023  0.00412  0.86842  1.0000
  H   H32       1.0  0.47498  0.49595  0.63104  1.0000
  C   C1        1.0  0.15345  0.79169  0.01375  1.0000
  C   C2        1.0  0.84776  0.70841  0.48601  1.0000
  C   C3        1.0  0.84654  0.20831  0.98625  1.0000
  C   C4        1.0  0.15224  0.29159  0.51399  1.0000
  C   C5        1.0  0.36212  0.14476  0.94138  1.0000
  C   C6        1.0  0.77407  0.35543  0.55803  1.0000
  C   C7        1.0  0.63787  0.85524  0.05862  1.0000
  C   C8        1.0  0.22594  0.64457  0.44197  1.0000
  C   C9        1.0  0.27553  0.17651  0.07348  1.0000
  C   C10       1.0  0.52722  0.32343  0.42661  1.0000
  C   C11       1.0  0.72447  0.82349  0.92652  1.0000
  C   C12       1.0  0.47278  0.67657  0.57339  1.0000
  C   C13       1.0  0.29525  0.00309  0.94264  1.0000
  C   C14       1.0  0.84743  0.49713  0.55681  1.0000
  C   C15       1.0  0.70474  0.99690  0.05735  1.0000
  C   C16       1.0  0.15257  0.50288  0.44319  1.0000
  C   C17       1.0  0.22054  0.94587  0.01157  1.0000
  C   C18       1.0  0.76290  0.55419  0.48818  1.0000
  C   C19       1.0  0.77945  0.05413  0.98843  1.0000
  C   C20       1.0  0.23710  0.44581  0.51183  1.0000
  C   C21       1.0  0.21004  0.03522  0.07720  1.0000
  C   C22       1.0  0.59929  0.46472  0.42289  1.0000
  C   C23       1.0  0.78995  0.96478  0.92280  1.0000
  C   C24       1.0  0.40071  0.53529  0.57711  1.0000
  S   S1        1.0  0.75598  0.47280  0.82595  1.0000
  S   S2        1.0  0.95248  0.02721  0.67421  1.0000
  S   S3        1.0  0.24402  0.52720  0.17405  1.0000
  S   S4        1.0  0.04752  0.97279  0.32578  1.0000
  N   N1        1.0  0.35353  0.22869  0.00706  1.0000
  N   N2        1.0  0.61778  0.27136  0.49265  1.0000
  N   N3        1.0  0.64647  0.77131  0.99294  1.0000
  N   N4        1.0  0.38223  0.72865  0.50736  1.0000
  O   O1        1.0  0.34389  0.63346  0.81384  1.0000
  O   O2        1.0  0.39125  0.86674  0.68565  1.0000
  O   O3        1.0  0.65611  0.36653  0.18616  1.0000
  O   O4        1.0  0.60875  0.13326  0.31435  1.0000
  O   O5        1.0  0.23666  0.34103  0.81864  1.0000
  O   O6        1.0  0.57329  0.15907  0.67991  1.0000
  O   O7        1.0  0.76334  0.65897  0.18136  1.0000
  O   O8        1.0  0.42671  0.84093  0.32009  1.0000
  O   O9        1.0  0.67963  0.57789  0.79169  1.0000
  O   O10       1.0  0.80326  0.92203  0.70839  1.0000
  O   O11       1.0  0.32037  0.42211  0.20831  1.0000
  O   O12       1.0  0.19674  0.07798  0.29161  1.0000
  O   O13       1.0  0.22171  0.72685  0.96686  1.0000
  O   O14       1.0  0.02604  0.77336  0.53267  1.0000
  O   O15       1.0  0.77829  0.27315  0.03314  1.0000
  O   O16       1.0  0.97396  0.22664  0.46733  1.0000
  O   O17       1.0  0.03565  0.74067  0.06160  1.0000
  O   O18       1.0  0.73480  0.75928  0.43840  1.0000
  O   O19       1.0  0.96435  0.25933  0.93839  1.0000
  O   O20       1.0  0.26520  0.24072  0.56160  1.0000
  O   O21       1.0  0.42717  0.36668  0.00692  1.0000
  O   O22       1.0  0.55343  0.13340  0.49271  1.0000
  O   O23       1.0  0.57283  0.63331  0.99308  1.0000
  O   O24       1.0  0.44658  0.86660  0.50729  1.0000
  O   O25       1.0  0.84365  0.50636  0.92343  1.0000
  O   O26       1.0  0.91211  0.99420  0.57665  1.0000
  O   O27       1.0  0.15635  0.49363  0.07657  1.0000
  O   O28       1.0  0.08789  0.00580  0.42335  1.0000
  O   O29       1.0  0.58871  0.33359  0.80727  1.0000
  O   O30       1.0  0.94458  0.16668  0.69373  1.0000
  O   O31       1.0  0.41128  0.66641  0.19273  1.0000
  O   O32       1.0  0.05542  0.83332  0.30627  1.0000
  O   O33       1.0  0.92712  0.46806  0.79087  1.0000
  O   O34       1.0  0.16163  0.03103  0.70878  1.0000
  O   O35       1.0  0.07288  0.53194  0.20912  1.0000
  O   O36       1.0  0.83837  0.96897  0.29122  1.0000
