data_image0
_chemical_formula_structural       Hg4H56C56Br8N16
_chemical_formula_sum              "Hg4 H56 C56 Br8 N16"
_cell_length_a       4.21445
_cell_length_b       18.8002
_cell_length_c       20.0902
_cell_angle_alpha    98.4293
_cell_angle_beta     90
_cell_angle_gamma    90

_space_group_name_H-M_alt    "P 1"
_space_group_IT_number       1

loop_
  _space_group_symop_operation_xyz
  'x, y, z'

loop_
  _atom_site_type_symbol
  _atom_site_label
  _atom_site_symmetry_multiplicity
  _atom_site_fract_x
  _atom_site_fract_y
  _atom_site_fract_z
  _atom_site_occupancy
  Hg  Hg1       1.0  0.05851  0.25000  0.25000  1.0000
  Hg  Hg2       1.0  0.94145  0.75000  0.75000  1.0000
  Hg  Hg3       1.0  0.92709  0.75000  0.25000  1.0000
  Hg  Hg4       1.0  0.07290  0.25000  0.75001  1.0000
  H   H1        1.0  0.13586  0.20559  0.39582  1.0000
  H   H2        1.0  0.13587  0.29441  0.10418  1.0000
  H   H3        1.0  0.86412  0.79441  0.60418  1.0000
  H   H4        1.0  0.86413  0.70560  0.89582  1.0000
  H   H5        1.0  0.33478  0.25045  0.51346  1.0000
  H   H6        1.0  0.33479  0.24955  0.98654  1.0000
  H   H7        1.0  0.66522  0.74955  0.48654  1.0000
  H   H8        1.0  0.66524  0.75045  0.01346  1.0000
  H   H9        1.0  0.63652  0.36599  0.53315  1.0000
  H   H10       1.0  0.63650  0.13401  0.96684  1.0000
  H   H11       1.0  0.36350  0.63401  0.46684  1.0000
  H   H12       1.0  0.36350  0.86599  0.03316  1.0000
  H   H13       1.0  0.46831  0.38682  0.32473  1.0000
  H   H14       1.0  0.46830  0.11317  0.17527  1.0000
  H   H15       1.0  0.53168  0.61317  0.67527  1.0000
  H   H16       1.0  0.53169  0.88683  0.82474  1.0000
  H   H17       1.0  0.87822  0.55170  0.40174  1.0000
  H   H18       1.0  0.87822  0.94830  0.09826  1.0000
  H   H19       1.0  0.12176  0.44830  0.59825  1.0000
  H   H20       1.0  0.12177  0.05171  0.90175  1.0000
  H   H21       1.0  0.49054  0.51778  0.37958  1.0000
  H   H22       1.0  0.49055  0.98222  0.12042  1.0000
  H   H23       1.0  0.50944  0.48222  0.62042  1.0000
  H   H24       1.0  0.50945  0.01778  0.87959  1.0000
  H   H25       1.0  0.82566  0.47486  0.33827  1.0000
  H   H26       1.0  0.82567  0.02514  0.16173  1.0000
  H   H27       1.0  0.17432  0.52514  0.66172  1.0000
  H   H28       1.0  0.17433  0.97486  0.83828  1.0000
  H   H29       1.0  0.64812  0.89168  0.19826  1.0000
  H   H30       1.0  0.64812  0.60831  0.30174  1.0000
  H   H31       1.0  0.35189  0.10832  0.80174  1.0000
  H   H32       1.0  0.35189  0.39169  0.69825  1.0000
  H   H33       1.0  0.33289  0.00546  0.23764  1.0000
  H   H34       1.0  0.33288  0.49453  0.26236  1.0000
  H   H35       1.0  0.66711  0.99454  0.76236  1.0000
  H   H36       1.0  0.66713  0.50547  0.73764  1.0000
  H   H37       1.0  0.14663  0.02763  0.35621  1.0000
  H   H38       1.0  0.14661  0.47237  0.14379  1.0000
  H   H39       1.0  0.85338  0.97237  0.64379  1.0000
  H   H40       1.0  0.85338  0.52763  0.85621  1.0000
  H   H41       1.0  0.60178  0.82852  0.38606  1.0000
  H   H42       1.0  0.60180  0.67148  0.11394  1.0000
  H   H43       1.0  0.39821  0.17148  0.61394  1.0000
  H   H44       1.0  0.39821  0.32853  0.88606  1.0000
  H   H45       1.0  0.22806  0.90177  0.54693  1.0000
  H   H46       1.0  0.22808  0.59823  0.95307  1.0000
  H   H47       1.0  0.77191  0.09823  0.45307  1.0000
  H   H48       1.0  0.77191  0.40177  0.04692  1.0000
  H   H49       1.0  0.58637  0.88275  0.50073  1.0000
  H   H50       1.0  0.58638  0.61725  0.99927  1.0000
  H   H51       1.0  0.41360  0.11725  0.49927  1.0000
  H   H52       1.0  0.41361  0.38275  0.00073  1.0000
  H   H53       1.0  0.24022  0.83250  0.47527  1.0000
  H   H54       1.0  0.24024  0.66750  0.02473  1.0000
  H   H55       1.0  0.75975  0.16750  0.52473  1.0000
  H   H56       1.0  0.75976  0.33250  0.97527  1.0000
  C   C1        1.0  0.26143  0.25661  0.40811  1.0000
  C   C2        1.0  0.26143  0.24338  0.09189  1.0000
  C   C3        1.0  0.73856  0.74338  0.59189  1.0000
  C   C4        1.0  0.73857  0.75662  0.90811  1.0000
  C   C5        1.0  0.37582  0.28126  0.47246  1.0000
  C   C6        1.0  0.37581  0.21874  0.02754  1.0000
  C   C7        1.0  0.62419  0.71874  0.52754  1.0000
  C   C8        1.0  0.62421  0.78127  0.97246  1.0000
  C   C9        1.0  0.53953  0.34593  0.48374  1.0000
  C   C10       1.0  0.53953  0.15406  0.01626  1.0000
  C   C11       1.0  0.46048  0.65406  0.51626  1.0000
  C   C12       1.0  0.46048  0.84594  0.98374  1.0000
  C   C13       1.0  0.58035  0.38625  0.43068  1.0000
  C   C14       1.0  0.58032  0.11375  0.06932  1.0000
  C   C15       1.0  0.41967  0.61375  0.56931  1.0000
  C   C16       1.0  0.41967  0.88626  0.93069  1.0000
  C   C17       1.0  0.44739  0.35867  0.36824  1.0000
  C   C18       1.0  0.44737  0.14132  0.13176  1.0000
  C   C19       1.0  0.55262  0.64132  0.63176  1.0000
  C   C20       1.0  0.55263  0.85868  0.86824  1.0000
  C   C21       1.0  0.75625  0.45484  0.44006  1.0000
  C   C22       1.0  0.75623  0.04516  0.05994  1.0000
  C   C23       1.0  0.24375  0.54515  0.55993  1.0000
  C   C24       1.0  0.24375  0.95485  0.94007  1.0000
  C   C25       1.0  0.73923  0.50282  0.38694  1.0000
  C   C26       1.0  0.73923  0.99718  0.11306  1.0000
  C   C27       1.0  0.26076  0.49718  0.61305  1.0000
  C   C28       1.0  0.26077  0.00282  0.88695  1.0000
  C   C29       1.0  0.56196  0.90509  0.24974  1.0000
  C   C30       1.0  0.56196  0.59491  0.25026  1.0000
  C   C31       1.0  0.43806  0.09491  0.75027  1.0000
  C   C32       1.0  0.43806  0.40510  0.74973  1.0000
  C   C33       1.0  0.38835  0.96721  0.27172  1.0000
  C   C34       1.0  0.38835  0.53278  0.22828  1.0000
  C   C35       1.0  0.61165  0.03278  0.72829  1.0000
  C   C36       1.0  0.61166  0.46722  0.77171  1.0000
  C   C37       1.0  0.28478  0.97982  0.33790  1.0000
  C   C38       1.0  0.28478  0.52018  0.16210  1.0000
  C   C39       1.0  0.71521  0.02018  0.66210  1.0000
  C   C40       1.0  0.71522  0.47982  0.83790  1.0000
  C   C41       1.0  0.35586  0.93000  0.38156  1.0000
  C   C42       1.0  0.35587  0.57000  0.11844  1.0000
  C   C43       1.0  0.64413  0.07000  0.61844  1.0000
  C   C44       1.0  0.64413  0.43001  0.88156  1.0000
  C   C45       1.0  0.53571  0.86958  0.35556  1.0000
  C   C46       1.0  0.53572  0.63041  0.14444  1.0000
  C   C47       1.0  0.46429  0.13041  0.64444  1.0000
  C   C48       1.0  0.46429  0.36959  0.85556  1.0000
  C   C49       1.0  0.23880  0.93980  0.45135  1.0000
  C   C50       1.0  0.23881  0.56020  0.04865  1.0000
  C   C51       1.0  0.76119  0.06020  0.54866  1.0000
  C   C52       1.0  0.76119  0.43980  0.95134  1.0000
  C   C53       1.0  0.32693  0.88631  0.49657  1.0000
  C   C54       1.0  0.32694  0.61368  0.00343  1.0000
  C   C55       1.0  0.67305  0.11369  0.50343  1.0000
  C   C56       1.0  0.67306  0.38632  0.99657  1.0000
  Br  Br1       1.0  0.83576  0.13331  0.28759  1.0000
  Br  Br2       1.0  0.83583  0.36670  0.21242  1.0000
  Br  Br3       1.0  0.16427  0.86668  0.71241  1.0000
  Br  Br4       1.0  0.16418  0.63331  0.78759  1.0000
  Br  Br5       1.0  0.08426  0.71312  0.36423  1.0000
  Br  Br6       1.0  0.08426  0.78690  0.13577  1.0000
  Br  Br7       1.0  0.91576  0.28689  0.63578  1.0000
  Br  Br8       1.0  0.91580  0.21311  0.86423  1.0000
  N   N1        1.0  0.29700  0.29509  0.35733  1.0000
  N   N2        1.0  0.29699  0.20491  0.14267  1.0000
  N   N3        1.0  0.70300  0.70491  0.64266  1.0000
  N   N4        1.0  0.70301  0.79510  0.85734  1.0000
  N   N5        1.0  0.91714  0.46818  0.49597  1.0000
  N   N6        1.0  0.91712  0.03182  0.00403  1.0000
  N   N7        1.0  0.08288  0.53181  0.50402  1.0000
  N   N8        1.0  0.08287  0.96819  0.99598  1.0000
  N   N9        1.0  0.63340  0.85777  0.29141  1.0000
  N   N10       1.0  0.63342  0.64223  0.20859  1.0000
  N   N11       1.0  0.36661  0.14223  0.70859  1.0000
  N   N12       1.0  0.36660  0.35778  0.79140  1.0000
  N   N13       1.0  0.05635  0.99573  0.46767  1.0000
  N   N14       1.0  0.05634  0.50427  0.03233  1.0000
  N   N15       1.0  0.94365  0.00427  0.53234  1.0000
  N   N16       1.0  0.94365  0.49573  0.96767  1.0000
