data_image0
_chemical_formula_structural       Hg2H28C28Br4N8
_chemical_formula_sum              "Hg2 H28 C28 Br4 N8"
_cell_length_a       7.68109
_cell_length_b       8.29965
_cell_length_c       13.6031
_cell_angle_alpha    88.0727
_cell_angle_beta     99.162
_cell_angle_gamma    106.147

_space_group_name_H-M_alt    "P 1"
_space_group_IT_number       1

loop_
  _space_group_symop_operation_xyz
  'x, y, z'

loop_
  _atom_site_type_symbol
  _atom_site_label
  _atom_site_symmetry_multiplicity
  _atom_site_fract_x
  _atom_site_fract_y
  _atom_site_fract_z
  _atom_site_occupancy
  Hg  Hg1       1.0  0.58719  0.26535  0.26015  1.0000
  Hg  Hg2       1.0  0.41283  0.73466  0.73984  1.0000
  H   H1        1.0  0.00332  0.37058  0.40824  1.0000
  H   H2        1.0  0.99666  0.62942  0.59176  1.0000
  H   H3        1.0  0.27534  0.26032  0.45902  1.0000
  H   H4        1.0  0.72466  0.73969  0.54097  1.0000
  H   H5        1.0  0.94102  0.78285  0.33033  1.0000
  H   H6        1.0  0.05895  0.21713  0.66970  1.0000
  H   H7        1.0  0.68716  0.91265  0.28435  1.0000
  H   H8        1.0  0.31282  0.08734  0.71566  1.0000
  H   H9        1.0  0.37324  0.71193  0.44961  1.0000
  H   H10       1.0  0.62678  0.28809  0.55040  1.0000
  H   H11       1.0  0.26207  0.74308  0.32796  1.0000
  H   H12       1.0  0.73792  0.25694  0.67204  1.0000
  H   H13       1.0  0.12977  0.67678  0.42559  1.0000
  H   H14       1.0  0.87024  0.32322  0.57442  1.0000
  H   H15       1.0  0.00040  0.53510  0.24215  1.0000
  H   H16       1.0  0.99963  0.46491  0.75785  1.0000
  H   H17       1.0  0.27622  0.55634  0.16054  1.0000
  H   H18       1.0  0.72381  0.44367  0.83947  1.0000
  H   H19       1.0  0.93657  0.15438  0.96254  1.0000
  H   H20       1.0  0.06347  0.84562  0.03747  1.0000
  H   H21       1.0  0.67749  0.15238  0.05078  1.0000
  H   H22       1.0  0.32254  0.84762  0.94922  1.0000
  H   H23       1.0  0.38495  0.27582  0.88143  1.0000
  H   H24       1.0  0.61507  0.72417  0.11857  1.0000
  H   H25       1.0  0.14275  0.24855  0.86102  1.0000
  H   H26       1.0  0.85727  0.75144  0.13898  1.0000
  H   H27       1.0  0.23692  0.11845  0.94662  1.0000
  H   H28       1.0  0.76311  0.88154  0.05339  1.0000
  C   C1        1.0  0.99657  0.24096  0.39161  1.0000
  C   C2        1.0  0.00342  0.75904  0.60839  1.0000
  C   C3        1.0  0.14767  0.17978  0.41988  1.0000
  C   C4        1.0  0.85232  0.82023  0.58012  1.0000
  C   C5        1.0  0.13282  0.01120  0.39873  1.0000
  C   C6        1.0  0.86717  0.98880  0.60127  1.0000
  C   C7        1.0  0.96447  0.91466  0.34812  1.0000
  C   C8        1.0  0.03551  0.08533  0.65190  1.0000
  C   C9        1.0  0.82009  0.98598  0.32267  1.0000
  C   C10       1.0  0.17989  0.01401  0.67734  1.0000
  C   C11       1.0  0.28488  0.93599  0.43237  1.0000
  C   C12       1.0  0.71511  0.06401  0.56764  1.0000
  C   C13       1.0  0.26152  0.75590  0.40822  1.0000
  C   C14       1.0  0.73848  0.24411  0.59178  1.0000
  C   C15       1.0  0.99299  0.45320  0.17956  1.0000
  C   C16       1.0  0.00704  0.54680  0.82044  1.0000
  C   C17       1.0  0.14594  0.46474  0.13459  1.0000
  C   C18       1.0  0.85409  0.53527  0.86541  1.0000
  C   C19       1.0  0.13028  0.35671  0.05411  1.0000
  C   C20       1.0  0.86974  0.64329  0.94589  1.0000
  C   C21       1.0  0.95904  0.24125  0.02447  1.0000
  C   C22       1.0  0.04098  0.75875  0.97553  1.0000
  C   C23       1.0  0.81282  0.23932  0.07340  1.0000
  C   C24       1.0  0.18721  0.76068  0.92660  1.0000
  C   C25       1.0  0.28461  0.36886  0.99938  1.0000
  C   C26       1.0  0.71542  0.63114  0.00062  1.0000
  C   C27       1.0  0.26218  0.24637  0.91703  1.0000
  C   C28       1.0  0.73785  0.75362  0.08297  1.0000
  Br  Br1       1.0  0.37726  0.00458  0.16749  1.0000
  Br  Br2       1.0  0.62276  0.99540  0.83250  1.0000
  Br  Br3       1.0  0.61023  0.52634  0.35567  1.0000
  Br  Br4       1.0  0.38942  0.47369  0.64419  1.0000
  N   N1        1.0  0.83478  0.14613  0.34423  1.0000
  N   N2        1.0  0.16521  0.85386  0.65578  1.0000
  N   N3        1.0  0.43082  0.03627  0.48335  1.0000
  N   N4        1.0  0.56916  0.96373  0.51666  1.0000
  N   N5        1.0  0.43014  0.49284  0.02697  1.0000
  N   N6        1.0  0.56989  0.50716  0.97303  1.0000
  N   N7        1.0  0.82859  0.34335  0.14964  1.0000
  N   N8        1.0  0.17144  0.65665  0.85036  1.0000
