data_image0
_chemical_formula_structural       Zn8H32C20N32O8
_chemical_formula_sum              "Zn8 H32 C20 N32 O8"
_cell_length_a       6.86229
_cell_length_b       10.0971
_cell_length_c       13.9336
_cell_angle_alpha    90
_cell_angle_beta     90.0001
_cell_angle_gamma    90.0001

_space_group_name_H-M_alt    "P 1"
_space_group_IT_number       1

loop_
  _space_group_symop_operation_xyz
  'x, y, z'

loop_
  _atom_site_type_symbol
  _atom_site_label
  _atom_site_symmetry_multiplicity
  _atom_site_fract_x
  _atom_site_fract_y
  _atom_site_fract_z
  _atom_site_occupancy
  Zn  Zn1       1.0  0.96902  0.62777  0.62845  1.0000
  Zn  Zn2       1.0  0.46901  0.37223  0.37155  1.0000
  Zn  Zn3       1.0  0.46902  0.12777  0.87155  1.0000
  Zn  Zn4       1.0  0.96902  0.87223  0.12845  1.0000
  Zn  Zn5       1.0  0.96579  0.13424  0.86792  1.0000
  Zn  Zn6       1.0  0.46579  0.86576  0.13208  1.0000
  Zn  Zn7       1.0  0.46580  0.63424  0.63208  1.0000
  Zn  Zn8       1.0  0.96579  0.36576  0.36792  1.0000
  H   H1        1.0  0.75519  0.04117  0.67539  1.0000
  H   H2        1.0  0.25518  0.95882  0.32461  1.0000
  H   H3        1.0  0.25519  0.54117  0.82461  1.0000
  H   H4        1.0  0.75518  0.45883  0.17539  1.0000
  H   H5        1.0  0.74938  0.88871  0.61315  1.0000
  H   H6        1.0  0.24938  0.11129  0.38685  1.0000
  H   H7        1.0  0.24938  0.38871  0.88685  1.0000
  H   H8        1.0  0.74938  0.61129  0.11315  1.0000
  H   H9        1.0  0.92105  0.06125  0.51960  1.0000
  H   H10       1.0  0.42105  0.93875  0.48040  1.0000
  H   H11       1.0  0.42105  0.56125  0.98040  1.0000
  H   H12       1.0  0.92105  0.43875  0.01960  1.0000
  H   H13       1.0  0.07699  0.92626  0.54652  1.0000
  H   H14       1.0  0.57699  0.07374  0.45348  1.0000
  H   H15       1.0  0.57699  0.42626  0.95348  1.0000
  H   H16       1.0  0.07699  0.57374  0.04652  1.0000
  H   H17       1.0  0.22815  0.05173  0.67984  1.0000
  H   H18       1.0  0.72815  0.94827  0.32016  1.0000
  H   H19       1.0  0.72815  0.55173  0.82016  1.0000
  H   H20       1.0  0.22815  0.44827  0.17984  1.0000
  H   H21       1.0  0.25733  0.13064  0.56857  1.0000
  H   H22       1.0  0.75733  0.86936  0.43142  1.0000
  H   H23       1.0  0.75733  0.63064  0.93143  1.0000
  H   H24       1.0  0.25732  0.36936  0.06858  1.0000
  H   H25       1.0  0.69684  0.64493  0.50021  1.0000
  H   H26       1.0  0.19685  0.35507  0.49979  1.0000
  H   H27       1.0  0.19685  0.14493  0.99979  1.0000
  H   H28       1.0  0.69684  0.85507  0.00021  1.0000
  H   H29       1.0  0.20765  0.65153  0.49714  1.0000
  H   H30       1.0  0.70765  0.34847  0.50286  1.0000
  H   H31       1.0  0.70765  0.15153  0.00287  1.0000
  H   H32       1.0  0.20765  0.84847  0.99714  1.0000
  C   C1        1.0  0.93415  0.88939  0.73374  1.0000
  C   C2        1.0  0.43415  0.11061  0.26626  1.0000
  C   C3        1.0  0.43415  0.38939  0.76626  1.0000
  C   C4        1.0  0.93415  0.61061  0.23374  1.0000
  C   C5        1.0  0.84612  0.95881  0.65002  1.0000
  C   C6        1.0  0.34611  0.04119  0.34998  1.0000
  C   C7        1.0  0.34612  0.45881  0.84998  1.0000
  C   C8        1.0  0.84611  0.54119  0.15002  1.0000
  C   C9        1.0  0.99808  0.01042  0.57821  1.0000
  C   C10       1.0  0.49808  0.98958  0.42179  1.0000
  C   C11       1.0  0.49808  0.51042  0.92179  1.0000
  C   C12       1.0  0.99808  0.48958  0.07821  1.0000
  C   C13       1.0  0.14864  0.10404  0.62293  1.0000
  C   C14       1.0  0.64864  0.89596  0.37707  1.0000
  C   C15       1.0  0.64864  0.60404  0.87707  1.0000
  C   C16       1.0  0.14864  0.39596  0.12293  1.0000
  C   C17       1.0  0.06754  0.23018  0.66125  1.0000
  C   C18       1.0  0.56754  0.76982  0.33875  1.0000
  C   C19       1.0  0.56754  0.73019  0.83875  1.0000
  C   C20       1.0  0.06753  0.26981  0.16125  1.0000
  N   N1        1.0  0.97865  0.75963  0.73810  1.0000
  N   N2        1.0  0.47864  0.24037  0.26190  1.0000
  N   N3        1.0  0.47864  0.25963  0.76189  1.0000
  N   N4        1.0  0.97864  0.74037  0.23810  1.0000
  N   N5        1.0  0.05774  0.73657  0.82547  1.0000
  N   N6        1.0  0.55774  0.26343  0.17453  1.0000
  N   N7        1.0  0.55774  0.23657  0.67453  1.0000
  N   N8        1.0  0.05774  0.76343  0.32547  1.0000
  N   N9        1.0  0.06163  0.84766  0.87307  1.0000
  N   N10       1.0  0.56163  0.15234  0.12693  1.0000
  N   N11       1.0  0.56163  0.34766  0.62693  1.0000
  N   N12       1.0  0.06163  0.65234  0.37307  1.0000
  N   N13       1.0  0.98516  0.94502  0.81754  1.0000
  N   N14       1.0  0.48516  0.05498  0.18246  1.0000
  N   N15       1.0  0.48516  0.44502  0.68246  1.0000
  N   N16       1.0  0.98516  0.55498  0.31754  1.0000
  N   N17       1.0  0.98437  0.25084  0.74839  1.0000
  N   N18       1.0  0.48437  0.74917  0.25161  1.0000
  N   N19       1.0  0.48437  0.75084  0.75161  1.0000
  N   N20       1.0  0.98437  0.24916  0.24839  1.0000
  N   N21       1.0  0.93746  0.37966  0.75371  1.0000
  N   N22       1.0  0.43746  0.62035  0.24629  1.0000
  N   N23       1.0  0.43746  0.87966  0.74629  1.0000
  N   N24       1.0  0.93746  0.12035  0.25371  1.0000
  N   N25       1.0  0.99083  0.43429  0.67226  1.0000
  N   N26       1.0  0.49083  0.56571  0.32774  1.0000
  N   N27       1.0  0.49083  0.93430  0.82774  1.0000
  N   N28       1.0  0.99083  0.06570  0.17226  1.0000
  N   N29       1.0  0.07168  0.34469  0.61313  1.0000
  N   N30       1.0  0.57168  0.65531  0.38687  1.0000
  N   N31       1.0  0.57168  0.84469  0.88687  1.0000
  N   N32       1.0  0.07168  0.15531  0.11313  1.0000
  O   O1        1.0  0.71797  0.66021  0.56966  1.0000
  O   O2        1.0  0.21797  0.33979  0.43034  1.0000
  O   O3        1.0  0.21797  0.16021  0.93034  1.0000
  O   O4        1.0  0.71797  0.83979  0.06966  1.0000
  O   O5        1.0  0.21977  0.66407  0.56682  1.0000
  O   O6        1.0  0.71977  0.33593  0.43318  1.0000
  O   O7        1.0  0.71977  0.16407  0.93318  1.0000
  O   O8        1.0  0.21977  0.83593  0.06682  1.0000
