data_image0
_chemical_formula_structural       Sn8H72C32O20
_chemical_formula_sum              "Sn8 H72 C32 O20"
_cell_length_a       7.61828
_cell_length_b       11.1212
_cell_length_c       16.344
_cell_angle_alpha    103.589
_cell_angle_beta     90
_cell_angle_gamma    90

_space_group_name_H-M_alt    "P 1"
_space_group_IT_number       1

loop_
  _space_group_symop_operation_xyz
  'x, y, z'

loop_
  _atom_site_type_symbol
  _atom_site_label
  _atom_site_symmetry_multiplicity
  _atom_site_fract_x
  _atom_site_fract_y
  _atom_site_fract_z
  _atom_site_occupancy
  Sn  Sn1       1.0  0.27401  0.50916  0.16029  1.0000
  Sn  Sn2       1.0  0.72600  0.50915  0.66031  1.0000
  Sn  Sn3       1.0  0.17386  0.20227  0.21408  1.0000
  Sn  Sn4       1.0  0.82614  0.20226  0.71411  1.0000
  Sn  Sn5       1.0  0.31041  0.19743  0.01913  1.0000
  Sn  Sn6       1.0  0.68959  0.19743  0.51914  1.0000
  Sn  Sn7       1.0  0.24429  0.88696  0.06410  1.0000
  Sn  Sn8       1.0  0.75570  0.88693  0.56410  1.0000
  H   H1        1.0  0.59046  0.56561  0.10494  1.0000
  H   H2        1.0  0.40955  0.56561  0.60495  1.0000
  H   H3        1.0  0.61407  0.52933  0.20633  1.0000
  H   H4        1.0  0.38594  0.52933  0.70633  1.0000
  H   H5        1.0  0.52962  0.67701  0.19884  1.0000
  H   H6        1.0  0.47039  0.67700  0.69885  1.0000
  H   H7        1.0  0.94485  0.57254  0.12402  1.0000
  H   H8        1.0  0.05514  0.57255  0.62403  1.0000
  H   H9        1.0  0.02263  0.67732  0.21764  1.0000
  H   H10       1.0  0.97736  0.67732  0.71765  1.0000
  H   H11       1.0  0.94789  0.52621  0.22256  1.0000
  H   H12       1.0  0.05213  0.52623  0.72257  1.0000
  H   H13       1.0  0.63514  0.24405  0.96300  1.0000
  H   H14       1.0  0.36488  0.24406  0.46300  1.0000
  H   H15       1.0  0.65197  0.16132  0.04409  1.0000
  H   H16       1.0  0.34802  0.16133  0.54409  1.0000
  H   H17       1.0  0.60677  0.32376  0.07133  1.0000
  H   H18       1.0  0.39324  0.32377  0.57134  1.0000
  H   H19       1.0  0.11064  0.25241  0.89609  1.0000
  H   H20       1.0  0.88935  0.25240  0.39610  1.0000
  H   H21       1.0  0.99083  0.28008  0.99230  1.0000
  H   H22       1.0  0.00916  0.28007  0.49231  1.0000
  H   H23       1.0  0.01560  0.12445  0.92954  1.0000
  H   H24       1.0  0.98439  0.12445  0.42954  1.0000
  H   H25       1.0  0.83073  0.19529  0.25553  1.0000
  H   H26       1.0  0.16929  0.19530  0.75552  1.0000
  H   H27       1.0  0.86031  0.12891  0.14542  1.0000
  H   H28       1.0  0.13970  0.12893  0.64541  1.0000
  H   H29       1.0  0.86135  0.29396  0.18398  1.0000
  H   H30       1.0  0.13862  0.29397  0.68398  1.0000
  H   H31       1.0  0.39071  0.17092  0.33932  1.0000
  H   H32       1.0  0.60925  0.17092  0.83933  1.0000
  H   H33       1.0  0.47357  0.29116  0.29255  1.0000
  H   H34       1.0  0.52644  0.29115  0.79255  1.0000
  H   H35       1.0  0.49937  0.13126  0.23995  1.0000
  H   H36       1.0  0.50062  0.13126  0.73995  1.0000
  H   H37       1.0  0.58288  0.93715  0.03792  1.0000
  H   H38       1.0  0.41710  0.93714  0.53793  1.0000
  H   H39       1.0  0.52491  0.79039  0.97154  1.0000
  H   H40       1.0  0.47507  0.79038  0.47156  1.0000
  H   H41       1.0  0.56927  0.80334  0.08134  1.0000
  H   H42       1.0  0.43072  0.80333  0.58136  1.0000
  H   H43       1.0  0.90122  0.94172  0.08814  1.0000
  H   H44       1.0  0.09877  0.94173  0.58815  1.0000
  H   H45       1.0  0.94628  0.80083  0.11952  1.0000
  H   H46       1.0  0.05372  0.80085  0.61951  1.0000
  H   H47       1.0  0.92749  0.80009  0.00992  1.0000
  H   H48       1.0  0.07252  0.80011  0.50992  1.0000
  H   H49       1.0  0.10460  0.88417  0.37317  1.0000
  H   H50       1.0  0.89543  0.88418  0.87318  1.0000
  H   H51       1.0  0.32349  0.94175  0.38127  1.0000
  H   H52       1.0  0.67653  0.94175  0.88127  1.0000
  H   H53       1.0  0.28380  0.78557  0.32706  1.0000
  H   H54       1.0  0.71623  0.78558  0.82706  1.0000
  H   H55       1.0  0.40676  0.90410  0.75778  1.0000
  H   H56       1.0  0.59324  0.90408  0.25777  1.0000
  H   H57       1.0  0.18222  0.95073  0.76303  1.0000
  H   H58       1.0  0.81776  0.95071  0.26303  1.0000
  H   H59       1.0  0.23532  0.79654  0.76701  1.0000
  H   H60       1.0  0.76465  0.79653  0.26701  1.0000
  H   H61       1.0  0.22775  0.63120  0.88274  1.0000
  H   H62       1.0  0.77227  0.63118  0.38275  1.0000
  H   H63       1.0  0.19550  0.46665  0.86375  1.0000
  H   H64       1.0  0.80452  0.46664  0.36375  1.0000
  H   H65       1.0  0.41122  0.52969  0.87454  1.0000
  H   H66       1.0  0.58880  0.52968  0.37455  1.0000
  H   H67       1.0  0.30425  0.61088  0.45984  1.0000
  H   H68       1.0  0.69574  0.61087  0.95984  1.0000
  H   H69       1.0  0.25810  0.45887  0.47436  1.0000
  H   H70       1.0  0.74188  0.45886  0.97438  1.0000
  H   H71       1.0  0.08326  0.56000  0.46660  1.0000
  H   H72       1.0  0.91674  0.55999  0.96661  1.0000
  C   C1        1.0  0.53585  0.57837  0.16828  1.0000
  C   C2        1.0  0.46417  0.57836  0.66829  1.0000
  C   C3        1.0  0.01415  0.58015  0.18362  1.0000
  C   C4        1.0  0.98584  0.58015  0.68363  1.0000
  C   C5        1.0  0.58518  0.23710  0.02440  1.0000
  C   C6        1.0  0.41482  0.23710  0.52440  1.0000
  C   C7        1.0  0.07798  0.21520  0.95045  1.0000
  C   C8        1.0  0.92201  0.21519  0.45045  1.0000
  C   C9        1.0  0.89650  0.20551  0.19806  1.0000
  C   C10       1.0  0.10350  0.20551  0.69806  1.0000
  C   C11       1.0  0.41385  0.19909  0.28058  1.0000
  C   C12       1.0  0.58614  0.19909  0.78059  1.0000
  C   C13       1.0  0.51446  0.84976  0.03507  1.0000
  C   C14       1.0  0.48553  0.84975  0.53509  1.0000
  C   C15       1.0  0.97040  0.85315  0.07176  1.0000
  C   C16       1.0  0.02960  0.85315  0.57176  1.0000
  C   C17       1.0  0.20877  0.47797  0.34915  1.0000
  C   C18       1.0  0.79123  0.47795  0.84916  1.0000
  C   C19       1.0  0.21028  0.92568  0.26077  1.0000
  C   C20       1.0  0.78974  0.92568  0.76078  1.0000
  C   C21       1.0  0.23056  0.87974  0.34008  1.0000
  C   C22       1.0  0.76946  0.87974  0.84008  1.0000
  C   C23       1.0  0.28591  0.93638  0.88035  1.0000
  C   C24       1.0  0.71405  0.93637  0.38035  1.0000
  C   C25       1.0  0.27913  0.89289  0.78597  1.0000
  C   C26       1.0  0.72085  0.89287  0.28597  1.0000
  C   C27       1.0  0.26849  0.55448  0.99028  1.0000
  C   C28       1.0  0.73152  0.55447  0.49029  1.0000
  C   C29       1.0  0.27506  0.54533  0.89700  1.0000
  C   C30       1.0  0.72495  0.54532  0.39701  1.0000
  C   C31       1.0  0.21560  0.53145  0.44328  1.0000
  C   C32       1.0  0.78438  0.53144  0.94329  1.0000
  O   O1        1.0  0.30690  0.52821  0.30260  1.0000
  O   O2        1.0  0.69310  0.52817  0.80260  1.0000
  O   O3        1.0  0.25402  0.32248  0.13801  1.0000
  O   O4        1.0  0.74598  0.32246  0.63802  1.0000
  O   O5        1.0  0.24940  0.08060  0.09659  1.0000
  O   O6        1.0  0.75060  0.08059  0.59660  1.0000
  O   O7        1.0  0.10805  0.38661  0.32191  1.0000
  O   O8        1.0  0.89195  0.38659  0.82194  1.0000
  O   O9        1.0  0.10995  0.01702  0.26177  1.0000
  O   O10       1.0  0.89006  0.01703  0.76178  1.0000
  O   O11       1.0  0.38285  0.02945  0.91204  1.0000
  O   O12       1.0  0.61714  0.02945  0.41204  1.0000
  O   O13       1.0  0.19144  0.87971  0.92401  1.0000
  O   O14       1.0  0.80851  0.87969  0.42401  1.0000
  O   O15       1.0  0.29982  0.87004  0.19605  1.0000
  O   O16       1.0  0.70021  0.87003  0.69606  1.0000
  O   O17       1.0  0.24419  0.65656  0.04258  1.0000
  O   O18       1.0  0.75581  0.65656  0.54259  1.0000
  O   O19       1.0  0.28778  0.45448  0.01673  1.0000
  O   O20       1.0  0.71224  0.45448  0.51674  1.0000
