data_image0
_chemical_formula_structural       Nd2H20C14N6O28
_chemical_formula_sum              "Nd2 H20 C14 N6 O28"
_cell_length_a       6.63122
_cell_length_b       9.76605
_cell_length_c       14.6692
_cell_angle_alpha    72.1918
_cell_angle_beta     90.4471
_cell_angle_gamma    77.7082

_space_group_name_H-M_alt    "P 1"
_space_group_IT_number       1

loop_
  _space_group_symop_operation_xyz
  'x, y, z'

loop_
  _atom_site_type_symbol
  _atom_site_label
  _atom_site_symmetry_multiplicity
  _atom_site_fract_x
  _atom_site_fract_y
  _atom_site_fract_z
  _atom_site_occupancy
  Nd  Nd1       1.0  0.69328  0.66949  0.62686  1.0000
  Nd  Nd2       1.0  0.30672  0.33050  0.37317  1.0000
  H   H1        1.0  0.79470  0.65326  0.84968  1.0000
  H   H2        1.0  0.20531  0.34673  0.15033  1.0000
  H   H3        1.0  0.77795  0.81563  0.77818  1.0000
  H   H4        1.0  0.22204  0.18438  0.22181  1.0000
  H   H5        1.0  0.16312  0.67343  0.58721  1.0000
  H   H6        1.0  0.83688  0.32656  0.41279  1.0000
  H   H7        1.0  0.04556  0.83195  0.58275  1.0000
  H   H8        1.0  0.95443  0.16805  0.41725  1.0000
  H   H9        1.0  0.08803  0.42710  0.60590  1.0000
  H   H10       1.0  0.91197  0.57288  0.39410  1.0000
  H   H11       1.0  0.05741  0.38992  0.71805  1.0000
  H   H12       1.0  0.94259  0.61009  0.28196  1.0000
  H   H13       1.0  0.71041  0.44227  0.83926  1.0000
  H   H14       1.0  0.28960  0.55775  0.16073  1.0000
  H   H15       1.0  0.65699  0.36857  0.76260  1.0000
  H   H16       1.0  0.34300  0.63143  0.23739  1.0000
  H   H17       1.0  0.27515  0.53031  0.75365  1.0000
  H   H18       1.0  0.72485  0.46967  0.24636  1.0000
  H   H19       1.0  0.33300  0.90909  0.81295  1.0000
  H   H20       1.0  0.66697  0.09093  0.18704  1.0000
  C   C1        1.0  0.27681  0.58328  0.80847  1.0000
  C   C2        1.0  0.72317  0.41673  0.19152  1.0000
  C   C3        1.0  0.24591  0.51598  0.90322  1.0000
  C   C4        1.0  0.75403  0.48404  0.09677  1.0000
  C   C5        1.0  0.25056  0.58617  0.97707  1.0000
  C   C6        1.0  0.74943  0.41384  0.02292  1.0000
  C   C7        1.0  0.27732  0.73640  0.93658  1.0000
  C   C8        1.0  0.72272  0.26359  0.06341  1.0000
  C   C9        1.0  0.30974  0.79741  0.84162  1.0000
  C   C10       1.0  0.69027  0.20260  0.15837  1.0000
  C   C11       1.0  0.59056  0.50725  0.46705  1.0000
  C   C12       1.0  0.40941  0.49276  0.53295  1.0000
  C   C13       1.0  0.56357  0.02863  0.53246  1.0000
  C   C14       1.0  0.43644  0.97136  0.46756  1.0000
  N   N1        1.0  0.31711  0.71952  0.77887  1.0000
  N   N2        1.0  0.68289  0.28049  0.22112  1.0000
  N   N3        1.0  0.20979  0.36815  0.92426  1.0000
  N   N4        1.0  0.79020  0.63186  0.07573  1.0000
  N   N5        1.0  0.27453  0.83535  0.99427  1.0000
  N   N6        1.0  0.72549  0.16463  0.00574  1.0000
  O   O1        1.0  0.36399  0.77724  0.68949  1.0000
  O   O2        1.0  0.63602  0.22276  0.31051  1.0000
  O   O3        1.0  0.80643  0.71191  0.78241  1.0000
  O   O4        1.0  0.19355  0.28810  0.21760  1.0000
  O   O5        1.0  0.16975  0.32589  0.85540  1.0000
  O   O6        1.0  0.83028  0.67412  0.14460  1.0000
  O   O7        1.0  0.02417  0.74044  0.57487  1.0000
  O   O8        1.0  0.97583  0.25956  0.42512  1.0000
  O   O9        1.0  0.22175  0.28929  0.00934  1.0000
  O   O10       1.0  0.77827  0.71071  0.99065  1.0000
  O   O11       1.0  0.98678  0.43912  0.65393  1.0000
  O   O12       1.0  0.01322  0.56088  0.34607  1.0000
  O   O13       1.0  0.22553  0.52655  0.06457  1.0000
  O   O14       1.0  0.77448  0.47346  0.93542  1.0000
  O   O15       1.0  0.66795  0.46246  0.76958  1.0000
  O   O16       1.0  0.33203  0.53753  0.23043  1.0000
  O   O17       1.0  0.33909  0.77864  0.08029  1.0000
  O   O18       1.0  0.66090  0.22136  0.91973  1.0000
  O   O19       1.0  0.21332  0.96943  0.95342  1.0000
  O   O20       1.0  0.78670  0.03055  0.04658  1.0000
  O   O21       1.0  0.72921  0.56699  0.48677  1.0000
  O   O22       1.0  0.27081  0.43299  0.51326  1.0000
  O   O23       1.0  0.58776  0.45619  0.39732  1.0000
  O   O24       1.0  0.41226  0.54380  0.60267  1.0000
  O   O25       1.0  0.68563  0.93208  0.59963  1.0000
  O   O26       1.0  0.31437  0.06791  0.40038  1.0000
  O   O27       1.0  0.53557  0.16684  0.51286  1.0000
  O   O28       1.0  0.46443  0.83315  0.48716  1.0000
