data_image0
_chemical_formula_structural       Ba2H20C12N16O24
_chemical_formula_sum              "Ba2 H20 C12 N16 O24"
_cell_length_a       6.44264
_cell_length_b       9.24587
_cell_length_c       14.838
_cell_angle_alpha    73.8278
_cell_angle_beta     77.4887
_cell_angle_gamma    69.6025

_space_group_name_H-M_alt    "P 1"
_space_group_IT_number       1

loop_
  _space_group_symop_operation_xyz
  'x, y, z'

loop_
  _atom_site_type_symbol
  _atom_site_label
  _atom_site_symmetry_multiplicity
  _atom_site_fract_x
  _atom_site_fract_y
  _atom_site_fract_z
  _atom_site_occupancy
  Ba  Ba1       1.0  0.33092  0.25003  0.75001  1.0000
  Ba  Ba2       1.0  0.66908  0.74997  0.24999  1.0000
  H   H1        1.0  0.71725  0.00380  0.89814  1.0000
  H   H2        1.0  0.61924  0.49613  0.60204  1.0000
  H   H3        1.0  0.28275  0.99620  0.10186  1.0000
  H   H4        1.0  0.38077  0.50387  0.39796  1.0000
  H   H5        1.0  0.77508  0.16316  0.85226  1.0000
  H   H6        1.0  0.79067  0.33669  0.64789  1.0000
  H   H7        1.0  0.22492  0.83684  0.14775  1.0000
  H   H8        1.0  0.20932  0.66331  0.35210  1.0000
  H   H9        1.0  0.83161  0.35644  0.90391  1.0000
  H   H10       1.0  0.09193  0.14353  0.59606  1.0000
  H   H11       1.0  0.16839  0.64356  0.09609  1.0000
  H   H12       1.0  0.90808  0.85647  0.40394  1.0000
  H   H13       1.0  0.78931  0.40915  0.79660  1.0000
  H   H14       1.0  0.99523  0.09075  0.70336  1.0000
  H   H15       1.0  0.21070  0.59085  0.20340  1.0000
  H   H16       1.0  0.00477  0.90925  0.29664  1.0000
  H   H17       1.0  0.34120  0.67259  0.74475  1.0000
  H   H18       1.0  0.75816  0.82752  0.75535  1.0000
  H   H19       1.0  0.65880  0.32742  0.25525  1.0000
  H   H20       1.0  0.24184  0.17248  0.24465  1.0000
  C   C1        1.0  0.27199  0.46314  0.95133  1.0000
  C   C2        1.0  0.68682  0.03697  0.54867  1.0000
  C   C3        1.0  0.72802  0.53687  0.04867  1.0000
  C   C4        1.0  0.31318  0.96303  0.45133  1.0000
  C   C5        1.0  0.26774  0.69708  0.89675  1.0000
  C   C6        1.0  0.86137  0.80291  0.60339  1.0000
  C   C7        1.0  0.73226  0.30292  0.10325  1.0000
  C   C8        1.0  0.13863  0.19709  0.39661  1.0000
  C   C9        1.0  0.31114  0.62380  0.82005  1.0000
  C   C10       1.0  0.75477  0.87631  0.68004  1.0000
  C   C11       1.0  0.68886  0.37620  0.17995  1.0000
  C   C12       1.0  0.24524  0.12369  0.31996  1.0000
  N   N1        1.0  0.31329  0.47300  0.85639  1.0000
  N   N2        1.0  0.64280  0.02717  0.64360  1.0000
  N   N3        1.0  0.68670  0.52700  0.14361  1.0000
  N   N4        1.0  0.35720  0.97283  0.35640  1.0000
  N   N5        1.0  0.24347  0.59438  0.98053  1.0000
  N   N6        1.0  0.81856  0.90563  0.51955  1.0000
  N   N7        1.0  0.75653  0.40562  0.01947  1.0000
  N   N8        1.0  0.18144  0.09437  0.48044  1.0000
  N   N9        1.0  0.25660  0.85487  0.89195  1.0000
  N   N10       1.0  0.00338  0.64513  0.60826  1.0000
  N   N11       1.0  0.74340  0.14513  0.10805  1.0000
  N   N12       1.0  0.99662  0.35487  0.39174  1.0000
  N   N13       1.0  0.26269  0.31868  0.01662  1.0000
  N   N14       1.0  0.59828  0.18143  0.48334  1.0000
  N   N15       1.0  0.73731  0.68132  0.98338  1.0000
  N   N16       1.0  0.40172  0.81857  0.51666  1.0000
  O   O1        1.0  0.27680  0.94083  0.81020  1.0000
  O   O2        1.0  0.02740  0.55916  0.69005  1.0000
  O   O3        1.0  0.72319  0.05917  0.18980  1.0000
  O   O4        1.0  0.97260  0.44084  0.30995  1.0000
  O   O5        1.0  0.23176  0.90008  0.96582  1.0000
  O   O6        1.0  0.09827  0.59993  0.53446  1.0000
  O   O7        1.0  0.76824  0.09992  0.03418  1.0000
  O   O8        1.0  0.90172  0.40006  0.46554  1.0000
  O   O9        1.0  0.23893  0.31512  0.10273  1.0000
  O   O10       1.0  0.65724  0.18495  0.39724  1.0000
  O   O11       1.0  0.76107  0.68488  0.89727  1.0000
  O   O12       1.0  0.34276  0.81505  0.60276  1.0000
  O   O13       1.0  0.27880  0.20303  0.98439  1.0000
  O   O14       1.0  0.46611  0.29703  0.51550  1.0000
  O   O15       1.0  0.72120  0.79698  0.01561  1.0000
  O   O16       1.0  0.53389  0.70297  0.48450  1.0000
  O   O17       1.0  0.72161  0.08321  0.83877  1.0000
  O   O18       1.0  0.64369  0.41658  0.66137  1.0000
  O   O19       1.0  0.27839  0.91679  0.16123  1.0000
  O   O20       1.0  0.35630  0.58342  0.33863  1.0000
  O   O21       1.0  0.87496  0.32238  0.84225  1.0000
  O   O22       1.0  0.03966  0.17754  0.65774  1.0000
  O   O23       1.0  0.12504  0.67762  0.15775  1.0000
  O   O24       1.0  0.96034  0.82246  0.34226  1.0000
