data_image0
_chemical_formula_structural       Rb2H10C12N16O18
_chemical_formula_sum              "Rb2 H10 C12 N16 O18"
_cell_length_a       7.25498
_cell_length_b       7.23814
_cell_length_c       13.1158
_cell_angle_alpha    95.8534
_cell_angle_beta     97.9064
_cell_angle_gamma    94.6066

_space_group_name_H-M_alt    "P 1"
_space_group_IT_number       1

loop_
  _space_group_symop_operation_xyz
  'x, y, z'

loop_
  _atom_site_type_symbol
  _atom_site_label
  _atom_site_symmetry_multiplicity
  _atom_site_fract_x
  _atom_site_fract_y
  _atom_site_fract_z
  _atom_site_occupancy
  Rb  Rb1       1.0  0.70583  0.86348  0.93145  1.0000
  Rb  Rb2       1.0  0.29417  0.13652  0.06855  1.0000
  H   H1        1.0  0.70345  0.29708  0.02340  1.0000
  H   H2        1.0  0.29655  0.70291  0.97660  1.0000
  H   H3        1.0  0.79754  0.25541  0.13142  1.0000
  H   H4        1.0  0.20246  0.74459  0.86858  1.0000
  H   H5        1.0  0.25996  0.50158  0.51504  1.0000
  H   H6        1.0  0.74005  0.49842  0.48497  1.0000
  H   H7        1.0  0.21445  0.78956  0.36490  1.0000
  H   H8        1.0  0.78554  0.21044  0.63510  1.0000
  H   H9        1.0  0.26770  0.21980  0.62482  1.0000
  H   H10       1.0  0.73230  0.78020  0.37518  1.0000
  C   C1        1.0  0.04561  0.36496  0.33241  1.0000
  C   C2        1.0  0.95439  0.63503  0.66759  1.0000
  C   C3        1.0  0.03723  0.58461  0.24126  1.0000
  C   C4        1.0  0.96276  0.41539  0.75873  1.0000
  C   C5        1.0  0.14615  0.65129  0.33738  1.0000
  C   C6        1.0  0.85384  0.34871  0.66262  1.0000
  C   C7        1.0  0.44496  0.64777  0.65142  1.0000
  C   C8        1.0  0.55504  0.35222  0.34858  1.0000
  C   C9        1.0  0.34124  0.35655  0.65083  1.0000
  C   C10       1.0  0.65876  0.64345  0.34917  1.0000
  C   C11       1.0  0.45656  0.42836  0.74320  1.0000
  C   C12       1.0  0.54344  0.57164  0.25680  1.0000
  N   N1        1.0  0.97200  0.40261  0.23873  1.0000
  N   N2        1.0  0.02800  0.59739  0.76127  1.0000
  N   N3        1.0  0.15080  0.50762  0.39547  1.0000
  N   N4        1.0  0.84920  0.49239  0.60452  1.0000
  N   N5        1.0  0.01760  0.18263  0.36590  1.0000
  N   N6        1.0  0.98240  0.81737  0.63410  1.0000
  N   N7        1.0  0.99596  0.68665  0.15499  1.0000
  N   N8        1.0  0.00404  0.31336  0.84501  1.0000
  N   N9        1.0  0.52103  0.60907  0.74269  1.0000
  N   N10       1.0  0.47898  0.39093  0.25731  1.0000
  N   N11       1.0  0.33552  0.50110  0.59270  1.0000
  N   N12       1.0  0.66448  0.49890  0.40730  1.0000
  N   N13       1.0  0.46707  0.83070  0.61795  1.0000
  N   N14       1.0  0.53292  0.16931  0.38205  1.0000
  N   N15       1.0  0.50509  0.33639  0.83305  1.0000
  N   N16       1.0  0.49491  0.66360  0.16695  1.0000
  O   O1        1.0  0.11377  0.15410  0.44788  1.0000
  O   O2        1.0  0.88623  0.84590  0.55212  1.0000
  O   O3        1.0  0.90019  0.06624  0.31100  1.0000
  O   O4        1.0  0.09980  0.93376  0.68899  1.0000
  O   O5        1.0  0.87811  0.61432  0.08022  1.0000
  O   O6        1.0  0.12189  0.38569  0.91978  1.0000
  O   O7        1.0  0.08055  0.84493  0.15903  1.0000
  O   O8        1.0  0.91946  0.15507  0.84097  1.0000
  O   O9        1.0  0.57729  0.95006  0.67473  1.0000
  O   O10       1.0  0.42271  0.04994  0.32527  1.0000
  O   O11       1.0  0.37104  0.85431  0.53532  1.0000
  O   O12       1.0  0.62894  0.14570  0.46468  1.0000
  O   O13       1.0  0.43257  0.17569  0.83463  1.0000
  O   O14       1.0  0.56743  0.82430  0.16537  1.0000
  O   O15       1.0  0.61821  0.42539  0.90549  1.0000
  O   O16       1.0  0.38179  0.57460  0.09451  1.0000
  O   O17       1.0  0.70960  0.19904  0.06970  1.0000
  O   O18       1.0  0.29040  0.80096  0.93031  1.0000
