data_image0
_chemical_formula_structural       K2H2C6N8O8
_chemical_formula_sum              "K2 H2 C6 N8 O8"
_cell_length_a       6.98154
_cell_length_b       6.78219
_cell_length_c       8.07343
_cell_angle_alpha    99.2383
_cell_angle_beta     97.6292
_cell_angle_gamma    115.519

_space_group_name_H-M_alt    "P 1"
_space_group_IT_number       1

loop_
  _space_group_symop_operation_xyz
  'x, y, z'

loop_
  _atom_site_type_symbol
  _atom_site_label
  _atom_site_symmetry_multiplicity
  _atom_site_fract_x
  _atom_site_fract_y
  _atom_site_fract_z
  _atom_site_occupancy
  K   K1        1.0  0.98215  0.20016  0.32421  1.0000
  K   K2        1.0  0.01781  0.79988  0.67579  1.0000
  H   H1        1.0  0.48470  0.78388  0.87033  1.0000
  H   H2        1.0  0.51531  0.21612  0.12967  1.0000
  C   C1        1.0  0.43475  0.69278  0.23830  1.0000
  C   C2        1.0  0.56525  0.30722  0.76170  1.0000
  C   C3        1.0  0.25715  0.52067  0.98898  1.0000
  C   C4        1.0  0.74286  0.47932  0.01102  1.0000
  C   C5        1.0  0.43736  0.72152  0.98179  1.0000
  C   C6        1.0  0.56265  0.27848  0.01821  1.0000
  N   N1        1.0  0.25643  0.50322  0.15314  1.0000
  N   N2        1.0  0.74356  0.49678  0.84686  1.0000
  N   N3        1.0  0.55211  0.83056  0.14402  1.0000
  N   N4        1.0  0.44790  0.16944  0.85599  1.0000
  N   N5        1.0  0.50095  0.74538  0.42154  1.0000
  N   N6        1.0  0.49905  0.25462  0.57846  1.0000
  N   N7        1.0  0.09761  0.34666  0.84916  1.0000
  N   N8        1.0  0.90240  0.65334  0.15085  1.0000
  O   O1        1.0  0.09626  0.38489  0.70209  1.0000
  O   O2        1.0  0.90374  0.61509  0.29791  1.0000
  O   O3        1.0  0.96983  0.16594  0.87764  1.0000
  O   O4        1.0  0.03018  0.83406  0.12238  1.0000
  O   O5        1.0  0.68708  0.90297  0.49266  1.0000
  O   O6        1.0  0.31293  0.09703  0.50734  1.0000
  O   O7        1.0  0.37226  0.63171  0.50279  1.0000
  O   O8        1.0  0.62774  0.36829  0.49721  1.0000
