data_image0
_chemical_formula_structural       U2H34C20N4O18
_chemical_formula_sum              "U2 H34 C20 N4 O18"
_cell_length_a       8.47984
_cell_length_b       8.59558
_cell_length_c       10.7941
_cell_angle_alpha    72.5746
_cell_angle_beta     75.919
_cell_angle_gamma    79.6803

_space_group_name_H-M_alt    "P 1"
_space_group_IT_number       1

loop_
  _space_group_symop_operation_xyz
  'x, y, z'

loop_
  _atom_site_type_symbol
  _atom_site_label
  _atom_site_symmetry_multiplicity
  _atom_site_fract_x
  _atom_site_fract_y
  _atom_site_fract_z
  _atom_site_occupancy
  U   U1        1.0  0.81682  0.55945  0.78169  1.0000
  U   U2        1.0  0.18316  0.44055  0.21831  1.0000
  H   H1        1.0  0.73798  0.71129  0.98666  1.0000
  H   H2        1.0  0.26201  0.28871  0.01334  1.0000
  H   H3        1.0  0.57238  0.64191  0.00116  1.0000
  H   H4        1.0  0.42762  0.35809  0.99884  1.0000
  H   H5        1.0  0.59916  0.08021  0.23785  1.0000
  H   H6        1.0  0.40084  0.91979  0.76214  1.0000
  H   H7        1.0  0.81097  0.16635  0.55254  1.0000
  H   H8        1.0  0.18903  0.83365  0.44746  1.0000
  H   H9        1.0  0.68556  0.35649  0.52819  1.0000
  H   H10       1.0  0.31444  0.64351  0.47181  1.0000
  H   H11       1.0  0.54116  0.24179  0.39088  1.0000
  H   H12       1.0  0.45884  0.75821  0.60912  1.0000
  H   H13       1.0  0.74008  0.29689  0.32436  1.0000
  H   H14       1.0  0.25992  0.70311  0.67564  1.0000
  H   H15       1.0  0.85562  0.99614  0.39763  1.0000
  H   H16       1.0  0.14438  0.00386  0.60237  1.0000
  H   H17       1.0  0.65354  0.94536  0.46480  1.0000
  H   H18       1.0  0.34646  0.05464  0.53520  1.0000
  H   H19       1.0  0.84721  0.78985  0.25793  1.0000
  H   H20       1.0  0.15279  0.21015  0.74207  1.0000
  H   H21       1.0  0.71848  0.86604  0.14076  1.0000
  H   H22       1.0  0.28152  0.13396  0.85924  1.0000
  H   H23       1.0  0.40463  0.35966  0.68795  1.0000
  H   H24       1.0  0.59537  0.64034  0.31205  1.0000
  H   H25       1.0  0.37988  0.28480  0.55853  1.0000
  H   H26       1.0  0.62012  0.71521  0.44147  1.0000
  H   H27       1.0  0.52742  0.12142  0.85775  1.0000
  H   H28       1.0  0.47258  0.87858  0.14225  1.0000
  H   H29       1.0  0.70964  0.20251  0.77077  1.0000
  H   H30       1.0  0.29036  0.79749  0.22923  1.0000
  H   H31       1.0  0.93329  0.02993  0.10733  1.0000
  H   H32       1.0  0.06672  0.97007  0.89268  1.0000
  H   H33       1.0  0.88843  0.19770  0.17805  1.0000
  H   H34       1.0  0.11157  0.80230  0.82195  1.0000
  C   C1        1.0  0.68874  0.22438  0.53561  1.0000
  C   C2        1.0  0.31126  0.77562  0.46439  1.0000
  C   C3        1.0  0.66888  0.20730  0.40341  1.0000
  C   C4        1.0  0.33112  0.79270  0.59659  1.0000
  C   C5        1.0  0.72732  0.03452  0.38885  1.0000
  C   C6        1.0  0.27268  0.96548  0.61115  1.0000
  C   C7        1.0  0.72523  0.85062  0.24397  1.0000
  C   C8        1.0  0.27477  0.14938  0.75603  1.0000
  C   C9        1.0  0.40807  0.24593  0.65813  1.0000
  C   C10       1.0  0.59192  0.75407  0.34187  1.0000
  C   C11       1.0  0.62939  0.11312  0.77389  1.0000
  C   C12       1.0  0.37061  0.88688  0.22611  1.0000
  C   C13       1.0  0.71866  0.94206  0.81676  1.0000
  C   C14       1.0  0.28134  0.05793  0.18325  1.0000
  C   C15       1.0  0.83387  0.11586  0.14364  1.0000
  C   C16       1.0  0.16613  0.88414  0.85636  1.0000
  C   C17       1.0  0.74682  0.22244  0.03418  1.0000
  C   C18       1.0  0.25319  0.77757  0.96581  1.0000
  C   C19       1.0  0.98359  0.59213  0.46735  1.0000
  C   C20       1.0  0.01642  0.40786  0.53264  1.0000
  N   N1        1.0  0.56875  0.14880  0.65153  1.0000
  N   N2        1.0  0.43125  0.85120  0.34847  1.0000
  N   N3        1.0  0.71401  0.02285  0.25557  1.0000
  N   N4        1.0  0.28600  0.97715  0.74443  1.0000
  O   O1        1.0  0.01418  0.59371  0.79913  1.0000
  O   O2        1.0  0.98583  0.40629  0.20088  1.0000
  O   O3        1.0  0.62243  0.52699  0.75736  1.0000
  O   O4        1.0  0.37758  0.47300  0.24264  1.0000
  O   O5        1.0  0.73335  0.84250  0.74488  1.0000
  O   O6        1.0  0.26665  0.15750  0.25512  1.0000
  O   O7        1.0  0.76850  0.90466  0.92423  1.0000
  O   O8        1.0  0.23150  0.09534  0.07577  1.0000
  O   O9        1.0  0.84204  0.29877  0.93071  1.0000
  O   O10       1.0  0.15796  0.70124  0.06929  1.0000
  O   O11       1.0  0.59417  0.23139  0.05545  1.0000
  O   O12       1.0  0.40583  0.76861  0.94454  1.0000
  O   O13       1.0  0.90135  0.67983  0.54162  1.0000
  O   O14       1.0  0.09864  0.32017  0.45838  1.0000
  O   O15       1.0  0.04172  0.64046  0.34441  1.0000
  O   O16       1.0  0.95828  0.35954  0.65560  1.0000
  O   O17       1.0  0.69203  0.60611  0.99631  1.0000
  O   O18       1.0  0.30797  0.39389  0.00369  1.0000
