data_image0
_chemical_formula_structural       Zn4H48C72N4O16
_chemical_formula_sum              "Zn4 H48 C72 N4 O16"
_cell_length_a       10.3585
_cell_length_b       10.3327
_cell_length_c       15.234
_cell_angle_alpha    75.5004
_cell_angle_beta     75.5373
_cell_angle_gamma    81.7327

_space_group_name_H-M_alt    "P 1"
_space_group_IT_number       1

loop_
  _space_group_symop_operation_xyz
  'x, y, z'

loop_
  _atom_site_type_symbol
  _atom_site_label
  _atom_site_symmetry_multiplicity
  _atom_site_fract_x
  _atom_site_fract_y
  _atom_site_fract_z
  _atom_site_occupancy
  Zn  Zn1       1.0  0.48386  0.17868  0.97441  1.0000
  Zn  Zn2       1.0  0.82144  0.51565  0.52558  1.0000
  Zn  Zn3       1.0  0.51614  0.82132  0.02559  1.0000
  Zn  Zn4       1.0  0.17856  0.48435  0.47442  1.0000
  H   H1        1.0  0.56232  0.40754  0.82800  1.0000
  H   H2        1.0  0.59269  0.43776  0.67196  1.0000
  H   H3        1.0  0.43768  0.59245  0.17199  1.0000
  H   H4        1.0  0.40731  0.56224  0.32804  1.0000
  H   H5        1.0  0.72793  0.57288  0.78514  1.0000
  H   H6        1.0  0.42722  0.27229  0.71473  1.0000
  H   H7        1.0  0.27208  0.42712  0.21486  1.0000
  H   H8        1.0  0.57278  0.72771  0.28527  1.0000
  H   H9        1.0  0.77730  0.45401  0.07000  1.0000
  H   H10       1.0  0.54586  0.22257  0.43000  1.0000
  H   H11       1.0  0.22270  0.54600  0.93000  1.0000
  H   H12       1.0  0.45415  0.77744  0.57000  1.0000
  H   H13       1.0  0.61298  0.28594  0.09839  1.0000
  H   H14       1.0  0.71396  0.38679  0.40171  1.0000
  H   H15       1.0  0.38702  0.71406  0.90161  1.0000
  H   H16       1.0  0.28604  0.61321  0.59829  1.0000
  H   H17       1.0  0.90985  0.63419  0.96014  1.0000
  H   H18       1.0  0.36575  0.09005  0.53982  1.0000
  H   H19       1.0  0.09015  0.36581  0.03986  1.0000
  H   H20       1.0  0.63425  0.90995  0.46018  1.0000
  H   H21       1.0  0.91594  0.64087  0.75561  1.0000
  H   H22       1.0  0.35918  0.08402  0.74433  1.0000
  H   H23       1.0  0.08406  0.35913  0.24439  1.0000
  H   H24       1.0  0.64083  0.91598  0.25567  1.0000
  H   H25       1.0  0.06180  0.76881  0.63794  1.0000
  H   H26       1.0  0.23113  0.93813  0.86207  1.0000
  H   H27       1.0  0.93820  0.23119  0.36206  1.0000
  H   H28       1.0  0.76887  0.06187  0.13793  1.0000
  H   H29       1.0  0.06422  0.77137  0.92020  1.0000
  H   H30       1.0  0.22856  0.93573  0.57981  1.0000
  H   H31       1.0  0.93578  0.22863  0.07980  1.0000
  H   H32       1.0  0.77144  0.06427  0.42019  1.0000
  H   H33       1.0  0.75028  0.17883  0.71271  1.0000
  H   H34       1.0  0.82177  0.24983  0.78738  1.0000
  H   H35       1.0  0.24972  0.82117  0.28729  1.0000
  H   H36       1.0  0.17823  0.75017  0.21262  1.0000
  H   H37       1.0  0.89348  0.14723  0.56267  1.0000
  H   H38       1.0  0.85328  0.10646  0.93757  1.0000
  H   H39       1.0  0.10651  0.85277  0.43733  1.0000
  H   H40       1.0  0.14672  0.89353  0.06243  1.0000
  H   H41       1.0  0.89464  0.93142  0.51321  1.0000
  H   H42       1.0  0.06861  0.10521  0.98700  1.0000
  H   H43       1.0  0.10536  0.06858  0.48678  1.0000
  H   H44       1.0  0.93139  0.89479  0.01300  1.0000
  H   H45       1.0  0.60515  0.79122  0.76356  1.0000
  H   H46       1.0  0.20862  0.39491  0.73630  1.0000
  H   H47       1.0  0.39485  0.20877  0.23644  1.0000
  H   H48       1.0  0.79138  0.60509  0.26371  1.0000
  C   C1        1.0  0.61583  0.41935  0.87818  1.0000
  C   C2        1.0  0.58082  0.38415  0.62181  1.0000
  C   C3        1.0  0.38417  0.58065  0.12182  1.0000
  C   C4        1.0  0.41918  0.61585  0.37819  1.0000
  C   C5        1.0  0.70929  0.51171  0.85570  1.0000
  C   C6        1.0  0.48838  0.29079  0.64423  1.0000
  C   C7        1.0  0.29071  0.48829  0.14430  1.0000
  C   C8        1.0  0.51162  0.70921  0.35577  1.0000
  C   C9        1.0  0.77552  0.52451  0.92300  1.0000
  C   C10       1.0  0.47549  0.22444  0.57695  1.0000
  C   C11       1.0  0.22448  0.47549  0.07700  1.0000
  C   C12       1.0  0.52451  0.77556  0.42305  1.0000
  C   C13       1.0  0.73505  0.44509  0.01326  1.0000
  C   C14       1.0  0.55485  0.26483  0.48674  1.0000
  C   C15       1.0  0.26495  0.55491  0.98674  1.0000
  C   C16       1.0  0.44515  0.73517  0.51326  1.0000
  C   C17       1.0  0.64225  0.35237  0.03022  1.0000
  C   C18       1.0  0.64762  0.35756  0.46983  1.0000
  C   C19       1.0  0.35776  0.64763  0.96978  1.0000
  C   C20       1.0  0.35238  0.64244  0.53017  1.0000
  C   C21       1.0  0.88112  0.61357  0.90103  1.0000
  C   C22       1.0  0.38641  0.11881  0.59892  1.0000
  C   C23       1.0  0.11889  0.38643  0.09897  1.0000
  C   C24       1.0  0.61359  0.88119  0.40108  1.0000
  C   C25       1.0  0.94452  0.66748  0.81278  1.0000
  C   C26       1.0  0.33251  0.05541  0.68718  1.0000
  C   C27       1.0  0.05548  0.33252  0.18722  1.0000
  C   C28       1.0  0.66750  0.94459  0.31281  1.0000
  C   C29       1.0  0.04805  0.75964  0.78326  1.0000
  C   C30       1.0  0.24031  0.95187  0.71675  1.0000
  C   C31       1.0  0.95195  0.24036  0.21674  1.0000
  C   C32       1.0  0.75969  0.04813  0.28325  1.0000
  C   C33       1.0  0.09882  0.80681  0.68695  1.0000
  C   C34       1.0  0.19313  0.90111  0.81305  1.0000
  C   C35       1.0  0.90119  0.19319  0.31305  1.0000
  C   C36       1.0  0.80687  0.09889  0.18695  1.0000
  C   C37       1.0  0.09921  0.80751  0.84555  1.0000
  C   C38       1.0  0.19242  0.90072  0.65446  1.0000
  C   C39       1.0  0.90079  0.19249  0.15445  1.0000
  C   C40       1.0  0.80758  0.09928  0.34554  1.0000
  C   C41       1.0  0.67117  0.98592  0.74954  1.0000
  C   C42       1.0  0.01430  0.32890  0.75047  1.0000
  C   C43       1.0  0.32882  0.01408  0.25046  1.0000
  C   C44       1.0  0.98570  0.67110  0.24953  1.0000
  C   C45       1.0  0.75081  0.08640  0.69115  1.0000
  C   C46       1.0  0.91400  0.24925  0.80894  1.0000
  C   C47       1.0  0.24919  0.91360  0.30885  1.0000
  C   C48       1.0  0.08599  0.75074  0.19106  1.0000
  C   C49       1.0  0.83058  0.06856  0.60600  1.0000
  C   C50       1.0  0.93182  0.16941  0.89416  1.0000
  C   C51       1.0  0.16942  0.93144  0.39400  1.0000
  C   C52       1.0  0.06818  0.83059  0.10584  1.0000
  C   C53       1.0  0.83077  0.94980  0.57823  1.0000
  C   C54       1.0  0.05034  0.16919  0.92192  1.0000
  C   C55       1.0  0.16922  0.05020  0.42177  1.0000
  C   C56       1.0  0.94966  0.83081  0.07808  1.0000
  C   C57       1.0  0.74802  0.85041  0.63431  1.0000
  C   C58       1.0  0.14959  0.25196  0.86574  1.0000
  C   C59       1.0  0.25197  0.14959  0.36569  1.0000
  C   C60       1.0  0.85041  0.74804  0.13427  1.0000
  C   C61       1.0  0.66826  0.86908  0.71976  1.0000
  C   C62       1.0  0.13092  0.33178  0.78020  1.0000
  C   C63       1.0  0.33173  0.13092  0.28024  1.0000
  C   C64       1.0  0.86908  0.66822  0.21980  1.0000
  C   C65       1.0  0.59367  0.00108  0.84397  1.0000
  C   C66       1.0  0.99913  0.40644  0.65597  1.0000
  C   C67       1.0  0.40633  0.99892  0.15603  1.0000
  C   C68       1.0  0.00087  0.59355  0.34403  1.0000
  C   C69       1.0  0.74769  0.72199  0.60578  1.0000
  C   C70       1.0  0.27784  0.25230  0.89416  1.0000
  C   C71       1.0  0.25231  0.27801  0.39422  1.0000
  C   C72       1.0  0.72217  0.74770  0.10584  1.0000
  N   N1        1.0  0.58450  0.33740  0.96350  1.0000
  N   N2        1.0  0.66275  0.41529  0.53657  1.0000
  N   N3        1.0  0.41550  0.66260  0.03650  1.0000
  N   N4        1.0  0.33725  0.58471  0.46343  1.0000
  O   O1        1.0  0.60858  0.10440  0.87082  1.0000
  O   O2        1.0  0.89612  0.39123  0.62914  1.0000
  O   O3        1.0  0.39142  0.89560  0.12918  1.0000
  O   O4        1.0  0.10388  0.60877  0.37086  1.0000
  O   O5        1.0  0.51803  0.90897  0.89235  1.0000
  O   O6        1.0  0.09091  0.48237  0.60756  1.0000
  O   O7        1.0  0.48197  0.09103  0.10765  1.0000
  O   O8        1.0  0.90909  0.51763  0.39244  1.0000
  O   O9        1.0  0.66681  0.63790  0.65389  1.0000
  O   O10       1.0  0.36167  0.33338  0.84592  1.0000
  O   O11       1.0  0.33319  0.36210  0.34611  1.0000
  O   O12       1.0  0.63833  0.66662  0.15408  1.0000
  O   O13       1.0  0.83522  0.70262  0.53153  1.0000
  O   O14       1.0  0.29736  0.16464  0.96845  1.0000
  O   O15       1.0  0.16478  0.29738  0.46847  1.0000
  O   O16       1.0  0.70265  0.83537  0.03155  1.0000
