data_image0
_chemical_formula_structural       Co2H20C28N4O12
_chemical_formula_sum              "Co2 H20 C28 N4 O12"
_cell_length_a       7.31718
_cell_length_b       9.46901
_cell_length_c       10.9549
_cell_angle_alpha    67.821
_cell_angle_beta     86.6532
_cell_angle_gamma    83.595

_space_group_name_H-M_alt    "P 1"
_space_group_IT_number       1

loop_
  _space_group_symop_operation_xyz
  'x, y, z'

loop_
  _atom_site_type_symbol
  _atom_site_label
  _atom_site_symmetry_multiplicity
  _atom_site_fract_x
  _atom_site_fract_y
  _atom_site_fract_z
  _atom_site_occupancy
  Co  Co1       1.0  0.61484  0.78980  0.60115  1.0000
  Co  Co2       1.0  0.38492  0.21027  0.39872  1.0000
  H   H1        1.0  0.24905  0.36284  0.95658  1.0000
  H   H2        1.0  0.75112  0.63712  0.04346  1.0000
  H   H3        1.0  0.35614  0.93442  0.89890  1.0000
  H   H4        1.0  0.64382  0.06557  0.10105  1.0000
  H   H5        1.0  0.55822  0.34499  0.61466  1.0000
  H   H6        1.0  0.44180  0.65498  0.38531  1.0000
  H   H7        1.0  0.98960  0.13077  0.24174  1.0000
  H   H8        1.0  0.01021  0.86925  0.75812  1.0000
  H   H9        1.0  0.79806  0.05749  0.44195  1.0000
  H   H10       1.0  0.20179  0.94257  0.55794  1.0000
  H   H11       1.0  0.88575  0.59594  0.50357  1.0000
  H   H12       1.0  0.11418  0.40409  0.49641  1.0000
  H   H13       1.0  0.08666  0.65114  0.29789  1.0000
  H   H14       1.0  0.91336  0.34882  0.70216  1.0000
  H   H15       1.0  0.15952  0.14912  0.10720  1.0000
  H   H16       1.0  0.84065  0.85081  0.89285  1.0000
  H   H17       1.0  0.88784  0.54412  0.84254  1.0000
  H   H18       1.0  0.11194  0.45643  0.15693  1.0000
  H   H19       1.0  0.07663  0.61691  0.80629  1.0000
  H   H20       1.0  0.92367  0.38300  0.19417  1.0000
  C   C1        1.0  0.43460  0.53718  0.73796  1.0000
  C   C2        1.0  0.56553  0.46277  0.26206  1.0000
  C   C3        1.0  0.40781  0.37095  0.78184  1.0000
  C   C4        1.0  0.59232  0.62901  0.21818  1.0000
  C   C5        1.0  0.30965  0.29820  0.89762  1.0000
  C   C6        1.0  0.69046  0.70175  0.10240  1.0000
  C   C7        1.0  0.29163  0.14031  0.94116  1.0000
  C   C8        1.0  0.70841  0.85965  0.05883  1.0000
  C   C9        1.0  0.36933  0.05627  0.86622  1.0000
  C   C10       1.0  0.63066  0.94371  0.13375  1.0000
  C   C11       1.0  0.46146  0.13229  0.74759  1.0000
  C   C12       1.0  0.53852  0.86768  0.25237  1.0000
  C   C13       1.0  0.48231  0.28855  0.70543  1.0000
  C   C14       1.0  0.51774  0.71142  0.29456  1.0000
  C   C15       1.0  0.15447  0.92715  0.12155  1.0000
  C   C16       1.0  0.84552  0.07282  0.87843  1.0000
  C   C17       1.0  0.05250  0.89512  0.25081  1.0000
  C   C18       1.0  0.94746  0.10488  0.74916  1.0000
  C   C19       1.0  0.97453  0.00961  0.29461  1.0000
  C   C20       1.0  0.02536  0.99040  0.70532  1.0000
  C   C21       1.0  0.86726  0.97016  0.40871  1.0000
  C   C22       1.0  0.13262  0.02988  0.59121  1.0000
  C   C23       1.0  0.91612  0.71192  0.44219  1.0000
  C   C24       1.0  0.08383  0.28810  0.55779  1.0000
  C   C25       1.0  0.02528  0.74280  0.32887  1.0000
  C   C26       1.0  0.97470  0.25721  0.67114  1.0000
  C   C27       1.0  0.53868  0.04678  0.66461  1.0000
  C   C28       1.0  0.46120  0.95321  0.33531  1.0000
  N   N1        1.0  0.19708  0.07514  0.06041  1.0000
  N   N2        1.0  0.80296  0.92482  0.93959  1.0000
  N   N3        1.0  0.83409  0.82396  0.48075  1.0000
  N   N4        1.0  0.16581  0.17609  0.51920  1.0000
  O   O1        1.0  0.31226  0.63241  0.75408  1.0000
  O   O2        1.0  0.68784  0.36755  0.24587  1.0000
  O   O3        1.0  0.59404  0.57321  0.68119  1.0000
  O   O4        1.0  0.40612  0.42679  0.31884  1.0000
  O   O5        1.0  0.56736  0.11987  0.54086  1.0000
  O   O6        1.0  0.43242  0.88009  0.45906  1.0000
  O   O7        1.0  0.57658  0.90167  0.71874  1.0000
  O   O8        1.0  0.42330  0.09830  0.28120  1.0000
  O   O9        1.0  0.19120  0.82516  0.07656  1.0000
  O   O10       1.0  0.80876  0.17482  0.92342  1.0000
  O   O11       1.0  0.94439  0.63794  0.82628  1.0000
  O   O12       1.0  0.05609  0.36196  0.17466  1.0000
