data_image0
_chemical_formula_structural       Cu2H16C32N20O2
_chemical_formula_sum              "Cu2 H16 C32 N20 O2"
_cell_length_a       7.90087
_cell_length_b       8.99763
_cell_length_c       13.1706
_cell_angle_alpha    86.7744
_cell_angle_beta     96.5752
_cell_angle_gamma    76.4545

_space_group_name_H-M_alt    "P 1"
_space_group_IT_number       1

loop_
  _space_group_symop_operation_xyz
  'x, y, z'

loop_
  _atom_site_type_symbol
  _atom_site_label
  _atom_site_symmetry_multiplicity
  _atom_site_fract_x
  _atom_site_fract_y
  _atom_site_fract_z
  _atom_site_occupancy
  Cu  Cu1       1.0  0.27321  0.11538  0.74425  1.0000
  Cu  Cu2       1.0  0.72678  0.88462  0.25575  1.0000
  H   H1        1.0  0.46694  0.84380  0.66346  1.0000
  H   H2        1.0  0.53305  0.15620  0.33654  1.0000
  H   H3        1.0  0.23428  0.91946  0.92756  1.0000
  H   H4        1.0  0.76573  0.08054  0.07244  1.0000
  H   H5        1.0  0.30328  0.63803  0.98174  1.0000
  H   H6        1.0  0.69673  0.36197  0.01826  1.0000
  H   H7        1.0  0.47045  0.45128  0.87068  1.0000
  H   H8        1.0  0.52957  0.54872  0.12932  1.0000
  H   H9        1.0  0.92090  0.25817  0.46132  1.0000
  H   H10       1.0  0.07911  0.74182  0.53868  1.0000
  H   H11       1.0  0.01864  0.30907  0.29198  1.0000
  H   H12       1.0  0.98137  0.69092  0.70802  1.0000
  H   H13       1.0  0.92789  0.58124  0.20592  1.0000
  H   H14       1.0  0.07211  0.41875  0.79408  1.0000
  H   H15       1.0  0.65577  0.74166  0.44241  1.0000
  H   H16       1.0  0.34423  0.25833  0.55759  1.0000
  C   C1        1.0  0.43720  0.79195  0.73396  1.0000
  C   C2        1.0  0.56279  0.20806  0.26603  1.0000
  C   C3        1.0  0.30447  0.83474  0.88160  1.0000
  C   C4        1.0  0.69552  0.16529  0.11839  1.0000
  C   C5        1.0  0.34589  0.67776  0.91154  1.0000
  C   C6        1.0  0.65412  0.32225  0.08846  1.0000
  C   C7        1.0  0.43945  0.57495  0.85110  1.0000
  C   C8        1.0  0.56055  0.42507  0.14890  1.0000
  C   C9        1.0  0.48943  0.63361  0.76111  1.0000
  C   C10       1.0  0.51059  0.36638  0.23890  1.0000
  C   C11       1.0  0.59003  0.53405  0.69521  1.0000
  C   C12       1.0  0.40997  0.46596  0.30479  1.0000
  C   C13       1.0  0.71706  0.47203  0.56288  1.0000
  C   C14       1.0  0.28296  0.52797  0.43712  1.0000
  C   C15       1.0  0.77758  0.49467  0.46471  1.0000
  C   C16       1.0  0.22242  0.50532  0.53529  1.0000
  C   C17       1.0  0.88194  0.37251  0.42116  1.0000
  C   C18       1.0  0.11805  0.62748  0.57884  1.0000
  C   C19       1.0  0.93725  0.40194  0.32716  1.0000
  C   C20       1.0  0.06276  0.59805  0.67284  1.0000
  C   C21       1.0  0.88766  0.55054  0.27915  1.0000
  C   C22       1.0  0.11233  0.44945  0.72085  1.0000
  C   C23       1.0  0.73559  0.64159  0.41281  1.0000
  C   C24       1.0  0.26440  0.35841  0.58719  1.0000
  C   C25       1.0  0.99375  0.02027  0.62931  1.0000
  C   C26       1.0  0.00626  0.97973  0.37070  1.0000
  C   C27       1.0  0.69872  0.01774  0.62442  1.0000
  C   C28       1.0  0.30128  0.98226  0.37559  1.0000
  C   C29       1.0  0.90506  0.13282  0.85955  1.0000
  C   C30       1.0  0.09493  0.86716  0.14045  1.0000
  C   C31       1.0  0.61000  0.12783  0.86011  1.0000
  C   C32       1.0  0.39000  0.87216  0.13989  1.0000
  N   N1        1.0  0.34788  0.88914  0.79365  1.0000
  N   N2        1.0  0.65213  0.11086  0.20634  1.0000
  N   N3        1.0  0.65968  0.38597  0.70878  1.0000
  N   N4        1.0  0.34032  0.61404  0.29122  1.0000
  N   N5        1.0  0.74113  0.34577  0.62300  1.0000
  N   N6        1.0  0.25887  0.65423  0.37700  1.0000
  N   N7        1.0  0.78934  0.66701  0.32203  1.0000
  N   N8        1.0  0.21066  0.33298  0.67797  1.0000
  N   N9        1.0  0.12717  0.05894  0.62454  1.0000
  N   N10       1.0  0.87282  0.94107  0.37546  1.0000
  N   N11       1.0  0.86674  0.95630  0.63458  1.0000
  N   N12       1.0  0.13327  0.04369  0.36542  1.0000
  N   N13       1.0  0.54447  0.05487  0.61899  1.0000
  N   N14       1.0  0.45553  0.94513  0.38102  1.0000
  N   N15       1.0  0.03635  0.16597  0.84371  1.0000
  N   N16       1.0  0.96364  0.83401  0.15629  1.0000
  N   N17       1.0  0.77580  0.08032  0.88667  1.0000
  N   N18       1.0  0.22418  0.91966  0.11332  1.0000
  N   N19       1.0  0.45387  0.16096  0.84810  1.0000
  N   N20       1.0  0.54611  0.83906  0.15190  1.0000
  O   O1        1.0  0.62158  0.59701  0.60390  1.0000
  O   O2        1.0  0.37844  0.40299  0.39610  1.0000
