data_image0
_chemical_formula_structural       Cd4H32C64N40O4
_chemical_formula_sum              "Cd4 H32 C64 N40 O4"
_cell_length_a       8.03092
_cell_length_b       14.8141
_cell_length_c       15.45
_cell_angle_alpha    90
_cell_angle_beta     97.0743
_cell_angle_gamma    90

_space_group_name_H-M_alt    "P 1"
_space_group_IT_number       1

loop_
  _space_group_symop_operation_xyz
  'x, y, z'

loop_
  _atom_site_type_symbol
  _atom_site_label
  _atom_site_symmetry_multiplicity
  _atom_site_fract_x
  _atom_site_fract_y
  _atom_site_fract_z
  _atom_site_occupancy
  Cd  Cd1       1.0  0.50000  0.50000  0.00000  1.0000
  Cd  Cd2       1.0  0.00000  1.00000  0.50000  1.0000
  Cd  Cd3       1.0  0.99999  0.00001  1.00000  1.0000
  Cd  Cd4       1.0  0.50000  0.50000  0.50000  1.0000
  H   H1        1.0  0.64371  0.59610  0.17748  1.0000
  H   H2        1.0  0.85629  0.09609  0.32252  1.0000
  H   H3        1.0  0.35629  0.40390  0.82252  1.0000
  H   H4        1.0  0.14371  0.90390  0.67748  1.0000
  H   H5        1.0  0.89231  0.68157  0.24932  1.0000
  H   H6        1.0  0.60768  0.18157  0.25068  1.0000
  H   H7        1.0  0.10769  0.31842  0.75068  1.0000
  H   H8        1.0  0.39231  0.81843  0.74932  1.0000
  H   H9        1.0  0.08124  0.68496  0.99885  1.0000
  H   H10       1.0  0.41877  0.18496  0.50116  1.0000
  H   H11       1.0  0.91877  0.31505  0.00116  1.0000
  H   H12       1.0  0.58125  0.81504  0.49885  1.0000
  H   H13       1.0  0.82394  0.60191  0.93769  1.0000
  H   H14       1.0  0.67607  0.10191  0.56232  1.0000
  H   H15       1.0  0.17607  0.39809  0.06232  1.0000
  H   H16       1.0  0.32395  0.89808  0.43768  1.0000
  H   H17       1.0  0.87766  0.97553  0.19429  1.0000
  H   H18       1.0  0.62234  0.47553  0.30570  1.0000
  H   H19       1.0  0.12234  0.02447  0.80570  1.0000
  H   H20       1.0  0.37767  0.52447  0.69429  1.0000
  H   H21       1.0  0.63593  0.90960  0.26073  1.0000
  H   H22       1.0  0.86408  0.40959  0.23927  1.0000
  H   H23       1.0  0.36408  0.09041  0.73927  1.0000
  H   H24       1.0  0.13593  0.59040  0.76073  1.0000
  H   H25       1.0  0.49814  0.76880  0.01692  1.0000
  H   H26       1.0  0.00186  0.26879  0.48307  1.0000
  H   H27       1.0  0.50186  0.23120  0.98307  1.0000
  H   H28       1.0  0.99813  0.73120  0.51692  1.0000
  H   H29       1.0  0.74327  0.84204  0.96040  1.0000
  H   H30       1.0  0.75674  0.34204  0.53960  1.0000
  H   H31       1.0  0.25674  0.15796  0.03960  1.0000
  H   H32       1.0  0.24326  0.65796  0.46040  1.0000
  C   C1        1.0  0.74449  0.61729  0.14069  1.0000
  C   C2        1.0  0.75550  0.11729  0.35931  1.0000
  C   C3        1.0  0.25550  0.38272  0.85931  1.0000
  C   C4        1.0  0.24450  0.88271  0.64069  1.0000
  C   C5        1.0  0.88230  0.66470  0.18031  1.0000
  C   C6        1.0  0.61770  0.16469  0.31970  1.0000
  C   C7        1.0  0.11770  0.33530  0.81970  1.0000
  C   C8        1.0  0.38230  0.83530  0.68031  1.0000
  C   C9        1.0  0.00749  0.69004  0.12945  1.0000
  C   C10       1.0  0.49251  0.19004  0.37056  1.0000
  C   C11       1.0  0.99251  0.30996  0.87056  1.0000
  C   C12       1.0  0.50749  0.80996  0.62945  1.0000
  C   C13       1.0  0.98701  0.66736  0.04066  1.0000
  C   C14       1.0  0.51300  0.16736  0.45935  1.0000
  C   C15       1.0  0.01300  0.33264  0.95935  1.0000
  C   C16       1.0  0.48701  0.83264  0.54066  1.0000
  C   C17       1.0  0.84432  0.62018  0.00654  1.0000
  C   C18       1.0  0.65569  0.12018  0.49347  1.0000
  C   C19       1.0  0.15569  0.37982  0.99347  1.0000
  C   C20       1.0  0.34432  0.87981  0.50654  1.0000
  C   C21       1.0  0.15638  0.73680  0.16916  1.0000
  C   C22       1.0  0.34363  0.23680  0.33085  1.0000
  C   C23       1.0  0.84363  0.26320  0.83085  1.0000
  C   C24       1.0  0.65638  0.76320  0.66916  1.0000
  C   C25       1.0  0.39835  0.79874  0.17620  1.0000
  C   C26       1.0  0.10165  0.29874  0.32380  1.0000
  C   C27       1.0  0.60165  0.20126  0.82380  1.0000
  C   C28       1.0  0.89836  0.70126  0.67620  1.0000
  C   C29       1.0  0.79006  0.92935  0.15734  1.0000
  C   C30       1.0  0.70994  0.42935  0.34265  1.0000
  C   C31       1.0  0.20993  0.07065  0.84265  1.0000
  C   C32       1.0  0.29007  0.57065  0.65734  1.0000
  C   C33       1.0  0.65629  0.89249  0.19434  1.0000
  C   C34       1.0  0.84372  0.39248  0.30565  1.0000
  C   C35       1.0  0.34371  0.10752  0.80565  1.0000
  C   C36       1.0  0.15629  0.60751  0.69434  1.0000
  C   C37       1.0  0.54615  0.83478  0.14317  1.0000
  C   C38       1.0  0.95385  0.33478  0.35683  1.0000
  C   C39       1.0  0.45385  0.16522  0.85683  1.0000
  C   C40       1.0  0.04615  0.66522  0.64317  1.0000
  C   C41       1.0  0.57831  0.81474  0.05807  1.0000
  C   C42       1.0  0.92170  0.31473  0.44193  1.0000
  C   C43       1.0  0.42169  0.18526  0.94193  1.0000
  C   C44       1.0  0.07831  0.68526  0.55807  1.0000
  C   C45       1.0  0.71481  0.85497  0.02656  1.0000
  C   C46       1.0  0.78519  0.35497  0.47344  1.0000
  C   C47       1.0  0.28519  0.14503  0.97344  1.0000
  C   C48       1.0  0.21481  0.64503  0.52656  1.0000
  C   C49       1.0  0.28876  0.53010  0.18009  1.0000
  C   C50       1.0  0.21123  0.03010  0.31991  1.0000
  C   C51       1.0  0.71123  0.46990  0.81991  1.0000
  C   C52       1.0  0.78877  0.96990  0.68009  1.0000
  C   C53       1.0  0.24565  0.49762  0.32086  1.0000
  C   C54       1.0  0.25435  0.99764  0.17914  1.0000
  C   C55       1.0  0.75435  0.50237  0.67914  1.0000
  C   C56       1.0  0.74565  0.00238  0.82086  1.0000
  C   C57       1.0  0.68566  0.30946  0.10527  1.0000
  C   C58       1.0  0.81432  0.80946  0.39474  1.0000
  C   C59       1.0  0.31432  0.69055  0.89474  1.0000
  C   C60       1.0  0.18568  0.19054  0.60527  1.0000
  C   C61       1.0  0.84353  0.17832  0.10477  1.0000
  C   C62       1.0  0.65645  0.67831  0.39523  1.0000
  C   C63       1.0  0.15644  0.82169  0.89524  1.0000
  C   C64       1.0  0.34354  0.32168  0.60477  1.0000
  N   N1        1.0  0.72542  0.59475  0.05561  1.0000
  N   N2        1.0  0.77458  0.09474  0.44439  1.0000
  N   N3        1.0  0.27458  0.40526  0.94439  1.0000
  N   N4        1.0  0.22542  0.90525  0.55561  1.0000
  N   N5        1.0  0.81793  0.91224  0.07481  1.0000
  N   N6        1.0  0.68208  0.41224  0.42518  1.0000
  N   N7        1.0  0.18207  0.08776  0.92518  1.0000
  N   N8        1.0  0.31793  0.58776  0.57481  1.0000
  N   N9        1.0  0.19690  0.76216  0.25063  1.0000
  N   N10       1.0  0.30310  0.26216  0.24938  1.0000
  N   N11       1.0  0.80310  0.23784  0.74938  1.0000
  N   N12       1.0  0.69690  0.73783  0.75063  1.0000
  N   N13       1.0  0.35380  0.80193  0.25524  1.0000
  N   N14       1.0  0.14621  0.30192  0.24476  1.0000
  N   N15       1.0  0.64620  0.19807  0.74476  1.0000
  N   N16       1.0  0.85380  0.69807  0.75524  1.0000
  N   N17       1.0  0.35990  0.53980  0.11826  1.0000
  N   N18       1.0  0.14010  0.03978  0.38174  1.0000
  N   N19       1.0  0.64009  0.46021  0.88174  1.0000
  N   N20       1.0  0.85991  0.96020  0.61826  1.0000
  N   N21       1.0  0.19727  0.52593  0.24293  1.0000
  N   N22       1.0  0.30272  0.02593  0.25707  1.0000
  N   N23       1.0  0.80272  0.47406  0.75707  1.0000
  N   N24       1.0  0.69729  0.97407  0.74292  1.0000
  N   N25       1.0  0.27411  0.47124  0.39341  1.0000
  N   N26       1.0  0.22589  0.97127  0.10658  1.0000
  N   N27       1.0  0.72590  0.52874  0.60659  1.0000
  N   N28       1.0  0.77410  0.02875  0.89341  1.0000
  N   N29       1.0  0.63308  0.38203  0.08584  1.0000
  N   N30       1.0  0.86691  0.88202  0.41416  1.0000
  N   N31       1.0  0.36692  0.61798  0.91416  1.0000
  N   N32       1.0  0.13309  0.11797  0.58584  1.0000
  N   N33       1.0  0.73292  0.23017  0.13330  1.0000
  N   N34       1.0  0.76705  0.73017  0.36671  1.0000
  N   N35       1.0  0.26705  0.76983  0.86671  1.0000
  N   N36       1.0  0.23293  0.26983  0.63330  1.0000
  N   N37       1.0  0.94239  0.12537  0.08541  1.0000
  N   N38       1.0  0.55758  0.62536  0.41459  1.0000
  N   N39       1.0  0.05756  0.87464  0.91459  1.0000
  N   N40       1.0  0.44241  0.37463  0.58541  1.0000
  O   O1        1.0  0.27932  0.75752  0.11862  1.0000
  O   O2        1.0  0.22068  0.25752  0.38139  1.0000
  O   O3        1.0  0.72068  0.24248  0.88139  1.0000
  O   O4        1.0  0.77932  0.74247  0.61862  1.0000
