data_image0
_chemical_formula_structural       Zn3H20C32N20Cl2O4
_chemical_formula_sum              "Zn3 H20 C32 N20 Cl2 O4"
_cell_length_a       7.44341
_cell_length_b       11.3128
_cell_length_c       13.1138
_cell_angle_alpha    65.9229
_cell_angle_beta     77.5625
_cell_angle_gamma    93.1268

_space_group_name_H-M_alt    "P 1"
_space_group_IT_number       1

loop_
  _space_group_symop_operation_xyz
  'x, y, z'

loop_
  _atom_site_type_symbol
  _atom_site_label
  _atom_site_symmetry_multiplicity
  _atom_site_fract_x
  _atom_site_fract_y
  _atom_site_fract_z
  _atom_site_occupancy
  Zn  Zn1       1.0  0.00000  0.00000  1.00000  1.0000
  Zn  Zn2       1.0  0.26755  0.17011  0.32955  1.0000
  Zn  Zn3       1.0  0.73245  0.82990  0.67044  1.0000
  H   H1        1.0  0.86827  0.77167  0.00490  1.0000
  H   H2        1.0  0.13173  0.22833  0.99510  1.0000
  H   H3        1.0  0.78803  0.88437  0.91738  1.0000
  H   H4        1.0  0.21198  0.11563  0.08262  1.0000
  H   H5        1.0  0.65543  0.22109  0.56446  1.0000
  H   H6        1.0  0.34455  0.77891  0.43554  1.0000
  H   H7        1.0  0.94689  0.13131  0.53198  1.0000
  H   H8        1.0  0.05309  0.86868  0.46803  1.0000
  H   H9        1.0  0.10563  0.38896  0.18254  1.0000
  H   H10       1.0  0.89436  0.61105  0.81747  1.0000
  H   H11       1.0  0.82623  0.49620  0.20080  1.0000
  H   H12       1.0  0.17377  0.50381  0.79920  1.0000
  H   H13       1.0  0.52528  0.74226  0.12961  1.0000
  H   H14       1.0  0.47473  0.25774  0.87039  1.0000
  H   H15       1.0  0.37252  0.91023  0.00319  1.0000
  H   H16       1.0  0.62749  0.08978  0.99681  1.0000
  H   H17       1.0  0.86325  0.77442  0.24813  1.0000
  H   H18       1.0  0.13675  0.22559  0.75187  1.0000
  H   H19       1.0  0.99003  0.59771  0.38761  1.0000
  H   H20       1.0  0.00997  0.40229  0.61239  1.0000
  C   C1        1.0  0.75107  0.26212  0.47848  1.0000
  C   C2        1.0  0.24892  0.73787  0.52153  1.0000
  C   C3        1.0  0.91367  0.21076  0.46036  1.0000
  C   C4        1.0  0.08631  0.78924  0.53965  1.0000
  C   C5        1.0  0.00246  0.35570  0.26546  1.0000
  C   C6        1.0  0.99754  0.64431  0.73455  1.0000
  C   C7        1.0  0.84530  0.41445  0.27640  1.0000
  C   C8        1.0  0.15469  0.58556  0.72360  1.0000
  C   C9        1.0  0.71494  0.36574  0.38453  1.0000
  C   C10       1.0  0.28504  0.63425  0.61548  1.0000
  C   C11       1.0  0.54430  0.42034  0.39754  1.0000
  C   C12       1.0  0.45569  0.57966  0.60246  1.0000
  C   C13       1.0  0.34598  0.54811  0.34576  1.0000
  C   C14       1.0  0.65401  0.45189  0.65424  1.0000
  C   C15       1.0  0.26857  0.65369  0.26955  1.0000
  C   C16       1.0  0.73143  0.34631  0.73045  1.0000
  C   C17       1.0  0.37785  0.74402  0.16065  1.0000
  C   C18       1.0  0.62215  0.25598  0.83935  1.0000
  C   C19       1.0  0.29383  0.83942  0.08944  1.0000
  C   C20       1.0  0.70618  0.16058  0.91056  1.0000
  C   C21       1.0  0.00895  0.76312  0.22582  1.0000
  C   C22       1.0  0.99106  0.23688  0.77417  1.0000
  C   C23       1.0  0.08014  0.66451  0.30316  1.0000
  C   C24       1.0  0.91986  0.33549  0.69683  1.0000
  C   C25       1.0  0.24606  0.97830  0.77457  1.0000
  C   C26       1.0  0.75394  0.02170  0.22543  1.0000
  C   C27       1.0  0.30134  0.02575  0.58168  1.0000
  C   C28       1.0  0.69866  0.97424  0.41832  1.0000
  C   C29       1.0  0.56746  0.35528  0.12620  1.0000
  C   C30       1.0  0.43256  0.64471  0.87379  1.0000
  C   C31       1.0  0.85605  0.37188  0.01118  1.0000
  C   C32       1.0  0.14397  0.62813  0.98882  1.0000
  N   N1        1.0  0.03591  0.25504  0.35567  1.0000
  N   N2        1.0  0.96408  0.74496  0.64433  1.0000
  N   N3        1.0  0.39601  0.37779  0.48580  1.0000
  N   N4        1.0  0.60397  0.62221  0.51421  1.0000
  N   N5        1.0  0.26775  0.46009  0.45215  1.0000
  N   N6        1.0  0.73223  0.53990  0.54785  1.0000
  N   N7        1.0  0.11284  0.84883  0.12038  1.0000
  N   N8        1.0  0.88716  0.15117  0.87962  1.0000
  N   N9        1.0  0.20235  0.99277  0.85999  1.0000
  N   N10       1.0  0.79765  0.00724  0.14000  1.0000
  N   N11       1.0  0.29957  0.95228  0.68647  1.0000
  N   N12       1.0  0.70042  0.04772  0.31353  1.0000
  N   N13       1.0  0.31107  0.08479  0.48250  1.0000
  N   N14       1.0  0.68892  0.91520  0.51751  1.0000
  N   N15       1.0  0.44802  0.32345  0.21258  1.0000
  N   N16       1.0  0.55199  0.67655  0.78741  1.0000
  N   N17       1.0  0.68736  0.39787  0.02842  1.0000
  N   N18       1.0  0.31267  0.60214  0.97158  1.0000
  N   N19       1.0  0.01106  0.35538  0.98493  1.0000
  N   N20       1.0  0.98898  0.64463  0.01507  1.0000
  Cl  Cl1       1.0  0.22876  0.02375  0.25820  1.0000
  Cl  Cl2       1.0  0.77124  0.97625  0.74180  1.0000
  O   O1        1.0  0.52244  0.52901  0.30637  1.0000
  O   O2        1.0  0.47755  0.47098  0.69363  1.0000
  O   O3        1.0  0.80547  0.85015  0.99653  1.0000
  O   O4        1.0  0.19453  0.14985  0.00347  1.0000
