data_image0
_chemical_formula_structural       Cd4H32C64N40O4
_chemical_formula_sum              "Cd4 H32 C64 N40 O4"
_cell_length_a       7.45239
_cell_length_b       14.0019
_cell_length_c       18.562
_cell_angle_alpha    81.1569
_cell_angle_beta     83.3004
_cell_angle_gamma    78.2357

_space_group_name_H-M_alt    "P 1"
_space_group_IT_number       1

loop_
  _space_group_symop_operation_xyz
  'x, y, z'

loop_
  _atom_site_type_symbol
  _atom_site_label
  _atom_site_symmetry_multiplicity
  _atom_site_fract_x
  _atom_site_fract_y
  _atom_site_fract_z
  _atom_site_occupancy
  Cd  Cd1       1.0  0.73227  0.14005  0.17269  1.0000
  Cd  Cd2       1.0  0.26771  0.85996  0.82731  1.0000
  Cd  Cd3       1.0  0.76675  0.65881  0.28488  1.0000
  Cd  Cd4       1.0  0.23326  0.34119  0.71512  1.0000
  H   H1        1.0  0.76108  0.57766  0.13570  1.0000
  H   H2        1.0  0.23892  0.42234  0.86430  1.0000
  H   H3        1.0  0.81764  0.85615  0.16764  1.0000
  H   H4        1.0  0.18237  0.14386  0.83236  1.0000
  H   H5        1.0  0.84451  0.91271  0.03413  1.0000
  H   H6        1.0  0.15550  0.08729  0.96586  1.0000
  H   H7        1.0  0.82795  0.79352  0.94615  1.0000
  H   H8        1.0  0.17205  0.20647  0.05384  1.0000
  H   H9        1.0  0.69922  0.36228  0.85224  1.0000
  H   H10       1.0  0.30079  0.63772  0.14776  1.0000
  H   H11       1.0  0.67085  0.18434  0.87562  1.0000
  H   H12       1.0  0.32915  0.81566  0.12438  1.0000
  H   H13       1.0  0.67506  0.09744  0.00389  1.0000
  H   H14       1.0  0.32493  0.90256  0.99612  1.0000
  H   H15       1.0  0.73412  0.34746  0.08515  1.0000
  H   H16       1.0  0.26588  0.65255  0.91485  1.0000
  H   H17       1.0  0.75691  0.21680  0.32228  1.0000
  H   H18       1.0  0.24308  0.78320  0.67773  1.0000
  H   H19       1.0  0.75042  0.93312  0.28552  1.0000
  H   H20       1.0  0.24960  0.06687  0.71448  1.0000
  H   H21       1.0  0.77370  0.86803  0.41667  1.0000
  H   H22       1.0  0.22634  0.13197  0.58333  1.0000
  H   H23       1.0  0.77992  0.98661  0.50664  1.0000
  H   H24       1.0  0.22010  0.01339  0.49335  1.0000
  H   H25       1.0  0.76392  0.43851  0.60797  1.0000
  H   H26       1.0  0.23607  0.56149  0.39203  1.0000
  H   H27       1.0  0.75389  0.62053  0.58643  1.0000
  H   H28       1.0  0.24609  0.37947  0.41357  1.0000
  H   H29       1.0  0.74422  0.70800  0.45668  1.0000
  H   H30       1.0  0.25577  0.29199  0.54331  1.0000
  H   H31       1.0  0.74162  0.45013  0.37495  1.0000
  H   H32       1.0  0.25840  0.54986  0.62505  1.0000
  C   C1        1.0  0.78014  0.65098  0.11062  1.0000
  C   C2        1.0  0.21987  0.34902  0.88937  1.0000
  C   C3        1.0  0.81096  0.80632  0.12877  1.0000
  C   C4        1.0  0.18905  0.19368  0.87122  1.0000
  C   C5        1.0  0.82555  0.83779  0.05358  1.0000
  C   C6        1.0  0.17446  0.16221  0.94642  1.0000
  C   C7        1.0  0.81609  0.77269  0.00535  1.0000
  C   C8        1.0  0.18392  0.22731  0.99465  1.0000
  C   C9        1.0  0.79171  0.67696  0.03452  1.0000
  C   C10       1.0  0.20831  0.32304  0.96548  1.0000
  C   C11       1.0  0.77183  0.60769  0.98696  1.0000
  C   C12       1.0  0.22818  0.39230  0.01304  1.0000
  C   C13       1.0  0.73520  0.47108  0.95720  1.0000
  C   C14       1.0  0.26481  0.52892  0.04280  1.0000
  C   C15       1.0  0.71791  0.36869  0.96725  1.0000
  C   C16       1.0  0.28210  0.63130  0.03275  1.0000
  C   C17       1.0  0.70041  0.32186  0.90736  1.0000
  C   C18       1.0  0.29960  0.67814  0.09264  1.0000
  C   C19       1.0  0.68439  0.22343  0.92045  1.0000
  C   C20       1.0  0.31562  0.77656  0.07955  1.0000
  C   C21       1.0  0.68722  0.17470  0.99197  1.0000
  C   C22       1.0  0.31278  0.82530  0.00803  1.0000
  C   C23       1.0  0.71978  0.31421  0.03728  1.0000
  C   C24       1.0  0.28022  0.68580  0.96271  1.0000
  C   C25       1.0  0.76013  0.14030  0.34567  1.0000
  C   C26       1.0  0.23986  0.85970  0.65432  1.0000
  C   C27       1.0  0.75882  0.98192  0.32488  1.0000
  C   C28       1.0  0.24119  0.01809  0.67512  1.0000
  C   C29       1.0  0.76911  0.94618  0.39910  1.0000
  C   C30       1.0  0.23091  0.05382  0.60090  1.0000
  C   C31       1.0  0.77307  0.01103  0.44819  1.0000
  C   C32       1.0  0.22695  0.98897  0.55181  1.0000
  C   C33       1.0  0.76704  0.11109  0.42109  1.0000
  C   C34       1.0  0.23297  0.88891  0.57892  1.0000
  C   C35       1.0  0.76791  0.18291  0.46951  1.0000
  C   C36       1.0  0.23209  0.81708  0.53049  1.0000
  C   C37       1.0  0.75946  0.32490  0.50160  1.0000
  C   C38       1.0  0.24055  0.67509  0.49841  1.0000
  C   C39       1.0  0.75212  0.43034  0.49288  1.0000
  C   C40       1.0  0.24788  0.56966  0.50712  1.0000
  C   C41       1.0  0.75667  0.47939  0.55310  1.0000
  C   C42       1.0  0.24332  0.52061  0.44690  1.0000
  C   C43       1.0  0.75264  0.58041  0.54068  1.0000
  C   C44       1.0  0.24735  0.41958  0.45932  1.0000
  C   C45       1.0  0.74616  0.62908  0.46917  1.0000
  C   C46       1.0  0.25384  0.37092  0.53083  1.0000
  C   C47       1.0  0.74442  0.48536  0.42306  1.0000
  C   C48       1.0  0.25559  0.51463  0.57693  1.0000
  C   C49       1.0  0.49173  0.49926  0.26913  1.0000
  C   C50       1.0  0.50828  0.50075  0.73086  1.0000
  C   C51       1.0  0.49266  0.34333  0.24345  1.0000
  C   C52       1.0  0.50732  0.65668  0.75655  1.0000
  C   C53       1.0  0.00369  0.28342  0.21522  1.0000
  C   C54       1.0  0.99630  0.71658  0.78479  1.0000
  C   C55       1.0  0.00455  0.43054  0.25741  1.0000
  C   C56       1.0  0.99546  0.56947  0.74260  1.0000
  C   C57       1.0  0.40414  0.81146  0.29085  1.0000
  C   C58       1.0  0.59588  0.18855  0.70914  1.0000
  C   C59       1.0  0.11511  0.78415  0.28416  1.0000
  C   C60       1.0  0.88489  0.21587  0.71584  1.0000
  C   C61       1.0  0.11771  0.01050  0.12111  1.0000
  C   C62       1.0  0.88225  0.98951  0.87889  1.0000
  C   C63       1.0  0.41155  0.02331  0.13923  1.0000
  C   C64       1.0  0.58842  0.97670  0.86077  1.0000
  N   N1        1.0  0.78922  0.71449  0.15647  1.0000
  N   N2        1.0  0.21079  0.28552  0.84353  1.0000
  N   N3        1.0  0.75396  0.62263  0.91653  1.0000
  N   N4        1.0  0.24604  0.37737  0.08347  1.0000
  N   N5        1.0  0.72962  0.53447  0.89734  1.0000
  N   N6        1.0  0.27038  0.46553  0.10266  1.0000
  N   N7        1.0  0.70527  0.21930  0.04917  1.0000
  N   N8        1.0  0.29473  0.78070  0.95084  1.0000
  N   N9        1.0  0.75598  0.07711  0.29898  1.0000
  N   N10       1.0  0.24402  0.92289  0.70102  1.0000
  N   N11       1.0  0.78144  0.16912  0.54030  1.0000
  N   N12       1.0  0.21857  0.83087  0.45970  1.0000
  N   N13       1.0  0.77573  0.26089  0.56091  1.0000
  N   N14       1.0  0.22429  0.73910  0.43910  1.0000
  N   N15       1.0  0.74284  0.58220  0.41149  1.0000
  N   N16       1.0  0.25717  0.41779  0.58851  1.0000
  N   N17       1.0  0.52506  0.57951  0.26247  1.0000
  N   N18       1.0  0.47496  0.42050  0.73752  1.0000
  N   N19       1.0  0.44581  0.41386  0.28358  1.0000
  N   N20       1.0  0.55419  0.58615  0.71642  1.0000
  N   N21       1.0  0.52813  0.27368  0.21229  1.0000
  N   N22       1.0  0.47185  0.72633  0.78772  1.0000
  N   N23       1.0  0.96951  0.22753  0.17940  1.0000
  N   N24       1.0  0.03046  0.77248  0.82061  1.0000
  N   N25       1.0  0.04724  0.33623  0.25924  1.0000
  N   N26       1.0  0.95276  0.66378  0.74077  1.0000
  N   N27       1.0  0.97329  0.51555  0.26249  1.0000
  N   N28       1.0  0.02673  0.48446  0.73750  1.0000
  N   N29       1.0  0.55357  0.79786  0.31080  1.0000
  N   N30       1.0  0.44641  0.20214  0.68919  1.0000
  N   N31       1.0  0.24623  0.83308  0.26432  1.0000
  N   N32       1.0  0.75375  0.16692  0.73568  1.0000
  N   N33       1.0  0.98660  0.74551  0.29785  1.0000
  N   N34       1.0  0.01338  0.25450  0.70215  1.0000
  N   N35       1.0  0.95789  0.01140  0.13186  1.0000
  N   N36       1.0  0.04208  0.98861  0.86813  1.0000
  N   N37       1.0  0.29045  0.00603  0.10101  1.0000
  N   N38       1.0  0.70952  0.99398  0.89899  1.0000
  N   N39       1.0  0.53444  0.03612  0.16883  1.0000
  N   N40       1.0  0.46551  0.96388  0.83117  1.0000
  O   O1        1.0  0.76171  0.51243  0.01686  1.0000
  O   O2        1.0  0.23831  0.48757  0.98314  1.0000
  O   O3        1.0  0.75316  0.28061  0.44090  1.0000
  O   O4        1.0  0.24684  0.71939  0.55910  1.0000
