data_image0
_chemical_formula_structural       Cu3H10C16S3N7
_chemical_formula_sum              "Cu3 H10 C16 S3 N7"
_cell_length_a       5.74187
_cell_length_b       8.31636
_cell_length_c       10.0539
_cell_angle_alpha    86.8689
_cell_angle_beta     84.2402
_cell_angle_gamma    79.8301

_space_group_name_H-M_alt    "P 1"
_space_group_IT_number       1

loop_
  _space_group_symop_operation_xyz
  'x, y, z'

loop_
  _atom_site_type_symbol
  _atom_site_label
  _atom_site_symmetry_multiplicity
  _atom_site_fract_x
  _atom_site_fract_y
  _atom_site_fract_z
  _atom_site_occupancy
  Cu  Cu1       1.0  0.46945  0.49682  0.48299  1.0000
  Cu  Cu2       1.0  0.71181  0.65117  0.83408  1.0000
  Cu  Cu3       1.0  0.80769  0.76759  0.16558  1.0000
  H   H1        1.0  0.80832  0.40336  0.24946  1.0000
  H   H2        1.0  0.85993  0.88332  0.63885  1.0000
  H   H3        1.0  0.23450  0.88184  0.88200  1.0000
  H   H4        1.0  0.02773  0.12709  0.75677  1.0000
  H   H5        1.0  0.24926  0.24963  0.56182  1.0000
  H   H6        1.0  0.02727  0.93591  0.42885  1.0000
  H   H7        1.0  0.09880  0.35166  0.06791  1.0000
  H   H8        1.0  0.47645  0.29494  0.91929  1.0000
  H   H9        1.0  0.78553  0.05606  0.97347  1.0000
  H   H10       1.0  0.37854  0.93308  0.31439  1.0000
  C   C1        1.0  0.67531  0.94129  0.66088  1.0000
  C   C2        1.0  0.32600  0.94025  0.79751  1.0000
  C   C3        1.0  0.21264  0.07576  0.72720  1.0000
  C   C4        1.0  0.33652  0.14493  0.61904  1.0000
  C   C5        1.0  0.57547  0.07710  0.58413  1.0000
  C   C6        1.0  0.72019  0.13844  0.47120  1.0000
  C   C7        1.0  0.93465  0.05789  0.40621  1.0000
  C   C8        1.0  0.99894  0.16404  0.30210  1.0000
  C   C9        1.0  0.20653  0.14509  0.20493  1.0000
  C   C10       1.0  0.23590  0.24846  0.09163  1.0000
  C   C11       1.0  0.44636  0.21747  0.00802  1.0000
  C   C12       1.0  0.61984  0.08482  0.03723  1.0000
  C   C13       1.0  0.39198  0.01492  0.22666  1.0000
  C   C14       1.0  0.24785  0.54418  0.76450  1.0000
  C   C15       1.0  0.34045  0.65776  0.09898  1.0000
  C   C16       1.0  0.95045  0.62064  0.43526  1.0000
  S   S1        1.0  0.52817  0.48069  0.71247  1.0000
  S   S2        1.0  0.62340  0.58774  0.05699  1.0000
  S   S3        1.0  0.68269  0.69682  0.39502  1.0000
  N   N1        1.0  0.55519  0.87316  0.76450  1.0000
  N   N2        1.0  0.65699  0.28793  0.41092  1.0000
  N   N3        1.0  0.82520  0.29868  0.30867  1.0000
  N   N4        1.0  0.59295  0.98311  0.14519  1.0000
  N   N5        1.0  0.04534  0.58924  0.79957  1.0000
  N   N6        1.0  0.13749  0.71029  0.12738  1.0000
  N   N7        1.0  0.14601  0.56649  0.46014  1.0000
