data_image0
_chemical_formula_structural       Zn4H40C56N8O12
_chemical_formula_sum              "Zn4 H40 C56 N8 O12"
_cell_length_a       6.94504
_cell_length_b       11.7999
_cell_length_c       14.6548
_cell_angle_alpha    90
_cell_angle_beta     90
_cell_angle_gamma    102.41

_space_group_name_H-M_alt    "P 1"
_space_group_IT_number       1

loop_
  _space_group_symop_operation_xyz
  'x, y, z'

loop_
  _atom_site_type_symbol
  _atom_site_label
  _atom_site_symmetry_multiplicity
  _atom_site_fract_x
  _atom_site_fract_y
  _atom_site_fract_z
  _atom_site_occupancy
  Zn  Zn1       1.0  0.38694  0.86740  0.03406  1.0000
  Zn  Zn2       1.0  0.11307  0.63260  0.53406  1.0000
  Zn  Zn3       1.0  0.61307  0.13260  0.96595  1.0000
  Zn  Zn4       1.0  0.88693  0.36740  0.46595  1.0000
  H   H1        1.0  0.56685  0.21249  0.18663  1.0000
  H   H2        1.0  0.93315  0.28751  0.68663  1.0000
  H   H3        1.0  0.43316  0.78751  0.81337  1.0000
  H   H4        1.0  0.06684  0.71248  0.31337  1.0000
  H   H5        1.0  0.36024  0.30362  0.28738  1.0000
  H   H6        1.0  0.13976  0.19638  0.78738  1.0000
  H   H7        1.0  0.63977  0.69638  0.71262  1.0000
  H   H8        1.0  0.86024  0.80362  0.21262  1.0000
  H   H9        1.0  0.84366  0.05808  0.20063  1.0000
  H   H10       1.0  0.65635  0.44192  0.70063  1.0000
  H   H11       1.0  0.15635  0.94192  0.79937  1.0000
  H   H12       1.0  0.34365  0.55808  0.29937  1.0000
  H   H13       1.0  0.85270  0.91658  0.09942  1.0000
  H   H14       1.0  0.64730  0.58342  0.59943  1.0000
  H   H15       1.0  0.14731  0.08342  0.90057  1.0000
  H   H16       1.0  0.35269  0.41658  0.40058  1.0000
  H   H17       1.0  0.85042  0.78362  0.96340  1.0000
  H   H18       1.0  0.64958  0.71639  0.46340  1.0000
  H   H19       1.0  0.14958  0.21639  0.03660  1.0000
  H   H20       1.0  0.35042  0.28361  0.53660  1.0000
  H   H21       1.0  0.88243  0.71181  0.06629  1.0000
  H   H22       1.0  0.61757  0.78819  0.56629  1.0000
  H   H23       1.0  0.11757  0.28819  0.93371  1.0000
  H   H24       1.0  0.38243  0.21181  0.43371  1.0000
  H   H25       1.0  0.81601  0.57876  0.89445  1.0000
  H   H26       1.0  0.68399  0.92123  0.39445  1.0000
  H   H27       1.0  0.18399  0.42124  0.10555  1.0000
  H   H28       1.0  0.31601  0.07876  0.60555  1.0000
  H   H29       1.0  0.00175  0.43917  0.82975  1.0000
  H   H30       1.0  0.49825  0.06082  0.32975  1.0000
  H   H31       1.0  0.99825  0.56083  0.17025  1.0000
  H   H32       1.0  0.50175  0.93917  0.67025  1.0000
  H   H33       1.0  0.36677  0.46975  0.86288  1.0000
  H   H34       1.0  0.13323  0.03025  0.36288  1.0000
  H   H35       1.0  0.63322  0.53026  0.13712  1.0000
  H   H36       1.0  0.86677  0.96975  0.63713  1.0000
  H   H37       1.0  0.52630  0.64329  0.95580  1.0000
  H   H38       1.0  0.97370  0.85670  0.45580  1.0000
  H   H39       1.0  0.47370  0.35671  0.04420  1.0000
  H   H40       1.0  0.02630  0.14330  0.54420  1.0000
  C   C1        1.0  0.11728  0.03906  0.13816  1.0000
  C   C2        1.0  0.38272  0.46093  0.63816  1.0000
  C   C3        1.0  0.88273  0.96094  0.86184  1.0000
  C   C4        1.0  0.61728  0.53906  0.36184  1.0000
  C   C5        1.0  0.32476  0.08735  0.12934  1.0000
  C   C6        1.0  0.17524  0.41265  0.62934  1.0000
  C   C7        1.0  0.67525  0.91265  0.87067  1.0000
  C   C8        1.0  0.82475  0.58734  0.37067  1.0000
  C   C9        1.0  0.40762  0.18165  0.18653  1.0000
  C   C10       1.0  0.09238  0.31836  0.68653  1.0000
  C   C11       1.0  0.59239  0.81836  0.81348  1.0000
  C   C12       1.0  0.90761  0.68164  0.31347  1.0000
  C   C13       1.0  0.29136  0.23069  0.24467  1.0000
  C   C14       1.0  0.20864  0.26931  0.74467  1.0000
  C   C15       1.0  0.70865  0.76931  0.75533  1.0000
  C   C16       1.0  0.79135  0.73069  0.25533  1.0000
  C   C17       1.0  0.08575  0.18873  0.25001  1.0000
  C   C18       1.0  0.41425  0.31127  0.75001  1.0000
  C   C19       1.0  0.91425  0.81127  0.75000  1.0000
  C   C20       1.0  0.58575  0.68873  0.24999  1.0000
  C   C21       1.0  0.00242  0.09308  0.19650  1.0000
  C   C22       1.0  0.49759  0.40692  0.69649  1.0000
  C   C23       1.0  0.99759  0.90692  0.80351  1.0000
  C   C24       1.0  0.50241  0.59308  0.30351  1.0000
  C   C25       1.0  0.01393  0.93670  0.09090  1.0000
  C   C26       1.0  0.48607  0.56330  0.59090  1.0000
  C   C27       1.0  0.98607  0.06330  0.90910  1.0000
  C   C28       1.0  0.51393  0.43670  0.40910  1.0000
  C   C29       1.0  0.96057  0.24098  0.31419  1.0000
  C   C30       1.0  0.53943  0.25902  0.81419  1.0000
  C   C31       1.0  0.03943  0.75902  0.68581  1.0000
  C   C32       1.0  0.46056  0.74098  0.18581  1.0000
  C   C33       1.0  0.96261  0.76140  0.00892  1.0000
  C   C34       1.0  0.53739  0.73860  0.50892  1.0000
  C   C35       1.0  0.03739  0.23860  0.99108  1.0000
  C   C36       1.0  0.46261  0.26140  0.49108  1.0000
  C   C37       1.0  0.07283  0.68280  0.95997  1.0000
  C   C38       1.0  0.42716  0.81720  0.45997  1.0000
  C   C39       1.0  0.92717  0.31720  0.04003  1.0000
  C   C40       1.0  0.57283  0.18280  0.54003  1.0000
  C   C41       1.0  0.97372  0.59001  0.90686  1.0000
  C   C42       1.0  0.52628  0.90999  0.40686  1.0000
  C   C43       1.0  0.02628  0.40999  0.09314  1.0000
  C   C44       1.0  0.47372  0.09001  0.59314  1.0000
  C   C45       1.0  0.07816  0.51246  0.87052  1.0000
  C   C46       1.0  0.42184  0.98754  0.37052  1.0000
  C   C47       1.0  0.92184  0.48754  0.12948  1.0000
  C   C48       1.0  0.57816  0.01246  0.62948  1.0000
  C   C49       1.0  0.27990  0.52908  0.88929  1.0000
  C   C50       1.0  0.22009  0.97092  0.38929  1.0000
  C   C51       1.0  0.72009  0.47092  0.11071  1.0000
  C   C52       1.0  0.77991  0.02908  0.61071  1.0000
  C   C53       1.0  0.36901  0.62490  0.94052  1.0000
  C   C54       1.0  0.13099  0.87510  0.44052  1.0000
  C   C55       1.0  0.63099  0.37510  0.05948  1.0000
  C   C56       1.0  0.86901  0.12490  0.55948  1.0000
  N   N1        1.0  0.09345  0.86554  0.04398  1.0000
  N   N2        1.0  0.40655  0.63446  0.54398  1.0000
  N   N3        1.0  0.90655  0.13446  0.95602  1.0000
  N   N4        1.0  0.59345  0.36554  0.45602  1.0000
  N   N5        1.0  0.26834  0.70137  0.97371  1.0000
  N   N6        1.0  0.23166  0.79863  0.47371  1.0000
  N   N7        1.0  0.73166  0.29863  0.02629  1.0000
  N   N8        1.0  0.76833  0.20137  0.52629  1.0000
  O   O1        1.0  0.43597  0.04707  0.06957  1.0000
  O   O2        1.0  0.06403  0.45293  0.56957  1.0000
  O   O3        1.0  0.56403  0.95293  0.93043  1.0000
  O   O4        1.0  0.93597  0.54707  0.43043  1.0000
  O   O5        1.0  0.05752  0.31735  0.37163  1.0000
  O   O6        1.0  0.44248  0.18265  0.87163  1.0000
  O   O7        1.0  0.94248  0.68265  0.62837  1.0000
  O   O8        1.0  0.55752  0.81735  0.12837  1.0000
  O   O9        1.0  0.77693  0.20962  0.31175  1.0000
  O   O10       1.0  0.72307  0.29038  0.81175  1.0000
  O   O11       1.0  0.22307  0.79038  0.68825  1.0000
  O   O12       1.0  0.27693  0.70962  0.18825  1.0000
