data_image0
_chemical_formula_structural       Zn4H48C56N8O16
_chemical_formula_sum              "Zn4 H48 C56 N8 O16"
_cell_length_a       8.07038
_cell_length_b       12.8948
_cell_length_c       13.1815
_cell_angle_alpha    90
_cell_angle_beta     104.083
_cell_angle_gamma    90

_space_group_name_H-M_alt    "P 1"
_space_group_IT_number       1

loop_
  _space_group_symop_operation_xyz
  'x, y, z'

loop_
  _atom_site_type_symbol
  _atom_site_label
  _atom_site_symmetry_multiplicity
  _atom_site_fract_x
  _atom_site_fract_y
  _atom_site_fract_z
  _atom_site_occupancy
  Zn  Zn1       1.0  0.24098  0.93652  0.16326  1.0000
  Zn  Zn2       1.0  0.25902  0.43652  0.33674  1.0000
  Zn  Zn3       1.0  0.75902  0.06349  0.83674  1.0000
  Zn  Zn4       1.0  0.74098  0.56348  0.66326  1.0000
  H   H1        1.0  0.97864  0.07522  0.06595  1.0000
  H   H2        1.0  0.52136  0.57522  0.43405  1.0000
  H   H3        1.0  0.02136  0.92478  0.93405  1.0000
  H   H4        1.0  0.47864  0.42478  0.56595  1.0000
  H   H5        1.0  0.13135  0.13421  0.14775  1.0000
  H   H6        1.0  0.36865  0.63421  0.35225  1.0000
  H   H7        1.0  0.86865  0.86579  0.85225  1.0000
  H   H8        1.0  0.63135  0.36579  0.64775  1.0000
  H   H9        1.0  0.11440  0.80784  0.82781  1.0000
  H   H10       1.0  0.38560  0.30785  0.67219  1.0000
  H   H11       1.0  0.88560  0.19215  0.17219  1.0000
  H   H12       1.0  0.61440  0.69215  0.32781  1.0000
  H   H13       1.0  0.31303  0.73323  0.73082  1.0000
  H   H14       1.0  0.18697  0.23323  0.76918  1.0000
  H   H15       1.0  0.68697  0.26677  0.26918  1.0000
  H   H16       1.0  0.81303  0.76677  0.23082  1.0000
  H   H17       1.0  0.74119  0.82093  0.97831  1.0000
  H   H18       1.0  0.75881  0.32093  0.52169  1.0000
  H   H19       1.0  0.25881  0.17907  0.02169  1.0000
  H   H20       1.0  0.24119  0.67907  0.47831  1.0000
  H   H21       1.0  0.71839  0.90353  0.12271  1.0000
  H   H22       1.0  0.78160  0.40353  0.37729  1.0000
  H   H23       1.0  0.28161  0.09646  0.87729  1.0000
  H   H24       1.0  0.21839  0.59646  0.62271  1.0000
  H   H25       1.0  0.71223  0.02123  0.26216  1.0000
  H   H26       1.0  0.78777  0.52123  0.23783  1.0000
  H   H27       1.0  0.28777  0.97877  0.73784  1.0000
  H   H28       1.0  0.21223  0.47877  0.76216  1.0000
  H   H29       1.0  0.66522  0.90561  0.32291  1.0000
  H   H30       1.0  0.83478  0.40560  0.17708  1.0000
  H   H31       1.0  0.33479  0.09440  0.67709  1.0000
  H   H32       1.0  0.16522  0.59439  0.82292  1.0000
  H   H33       1.0  0.71242  0.11237  0.43784  1.0000
  H   H34       1.0  0.78757  0.61238  0.06216  1.0000
  H   H35       1.0  0.28757  0.88763  0.56216  1.0000
  H   H36       1.0  0.21243  0.38762  0.93784  1.0000
  H   H37       1.0  0.52541  0.19718  0.53911  1.0000
  H   H38       1.0  0.97460  0.69719  0.96089  1.0000
  H   H39       1.0  0.47459  0.80281  0.46089  1.0000
  H   H40       1.0  0.02540  0.30281  0.03911  1.0000
  H   H41       1.0  0.20899  0.16179  0.48792  1.0000
  H   H42       1.0  0.29102  0.66179  0.01209  1.0000
  H   H43       1.0  0.79101  0.83821  0.51209  1.0000
  H   H44       1.0  0.70899  0.33821  0.98791  1.0000
  H   H45       1.0  0.09521  0.04249  0.33556  1.0000
  H   H46       1.0  0.40479  0.54249  0.16444  1.0000
  H   H47       1.0  0.90478  0.95750  0.66444  1.0000
  H   H48       1.0  0.59521  0.45750  0.83556  1.0000
  C   C1        1.0  0.49515  0.85794  0.00484  1.0000
  C   C2        1.0  0.00485  0.35794  0.49516  1.0000
  C   C3        1.0  0.50485  0.14206  0.99516  1.0000
  C   C4        1.0  0.99515  0.64206  0.50484  1.0000
  C   C5        1.0  0.31290  0.85619  0.96195  1.0000
  C   C6        1.0  0.18710  0.35619  0.53804  1.0000
  C   C7        1.0  0.68710  0.14381  0.03805  1.0000
  C   C8        1.0  0.81290  0.64381  0.46196  1.0000
  C   C9        1.0  0.25181  0.81093  0.86101  1.0000
  C   C10       1.0  0.24818  0.31093  0.63899  1.0000
  C   C11       1.0  0.74819  0.18907  0.13899  1.0000
  C   C12       1.0  0.75181  0.68907  0.36101  1.0000
  C   C13       1.0  0.36221  0.76884  0.80718  1.0000
  C   C14       1.0  0.13779  0.26884  0.69282  1.0000
  C   C15       1.0  0.63780  0.23116  0.19283  1.0000
  C   C16       1.0  0.86220  0.73116  0.30718  1.0000
  C   C17       1.0  0.54074  0.77159  0.84775  1.0000
  C   C18       1.0  0.95926  0.27159  0.65225  1.0000
  C   C19       1.0  0.45926  0.22841  0.15225  1.0000
  C   C20       1.0  0.04074  0.72841  0.34775  1.0000
  C   C21       1.0  0.60352  0.81698  0.94540  1.0000
  C   C22       1.0  0.89648  0.31698  0.55460  1.0000
  C   C23       1.0  0.39648  0.18303  0.05460  1.0000
  C   C24       1.0  0.10352  0.68303  0.44540  1.0000
  C   C25       1.0  0.57758  0.90061  0.10581  1.0000
  C   C26       1.0  0.92242  0.40061  0.39419  1.0000
  C   C27       1.0  0.42242  0.09939  0.89419  1.0000
  C   C28       1.0  0.07758  0.59939  0.60581  1.0000
  C   C29       1.0  0.65561  0.72470  0.78706  1.0000
  C   C30       1.0  0.84439  0.22470  0.71294  1.0000
  C   C31       1.0  0.34439  0.27530  0.21294  1.0000
  C   C32       1.0  0.15561  0.77530  0.28706  1.0000
  C   C33       1.0  0.60689  0.97232  0.27453  1.0000
  C   C34       1.0  0.89311  0.47231  0.22547  1.0000
  C   C35       1.0  0.39311  0.02769  0.72547  1.0000
  C   C36       1.0  0.10689  0.52769  0.77453  1.0000
  C   C37       1.0  0.50180  0.03143  0.33577  1.0000
  C   C38       1.0  0.99820  0.53143  0.16423  1.0000
  C   C39       1.0  0.49820  0.96857  0.66423  1.0000
  C   C40       1.0  0.00180  0.46857  0.83577  1.0000
  C   C41       1.0  0.57514  0.09801  0.41809  1.0000
  C   C42       1.0  0.92485  0.59801  0.08191  1.0000
  C   C43       1.0  0.42485  0.90199  0.58191  1.0000
  C   C44       1.0  0.07515  0.40199  0.91809  1.0000
  C   C45       1.0  0.47039  0.14579  0.47390  1.0000
  C   C46       1.0  0.02961  0.64578  0.02610  1.0000
  C   C47       1.0  0.52960  0.85421  0.52610  1.0000
  C   C48       1.0  0.97039  0.35421  0.97390  1.0000
  C   C49       1.0  0.29491  0.12563  0.44629  1.0000
  C   C50       1.0  0.20509  0.62563  0.05371  1.0000
  C   C51       1.0  0.70509  0.87437  0.55371  1.0000
  C   C52       1.0  0.79491  0.37437  0.94629  1.0000
  C   C53       1.0  0.23121  0.05970  0.36289  1.0000
  C   C54       1.0  0.26879  0.55970  0.13711  1.0000
  C   C55       1.0  0.76879  0.94030  0.63711  1.0000
  C   C56       1.0  0.73121  0.44030  0.86289  1.0000
  N   N1        1.0  0.50205  0.93396  0.17569  1.0000
  N   N2        1.0  0.99795  0.43396  0.32431  1.0000
  N   N3        1.0  0.49795  0.06604  0.82431  1.0000
  N   N4        1.0  0.00205  0.56604  0.67569  1.0000
  N   N5        1.0  0.33306  0.01409  0.30927  1.0000
  N   N6        1.0  0.16694  0.51409  0.19073  1.0000
  N   N7        1.0  0.66694  0.98591  0.69073  1.0000
  N   N8        1.0  0.83306  0.48591  0.80927  1.0000
  O   O1        1.0  0.20277  0.89326  0.01059  1.0000
  O   O2        1.0  0.29723  0.39327  0.48941  1.0000
  O   O3        1.0  0.79723  0.10673  0.98941  1.0000
  O   O4        1.0  0.70277  0.60674  0.51059  1.0000
  O   O5        1.0  0.58513  0.65929  0.71563  1.0000
  O   O6        1.0  0.91487  0.15929  0.78437  1.0000
  O   O7        1.0  0.41487  0.34071  0.28437  1.0000
  O   O8        1.0  0.08514  0.84071  0.21563  1.0000
  O   O9        1.0  0.81264  0.74882  0.80768  1.0000
  O   O10       1.0  0.68736  0.24882  0.69232  1.0000
  O   O11       1.0  0.18736  0.25118  0.19232  1.0000
  O   O12       1.0  0.31264  0.75118  0.30768  1.0000
  O   O13       1.0  0.08748  0.06376  0.12126  1.0000
  O   O14       1.0  0.41252  0.56376  0.37874  1.0000
  O   O15       1.0  0.91252  0.93624  0.87874  1.0000
  O   O16       1.0  0.58748  0.43624  0.62126  1.0000
