data_image0
_chemical_formula_structural       Cu4H20C20N12Cl4O8
_chemical_formula_sum              "Cu4 H20 C20 N12 Cl4 O8"
_cell_length_a       3.69216
_cell_length_b       13.1582
_cell_length_c       15.3088
_cell_angle_alpha    90.0003
_cell_angle_beta     90.0001
_cell_angle_gamma    91.604

_space_group_name_H-M_alt    "P 1"
_space_group_IT_number       1

loop_
  _space_group_symop_operation_xyz
  'x, y, z'

loop_
  _atom_site_type_symbol
  _atom_site_label
  _atom_site_symmetry_multiplicity
  _atom_site_fract_x
  _atom_site_fract_y
  _atom_site_fract_z
  _atom_site_occupancy
  Cu  Cu1       1.0  0.82963  0.08478  0.97870  1.0000
  Cu  Cu2       1.0  0.17037  0.41522  0.47870  1.0000
  Cu  Cu3       1.0  0.17037  0.91522  0.02130  1.0000
  Cu  Cu4       1.0  0.82962  0.58479  0.52130  1.0000
  H   H1        1.0  0.15444  0.01343  0.81805  1.0000
  H   H2        1.0  0.84554  0.48657  0.31805  1.0000
  H   H3        1.0  0.84558  0.98657  0.18195  1.0000
  H   H4        1.0  0.15444  0.51344  0.68195  1.0000
  H   H5        1.0  0.85016  0.36710  0.75068  1.0000
  H   H6        1.0  0.14983  0.13290  0.25068  1.0000
  H   H7        1.0  0.14984  0.63289  0.24932  1.0000
  H   H8        1.0  0.85016  0.86710  0.74932  1.0000
  H   H9        1.0  0.63455  0.26571  0.96794  1.0000
  H   H10       1.0  0.36544  0.23429  0.46794  1.0000
  H   H11       1.0  0.36546  0.73430  0.03206  1.0000
  H   H12       1.0  0.63455  0.76571  0.53206  1.0000
  H   H13       1.0  0.61389  0.37142  0.89777  1.0000
  H   H14       1.0  0.38611  0.12858  0.39777  1.0000
  H   H15       1.0  0.38611  0.62858  0.10223  1.0000
  H   H16       1.0  0.61388  0.87142  0.60223  1.0000
  H   H17       1.0  0.15567  0.26512  0.63644  1.0000
  H   H18       1.0  0.84432  0.23488  0.13644  1.0000
  H   H19       1.0  0.84433  0.73489  0.36356  1.0000
  H   H20       1.0  0.15567  0.76511  0.86356  1.0000
  C   C1        1.0  0.08954  0.09132  0.80151  1.0000
  C   C2        1.0  0.91045  0.40868  0.30151  1.0000
  C   C3        1.0  0.91048  0.90868  0.19849  1.0000
  C   C4        1.0  0.08954  0.59132  0.69849  1.0000
  C   C5        1.0  0.92476  0.28907  0.76302  1.0000
  C   C6        1.0  0.07524  0.21092  0.26302  1.0000
  C   C7        1.0  0.07524  0.71093  0.23698  1.0000
  C   C8        1.0  0.92476  0.78908  0.73698  1.0000
  C   C9        1.0  0.09032  0.23286  0.70004  1.0000
  C   C10       1.0  0.90967  0.26714  0.20003  1.0000
  C   C11       1.0  0.90969  0.76714  0.29996  1.0000
  C   C12       1.0  0.09032  0.73286  0.79997  1.0000
  C   C13       1.0  0.17456  0.13163  0.71951  1.0000
  C   C14       1.0  0.82544  0.36837  0.21951  1.0000
  C   C15       1.0  0.82546  0.86837  0.28049  1.0000
  C   C16       1.0  0.17456  0.63163  0.78049  1.0000
  C   C17       1.0  0.84629  0.24500  0.84584  1.0000
  C   C18       1.0  0.15369  0.25500  0.34584  1.0000
  C   C19       1.0  0.15371  0.75500  0.15416  1.0000
  C   C20       1.0  0.84630  0.74500  0.65416  1.0000
  N   N1        1.0  0.92842  0.14576  0.86364  1.0000
  N   N2        1.0  0.07157  0.35424  0.36363  1.0000
  N   N3        1.0  0.07159  0.85425  0.13637  1.0000
  N   N4        1.0  0.92842  0.64576  0.63636  1.0000
  N   N5        1.0  0.35039  0.07060  0.65582  1.0000
  N   N6        1.0  0.64961  0.42940  0.15581  1.0000
  N   N7        1.0  0.64962  0.92940  0.34419  1.0000
  N   N8        1.0  0.35040  0.57060  0.84418  1.0000
  N   N9        1.0  0.68977  0.29837  0.90895  1.0000
  N   N10       1.0  0.31022  0.20162  0.40895  1.0000
  N   N11       1.0  0.31023  0.70163  0.09105  1.0000
  N   N12       1.0  0.68976  0.79838  0.59105  1.0000
  Cl  Cl1       1.0  0.34089  0.09849  0.06867  1.0000
  Cl  Cl2       1.0  0.65911  0.40151  0.56867  1.0000
  Cl  Cl3       1.0  0.65912  0.90151  0.93133  1.0000
  Cl  Cl4       1.0  0.34088  0.59849  0.43133  1.0000
  O   O1        1.0  0.43663  0.10915  0.58421  1.0000
  O   O2        1.0  0.56337  0.39085  0.08421  1.0000
  O   O3        1.0  0.56337  0.89084  0.41579  1.0000
  O   O4        1.0  0.43664  0.60915  0.91579  1.0000
  O   O5        1.0  0.41377  0.97975  0.67540  1.0000
  O   O6        1.0  0.58623  0.52025  0.17540  1.0000
  O   O7        1.0  0.58624  0.02025  0.32460  1.0000
  O   O8        1.0  0.41378  0.47975  0.82460  1.0000
