data_image0
_chemical_formula_structural       Cu4H20C24S4N16O8
_chemical_formula_sum              "Cu4 H20 C24 S4 N16 O8"
_cell_length_a       5.85396
_cell_length_b       10.682
_cell_length_c       14.0233
_cell_angle_alpha    90.0008
_cell_angle_beta     89.9998
_cell_angle_gamma    104.127

_space_group_name_H-M_alt    "P 1"
_space_group_IT_number       1

loop_
  _space_group_symop_operation_xyz
  'x, y, z'

loop_
  _atom_site_type_symbol
  _atom_site_label
  _atom_site_symmetry_multiplicity
  _atom_site_fract_x
  _atom_site_fract_y
  _atom_site_fract_z
  _atom_site_occupancy
  Cu  Cu1       1.0  0.86137  0.43430  0.43036  1.0000
  Cu  Cu2       1.0  0.63864  0.06571  0.93036  1.0000
  Cu  Cu3       1.0  0.13863  0.56570  0.56964  1.0000
  Cu  Cu4       1.0  0.36136  0.93431  0.06965  1.0000
  H   H1        1.0  0.58755  0.30421  0.30825  1.0000
  H   H2        1.0  0.91245  0.19579  0.80824  1.0000
  H   H3        1.0  0.41245  0.69579  0.69176  1.0000
  H   H4        1.0  0.08755  0.80422  0.19175  1.0000
  H   H5        1.0  0.54884  0.26008  0.18864  1.0000
  H   H6        1.0  0.95117  0.23992  0.68863  1.0000
  H   H7        1.0  0.45116  0.73991  0.81137  1.0000
  H   H8        1.0  0.04883  0.76008  0.31137  1.0000
  H   H9        1.0  0.87171  0.33053  0.07183  1.0000
  H   H10       1.0  0.62829  0.16946  0.57183  1.0000
  H   H11       1.0  0.12828  0.66945  0.92817  1.0000
  H   H12       1.0  0.37171  0.83053  0.42817  1.0000
  H   H13       1.0  0.28547  0.45760  0.04595  1.0000
  H   H14       1.0  0.21453  0.04239  0.54595  1.0000
  H   H15       1.0  0.71452  0.54238  0.95405  1.0000
  H   H16       1.0  0.78547  0.95760  0.45404  1.0000
  H   H17       1.0  0.31791  0.55829  0.34457  1.0000
  H   H18       1.0  0.18210  0.94171  0.84457  1.0000
  H   H19       1.0  0.68210  0.44171  0.65543  1.0000
  H   H20       1.0  0.81789  0.05830  0.15543  1.0000
  C   C1        1.0  0.65728  0.64848  0.51169  1.0000
  C   C2        1.0  0.84272  0.85153  0.01170  1.0000
  C   C3        1.0  0.34274  0.35152  0.48830  1.0000
  C   C4        1.0  0.15728  0.14848  0.98831  1.0000
  C   C5        1.0  0.87577  0.37547  0.22324  1.0000
  C   C6        1.0  0.62423  0.12453  0.72323  1.0000
  C   C7        1.0  0.12423  0.62452  0.77677  1.0000
  C   C8        1.0  0.37576  0.87548  0.27676  1.0000
  C   C9        1.0  0.97589  0.38185  0.13046  1.0000
  C   C10       1.0  0.52413  0.11814  0.63046  1.0000
  C   C11       1.0  0.02412  0.61814  0.86954  1.0000
  C   C12       1.0  0.47588  0.88186  0.36953  1.0000
  C   C13       1.0  0.20299  0.45186  0.11589  1.0000
  C   C14       1.0  0.29701  0.04813  0.61588  1.0000
  C   C15       1.0  0.79700  0.54813  0.88411  1.0000
  C   C16       1.0  0.70299  0.95186  0.38412  1.0000
  C   C17       1.0  0.32760  0.51729  0.19423  1.0000
  C   C18       1.0  0.17241  0.98270  0.69424  1.0000
  C   C19       1.0  0.67240  0.48270  0.80577  1.0000
  C   C20       1.0  0.82759  0.01730  0.30576  1.0000
  C   C21       1.0  0.22116  0.50897  0.28346  1.0000
  C   C22       1.0  0.27885  0.99103  0.78346  1.0000
  C   C23       1.0  0.77885  0.49103  0.71653  1.0000
  C   C24       1.0  0.72114  0.00898  0.21654  1.0000
  S   S1        1.0  0.92299  0.66317  0.46833  1.0000
  S   S2        1.0  0.57700  0.83683  0.96834  1.0000
  S   S3        1.0  0.07701  0.33683  0.53167  1.0000
  S   S4        1.0  0.42299  0.16318  0.03167  1.0000
  N   N1        1.0  0.46481  0.63570  0.54240  1.0000
  N   N2        1.0  0.03518  0.86432  0.04240  1.0000
  N   N3        1.0  0.53520  0.36430  0.45760  1.0000
  N   N4        1.0  0.96481  0.13570  0.95761  1.0000
  N   N5        1.0  0.00096  0.43992  0.29861  1.0000
  N   N6        1.0  0.49904  0.06009  0.79861  1.0000
  N   N7        1.0  0.99904  0.56009  0.70139  1.0000
  N   N8        1.0  0.50095  0.93993  0.20139  1.0000
  N   N9        1.0  0.65623  0.30690  0.24121  1.0000
  N   N10       1.0  0.84378  0.19310  0.74120  1.0000
  N   N11       1.0  0.34377  0.69310  0.75880  1.0000
  N   N12       1.0  0.15623  0.80691  0.25879  1.0000
  N   N13       1.0  0.56544  0.59194  0.18411  1.0000
  N   N14       1.0  0.93455  0.90806  0.68411  1.0000
  N   N15       1.0  0.43455  0.40806  0.81588  1.0000
  N   N16       1.0  0.06545  0.09194  0.31589  1.0000
  O   O1        1.0  0.65781  0.66118  0.25263  1.0000
  O   O2        1.0  0.84220  0.83882  0.75264  1.0000
  O   O3        1.0  0.34219  0.33882  0.74736  1.0000
  O   O4        1.0  0.15781  0.16118  0.24736  1.0000
  O   O5        1.0  0.67091  0.58415  0.10782  1.0000
  O   O6        1.0  0.82910  0.91584  0.60783  1.0000
  O   O7        1.0  0.32909  0.41584  0.89217  1.0000
  O   O8        1.0  0.17091  0.08416  0.39217  1.0000
