data_image0
_chemical_formula_structural       Cd2H56C56N16Cl4O16
_chemical_formula_sum              "Cd2 H56 C56 N16 Cl4 O16"
_cell_length_a       8.84235
_cell_length_b       10.4789
_cell_length_c       17.934
_cell_angle_alpha    90
_cell_angle_beta     90
_cell_angle_gamma    98.6859

_space_group_name_H-M_alt    "P 1"
_space_group_IT_number       1

loop_
  _space_group_symop_operation_xyz
  'x, y, z'

loop_
  _atom_site_type_symbol
  _atom_site_label
  _atom_site_symmetry_multiplicity
  _atom_site_fract_x
  _atom_site_fract_y
  _atom_site_fract_z
  _atom_site_occupancy
  Cd  Cd1       1.0  0.00000  0.00000  0.00000  1.0000
  Cd  Cd2       1.0  0.50000  0.50000  0.50000  1.0000
  H   H1        1.0  0.88764  0.76774  0.73446  1.0000
  H   H2        1.0  0.61236  0.73226  0.23446  1.0000
  H   H3        1.0  0.11236  0.23226  0.26554  1.0000
  H   H4        1.0  0.38764  0.26774  0.76554  1.0000
  H   H5        1.0  0.68396  0.80080  0.98739  1.0000
  H   H6        1.0  0.81604  0.69919  0.48739  1.0000
  H   H7        1.0  0.31604  0.19919  0.01261  1.0000
  H   H8        1.0  0.18396  0.30081  0.51261  1.0000
  H   H9        1.0  0.64330  0.62731  0.76900  1.0000
  H   H10       1.0  0.85670  0.87269  0.26900  1.0000
  H   H11       1.0  0.35670  0.37269  0.23100  1.0000
  H   H12       1.0  0.14330  0.12731  0.73100  1.0000
  H   H13       1.0  0.37888  0.73790  0.97394  1.0000
  H   H14       1.0  0.12112  0.76210  0.47394  1.0000
  H   H15       1.0  0.62112  0.26210  0.02606  1.0000
  H   H16       1.0  0.87888  0.23790  0.52606  1.0000
  H   H17       1.0  0.50866  0.65595  0.02279  1.0000
  H   H18       1.0  0.99134  0.84405  0.52279  1.0000
  H   H19       1.0  0.49134  0.34405  0.97721  1.0000
  H   H20       1.0  0.00866  0.15595  0.47721  1.0000
  H   H21       1.0  0.33262  0.56832  0.98915  1.0000
  H   H22       1.0  0.16738  0.93168  0.48915  1.0000
  H   H23       1.0  0.66738  0.43168  0.01086  1.0000
  H   H24       1.0  0.83262  0.06832  0.51085  1.0000
  H   H25       1.0  0.02265  0.91638  0.83120  1.0000
  H   H26       1.0  0.47735  0.58362  0.33120  1.0000
  H   H27       1.0  0.97735  0.08362  0.16880  1.0000
  H   H28       1.0  0.52265  0.41638  0.66880  1.0000
  H   H29       1.0  0.11639  0.64430  0.80440  1.0000
  H   H30       1.0  0.38361  0.85570  0.30440  1.0000
  H   H31       1.0  0.88361  0.35570  0.19560  1.0000
  H   H32       1.0  0.61639  0.14430  0.69560  1.0000
  H   H33       1.0  0.10142  0.52353  0.73412  1.0000
  H   H34       1.0  0.39858  0.97647  0.23412  1.0000
  H   H35       1.0  0.89858  0.47647  0.26588  1.0000
  H   H36       1.0  0.60142  0.02353  0.76588  1.0000
  H   H37       1.0  0.28498  0.60681  0.76185  1.0000
  H   H38       1.0  0.21502  0.89319  0.26185  1.0000
  H   H39       1.0  0.71502  0.39319  0.23815  1.0000
  H   H40       1.0  0.78498  0.10681  0.73815  1.0000
  H   H41       1.0  0.18643  0.24400  0.91591  1.0000
  H   H42       1.0  0.31357  0.25600  0.41591  1.0000
  H   H43       1.0  0.81357  0.75600  0.08409  1.0000
  H   H44       1.0  0.68643  0.74400  0.58409  1.0000
  H   H45       1.0  0.87904  0.46543  0.80615  1.0000
  H   H46       1.0  0.62096  0.03457  0.30615  1.0000
  H   H47       1.0  0.12096  0.53457  0.19385  1.0000
  H   H48       1.0  0.37904  0.96543  0.69385  1.0000
  H   H49       1.0  0.71903  0.11097  0.92277  1.0000
  H   H50       1.0  0.78097  0.38903  0.42277  1.0000
  H   H51       1.0  0.28097  0.88903  0.07723  1.0000
  H   H52       1.0  0.21903  0.61097  0.57723  1.0000
  H   H53       1.0  0.66267  0.29932  0.84824  1.0000
  H   H54       1.0  0.83733  0.20069  0.34825  1.0000
  H   H55       1.0  0.33733  0.70068  0.15176  1.0000
  H   H56       1.0  0.16267  0.79931  0.65175  1.0000
  C   C1        1.0  0.49964  0.62156  0.90413  1.0000
  C   C2        1.0  0.00036  0.87844  0.40413  1.0000
  C   C3        1.0  0.50036  0.37844  0.09587  1.0000
  C   C4        1.0  0.99964  0.12156  0.59587  1.0000
  C   C5        1.0  0.64542  0.69962  0.88185  1.0000
  C   C6        1.0  0.85458  0.80038  0.38185  1.0000
  C   C7        1.0  0.35458  0.30038  0.11815  1.0000
  C   C8        1.0  0.14542  0.19962  0.61815  1.0000
  C   C9        1.0  0.84056  0.77081  0.79046  1.0000
  C   C10       1.0  0.65944  0.72919  0.29046  1.0000
  C   C11       1.0  0.15945  0.22919  0.20954  1.0000
  C   C12       1.0  0.34056  0.27081  0.70954  1.0000
  C   C13       1.0  0.72724  0.78740  0.93158  1.0000
  C   C14       1.0  0.77276  0.71260  0.43158  1.0000
  C   C15       1.0  0.27276  0.21260  0.06842  1.0000
  C   C16       1.0  0.22724  0.28740  0.56842  1.0000
  C   C17       1.0  0.18485  0.46443  0.83923  1.0000
  C   C18       1.0  0.31515  0.03557  0.33923  1.0000
  C   C19       1.0  0.81515  0.53557  0.16077  1.0000
  C   C20       1.0  0.68485  0.96443  0.66077  1.0000
  C   C21       1.0  0.70471  0.69299  0.80956  1.0000
  C   C22       1.0  0.79529  0.80701  0.30956  1.0000
  C   C23       1.0  0.29529  0.30701  0.19044  1.0000
  C   C24       1.0  0.20471  0.19299  0.69044  1.0000
  C   C25       1.0  0.42601  0.64667  0.97676  1.0000
  C   C26       1.0  0.07399  0.85333  0.47676  1.0000
  C   C27       1.0  0.57399  0.35333  0.02324  1.0000
  C   C28       1.0  0.92601  0.14667  0.52324  1.0000
  C   C29       1.0  0.91562  0.85399  0.84386  1.0000
  C   C30       1.0  0.58438  0.64600  0.34386  1.0000
  C   C31       1.0  0.08438  0.14601  0.15614  1.0000
  C   C32       1.0  0.41562  0.35399  0.65614  1.0000
  C   C33       1.0  0.17078  0.56499  0.78142  1.0000
  C   C34       1.0  0.32922  0.93501  0.28142  1.0000
  C   C35       1.0  0.82922  0.43501  0.21858  1.0000
  C   C36       1.0  0.67078  0.06499  0.71858  1.0000
  C   C37       1.0  0.07127  0.25950  0.90112  1.0000
  C   C38       1.0  0.42873  0.24050  0.40112  1.0000
  C   C39       1.0  0.92873  0.74050  0.09889  1.0000
  C   C40       1.0  0.57127  0.75950  0.59888  1.0000
  C   C41       1.0  0.05130  0.36897  0.85943  1.0000
  C   C42       1.0  0.44870  0.13103  0.35943  1.0000
  C   C43       1.0  0.94870  0.63103  0.14057  1.0000
  C   C44       1.0  0.55130  0.86897  0.64057  1.0000
  C   C45       1.0  0.90149  0.38349  0.83951  1.0000
  C   C46       1.0  0.59851  0.11651  0.33951  1.0000
  C   C47       1.0  0.09851  0.61651  0.16049  1.0000
  C   C48       1.0  0.40149  0.88349  0.66049  1.0000
  C   C49       1.0  0.81061  0.18547  0.90400  1.0000
  C   C50       1.0  0.68939  0.31453  0.40400  1.0000
  C   C51       1.0  0.18939  0.81453  0.09600  1.0000
  C   C52       1.0  0.31061  0.68547  0.59600  1.0000
  C   C53       1.0  0.78049  0.29071  0.86230  1.0000
  C   C54       1.0  0.71951  0.20929  0.36230  1.0000
  C   C55       1.0  0.21951  0.70929  0.13770  1.0000
  C   C56       1.0  0.28049  0.79071  0.63770  1.0000
  N   N1        1.0  0.85980  0.86139  0.91339  1.0000
  N   N2        1.0  0.64020  0.63861  0.41339  1.0000
  N   N3        1.0  0.14020  0.13861  0.08661  1.0000
  N   N4        1.0  0.35980  0.36139  0.58661  1.0000
  N   N5        1.0  0.43914  0.53509  0.85673  1.0000
  N   N6        1.0  0.06087  0.96491  0.35673  1.0000
  N   N7        1.0  0.56087  0.46491  0.14327  1.0000
  N   N8        1.0  0.93913  0.03509  0.64327  1.0000
  N   N9        1.0  0.31048  0.45659  0.87513  1.0000
  N   N10       1.0  0.18953  0.04341  0.37513  1.0000
  N   N11       1.0  0.68952  0.54341  0.12487  1.0000
  N   N12       1.0  0.81047  0.95659  0.62487  1.0000
  N   N13       1.0  0.95481  0.17059  0.92302  1.0000
  N   N14       1.0  0.54519  0.32941  0.42302  1.0000
  N   N15       1.0  0.04519  0.82941  0.07698  1.0000
  N   N16       1.0  0.45481  0.67059  0.57698  1.0000
  Cl  Cl1       1.0  0.35192  0.01129  0.88163  1.0000
  Cl  Cl2       1.0  0.14808  0.48871  0.38163  1.0000
  Cl  Cl3       1.0  0.64808  0.98871  0.11837  1.0000
  Cl  Cl4       1.0  0.85192  0.51129  0.61837  1.0000
  O   O1        1.0  0.25025  0.96608  0.94515  1.0000
  O   O2        1.0  0.24975  0.53392  0.44515  1.0000
  O   O3        1.0  0.74975  0.03392  0.05485  1.0000
  O   O4        1.0  0.75025  0.46608  0.55485  1.0000
  O   O5        1.0  0.40929  0.14842  0.89138  1.0000
  O   O6        1.0  0.09071  0.35158  0.39138  1.0000
  O   O7        1.0  0.59071  0.85158  0.10862  1.0000
  O   O8        1.0  0.90929  0.64842  0.60862  1.0000
  O   O9        1.0  0.26418  0.99166  0.81262  1.0000
  O   O10       1.0  0.23581  0.50834  0.31262  1.0000
  O   O11       1.0  0.73582  0.00834  0.18738  1.0000
  O   O12       1.0  0.76419  0.49166  0.68738  1.0000
  O   O13       1.0  0.47791  0.93730  0.88063  1.0000
  O   O14       1.0  0.02209  0.56270  0.38063  1.0000
  O   O15       1.0  0.52209  0.06270  0.11937  1.0000
  O   O16       1.0  0.97791  0.43730  0.61937  1.0000
