data_image0
_chemical_formula_structural       Sr4H40C16S8N8O20
_chemical_formula_sum              "Sr4 H40 C16 S8 N8 O20"
_cell_length_a       8.84391
_cell_length_b       9.93142
_cell_length_c       12.5484
_cell_angle_alpha    90.0001
_cell_angle_beta     97.927
_cell_angle_gamma    89.9999

_space_group_name_H-M_alt    "P 1"
_space_group_IT_number       1

loop_
  _space_group_symop_operation_xyz
  'x, y, z'

loop_
  _atom_site_type_symbol
  _atom_site_label
  _atom_site_symmetry_multiplicity
  _atom_site_fract_x
  _atom_site_fract_y
  _atom_site_fract_z
  _atom_site_occupancy
  Sr  Sr1       1.0  0.67756  0.00884  0.41727  1.0000
  Sr  Sr2       1.0  0.82245  0.50884  0.08273  1.0000
  Sr  Sr3       1.0  0.32244  0.99116  0.58273  1.0000
  Sr  Sr4       1.0  0.17756  0.49116  0.91727  1.0000
  H   H1        1.0  0.82335  0.27616  0.52944  1.0000
  H   H2        1.0  0.67665  0.77616  0.97056  1.0000
  H   H3        1.0  0.17665  0.72384  0.47056  1.0000
  H   H4        1.0  0.32335  0.22384  0.02944  1.0000
  H   H5        1.0  0.84809  0.16573  0.61918  1.0000
  H   H6        1.0  0.65191  0.66573  0.88082  1.0000
  H   H7        1.0  0.15191  0.83427  0.38082  1.0000
  H   H8        1.0  0.34809  0.33427  0.11918  1.0000
  H   H9        1.0  0.34097  0.13018  0.36344  1.0000
  H   H10       1.0  0.15903  0.63018  0.13656  1.0000
  H   H11       1.0  0.65903  0.86981  0.63656  1.0000
  H   H12       1.0  0.84097  0.36982  0.86344  1.0000
  H   H13       1.0  0.32801  0.97581  0.32818  1.0000
  H   H14       1.0  0.17199  0.47581  0.17182  1.0000
  H   H15       1.0  0.67199  0.02419  0.67182  1.0000
  H   H16       1.0  0.82801  0.52419  0.82818  1.0000
  H   H17       1.0  0.82415  0.71858  0.49162  1.0000
  H   H18       1.0  0.67585  0.21858  0.00838  1.0000
  H   H19       1.0  0.17585  0.28142  0.50838  1.0000
  H   H20       1.0  0.32415  0.78142  0.99162  1.0000
  H   H21       1.0  0.95554  0.81639  0.46742  1.0000
  H   H22       1.0  0.54446  0.31640  0.03258  1.0000
  H   H23       1.0  0.04446  0.18360  0.53258  1.0000
  H   H24       1.0  0.45554  0.68361  0.96742  1.0000
  H   H25       1.0  0.48797  0.84358  0.21945  1.0000
  H   H26       1.0  0.01204  0.34358  0.28055  1.0000
  H   H27       1.0  0.51204  0.15642  0.78055  1.0000
  H   H28       1.0  0.98796  0.65642  0.71945  1.0000
  H   H29       1.0  0.58463  0.94655  0.16686  1.0000
  H   H30       1.0  0.91538  0.44655  0.33314  1.0000
  H   H31       1.0  0.41538  0.05346  0.83314  1.0000
  H   H32       1.0  0.08462  0.55346  0.66686  1.0000
  H   H33       1.0  0.73696  0.27412  0.28397  1.0000
  H   H34       1.0  0.76304  0.77412  0.21603  1.0000
  H   H35       1.0  0.26304  0.72588  0.71604  1.0000
  H   H36       1.0  0.23696  0.22588  0.78397  1.0000
  H   H37       1.0  0.55861  0.27203  0.28558  1.0000
  H   H38       1.0  0.94138  0.77204  0.21442  1.0000
  H   H39       1.0  0.44139  0.72797  0.71442  1.0000
  H   H40       1.0  0.05861  0.22797  0.78558  1.0000
  C   C1        1.0  0.30573  0.46801  0.36910  1.0000
  C   C2        1.0  0.19427  0.96802  0.13091  1.0000
  C   C3        1.0  0.69427  0.53198  0.63090  1.0000
  C   C4        1.0  0.80573  0.03198  0.86909  1.0000
  C   C5        1.0  0.42663  0.55556  0.35144  1.0000
  C   C6        1.0  0.07337  0.05556  0.14856  1.0000
  C   C7        1.0  0.57337  0.44443  0.64857  1.0000
  C   C8        1.0  0.92662  0.94444  0.85143  1.0000
  C   C9        1.0  0.46303  0.67187  0.41350  1.0000
  C   C10       1.0  0.03698  0.17188  0.08650  1.0000
  C   C11       1.0  0.53698  0.32812  0.58649  1.0000
  C   C12       1.0  0.96302  0.82813  0.91350  1.0000
  C   C13       1.0  0.51418  0.53576  0.26727  1.0000
  C   C14       1.0  0.98583  0.03576  0.23273  1.0000
  C   C15       1.0  0.48581  0.46424  0.73273  1.0000
  C   C16       1.0  0.01419  0.96424  0.76727  1.0000
  S   S1        1.0  0.27324  0.32737  0.28601  1.0000
  S   S2        1.0  0.22676  0.82737  0.21399  1.0000
  S   S3        1.0  0.72676  0.67263  0.71399  1.0000
  S   S4        1.0  0.77324  0.17263  0.78601  1.0000
  S   S5        1.0  0.19126  0.50180  0.46418  1.0000
  S   S6        1.0  0.30873  0.00180  0.03582  1.0000
  S   S7        1.0  0.80874  0.49820  0.53582  1.0000
  S   S8        1.0  0.69126  0.99820  0.96418  1.0000
  N   N1        1.0  0.49610  0.77215  0.46020  1.0000
  N   N2        1.0  0.00390  0.27216  0.03980  1.0000
  N   N3        1.0  0.50390  0.22785  0.53980  1.0000
  N   N4        1.0  0.99609  0.72785  0.96020  1.0000
  N   N5        1.0  0.58821  0.52450  0.19716  1.0000
  N   N6        1.0  0.91179  0.02450  0.30284  1.0000
  N   N7        1.0  0.41179  0.47550  0.80285  1.0000
  N   N8        1.0  0.08821  0.97550  0.69715  1.0000
  O   O1        1.0  0.85276  0.17950  0.54132  1.0000
  O   O2        1.0  0.64724  0.67951  0.95868  1.0000
  O   O3        1.0  0.14724  0.82049  0.45868  1.0000
  O   O4        1.0  0.35276  0.32050  0.04132  1.0000
  O   O5        1.0  0.37897  0.03847  0.38357  1.0000
  O   O6        1.0  0.12104  0.53847  0.11643  1.0000
  O   O7        1.0  0.62104  0.96152  0.61643  1.0000
  O   O8        1.0  0.87896  0.46152  0.88357  1.0000
  O   O9        1.0  0.84393  0.81200  0.47064  1.0000
  O   O10       1.0  0.65607  0.31200  0.02936  1.0000
  O   O11       1.0  0.15607  0.18800  0.52936  1.0000
  O   O12       1.0  0.34393  0.68800  0.97064  1.0000
  O   O13       1.0  0.59217  0.88336  0.22732  1.0000
  O   O14       1.0  0.90784  0.38336  0.27268  1.0000
  O   O15       1.0  0.40784  0.11664  0.77268  1.0000
  O   O16       1.0  0.09216  0.61664  0.72732  1.0000
  O   O17       1.0  0.65100  0.21705  0.29916  1.0000
  O   O18       1.0  0.84900  0.71705  0.20084  1.0000
  O   O19       1.0  0.34900  0.78295  0.70084  1.0000
  O   O20       1.0  0.15100  0.28295  0.79916  1.0000
