data_image0
_chemical_formula_structural       U4H64C48O28
_chemical_formula_sum              "U4 H64 C48 O28"
_cell_length_a       6.61175
_cell_length_b       12.1432
_cell_length_c       18.629
_cell_angle_alpha    77.8856
_cell_angle_beta     80.3279
_cell_angle_gamma    74.2976

_space_group_name_H-M_alt    "P 1"
_space_group_IT_number       1

loop_
  _space_group_symop_operation_xyz
  'x, y, z'

loop_
  _atom_site_type_symbol
  _atom_site_label
  _atom_site_symmetry_multiplicity
  _atom_site_fract_x
  _atom_site_fract_y
  _atom_site_fract_z
  _atom_site_occupancy
  U   U1        1.0  0.67362  0.26788  0.54632  1.0000
  U   U2        1.0  0.48613  0.23217  0.95300  1.0000
  U   U3        1.0  0.32641  0.73213  0.45368  1.0000
  U   U4        1.0  0.51387  0.76781  0.04700  1.0000
  H   H1        1.0  0.65424  0.05032  0.48038  1.0000
  H   H2        1.0  0.18492  0.44849  0.01974  1.0000
  H   H3        1.0  0.34572  0.94968  0.51963  1.0000
  H   H4        1.0  0.81510  0.55150  0.98025  1.0000
  H   H5        1.0  0.49020  0.16214  0.44756  1.0000
  H   H6        1.0  0.10060  0.33620  0.05000  1.0000
  H   H7        1.0  0.50981  0.83786  0.55244  1.0000
  H   H8        1.0  0.89940  0.66380  0.95000  1.0000
  H   H9        1.0  0.72647  0.98951  0.77268  1.0000
  H   H10       1.0  0.48951  0.51064  0.72677  1.0000
  H   H11       1.0  0.27352  0.01048  0.22732  1.0000
  H   H12       1.0  0.51048  0.48937  0.27324  1.0000
  H   H13       1.0  0.76893  0.11670  0.79497  1.0000
  H   H14       1.0  0.67956  0.38282  0.70565  1.0000
  H   H15       1.0  0.23105  0.88329  0.20503  1.0000
  H   H16       1.0  0.32043  0.61718  0.29434  1.0000
  H   H17       1.0  0.04293  0.09858  0.88002  1.0000
  H   H18       1.0  0.02025  0.39961  0.62225  1.0000
  H   H19       1.0  0.95709  0.90141  0.11999  1.0000
  H   H20       1.0  0.97975  0.60040  0.37776  1.0000
  H   H21       1.0  0.18721  0.95922  0.91964  1.0000
  H   H22       1.0  0.06650  0.53864  0.58363  1.0000
  H   H23       1.0  0.81280  0.04077  0.08036  1.0000
  H   H24       1.0  0.93350  0.46136  0.41637  1.0000
  H   H25       1.0  0.40426  0.05291  0.81545  1.0000
  H   H26       1.0  0.27145  0.44304  0.68942  1.0000
  H   H27       1.0  0.59574  0.94709  0.18456  1.0000
  H   H28       1.0  0.72856  0.55697  0.31058  1.0000
  H   H29       1.0  0.31055  0.09100  0.68673  1.0000
  H   H30       1.0  0.08668  0.40650  0.81699  1.0000
  H   H31       1.0  0.68943  0.90901  0.31327  1.0000
  H   H32       1.0  0.91332  0.59351  0.18301  1.0000
  H   H33       1.0  0.11673  0.17512  0.74370  1.0000
  H   H34       1.0  0.03188  0.32275  0.75947  1.0000
  H   H35       1.0  0.88324  0.82487  0.25630  1.0000
  H   H36       1.0  0.96813  0.67726  0.24053  1.0000
  H   H37       1.0  0.00350  0.87099  0.68866  1.0000
  H   H38       1.0  0.56609  0.62914  0.81200  1.0000
  H   H39       1.0  0.99649  0.12900  0.31135  1.0000
  H   H40       1.0  0.43392  0.37087  0.18801  1.0000
  H   H41       1.0  0.24425  0.91161  0.65496  1.0000
  H   H42       1.0  0.81343  0.58703  0.84729  1.0000
  H   H43       1.0  0.75573  0.08838  0.34504  1.0000
  H   H44       1.0  0.18660  0.41297  0.15271  1.0000
  H   H45       1.0  0.29480  0.74692  0.76116  1.0000
  H   H46       1.0  0.80755  0.75134  0.74101  1.0000
  H   H47       1.0  0.70520  0.25308  0.23885  1.0000
  H   H48       1.0  0.19244  0.24867  0.25899  1.0000
  H   H49       1.0  0.93210  0.79063  0.82834  1.0000
  H   H50       1.0  0.55443  0.70850  0.67237  1.0000
  H   H51       1.0  0.06792  0.20936  0.17167  1.0000
  H   H52       1.0  0.44555  0.29150  0.32764  1.0000
  H   H53       1.0  0.12787  0.77748  0.88733  1.0000
  H   H54       1.0  0.79499  0.72097  0.61443  1.0000
  H   H55       1.0  0.87215  0.22252  0.11267  1.0000
  H   H56       1.0  0.20498  0.27904  0.38557  1.0000
  H   H57       1.0  0.46825  0.83485  0.83611  1.0000
  H   H58       1.0  0.14189  0.66136  0.66796  1.0000
  H   H59       1.0  0.53176  0.16515  0.16388  1.0000
  H   H60       1.0  0.85809  0.33865  0.33203  1.0000
  H   H61       1.0  0.51474  0.89201  0.74038  1.0000
  H   H62       1.0  0.14915  0.60461  0.76399  1.0000
  H   H63       1.0  0.48525  0.10799  0.25961  1.0000
  H   H64       1.0  0.85085  0.39541  0.23601  1.0000
  C   C1        1.0  0.90596  0.11007  0.65398  1.0000
  C   C2        1.0  0.66848  0.38984  0.84695  1.0000
  C   C3        1.0  0.09404  0.88993  0.34602  1.0000
  C   C4        1.0  0.33152  0.61016  0.15306  1.0000
  C   C5        1.0  0.77518  0.95422  0.91972  1.0000
  C   C6        1.0  0.64976  0.54506  0.58083  1.0000
  C   C7        1.0  0.22481  0.04578  0.08028  1.0000
  C   C8        1.0  0.35024  0.45495  0.41917  1.0000
  C   C9        1.0  0.01914  0.03298  0.71755  1.0000
  C   C10       1.0  0.76920  0.46627  0.78409  1.0000
  C   C11       1.0  0.98086  0.96702  0.28245  1.0000
  C   C12       1.0  0.23079  0.53374  0.21591  1.0000
  C   C13       1.0  0.84620  0.02819  0.78503  1.0000
  C   C14       1.0  0.65950  0.47131  0.71563  1.0000
  C   C15       1.0  0.15380  0.97180  0.21498  1.0000
  C   C16       1.0  0.34050  0.52869  0.28438  1.0000
  C   C17       1.0  0.94754  0.95411  0.85430  1.0000
  C   C18       1.0  0.75717  0.54463  0.64701  1.0000
  C   C19       1.0  0.05246  0.04588  0.14570  1.0000
  C   C20       1.0  0.24282  0.45537  0.35300  1.0000
  C   C21       1.0  0.11654  0.00990  0.86988  1.0000
  C   C22       1.0  0.99627  0.48800  0.63282  1.0000
  C   C23       1.0  0.88346  0.99009  0.13013  1.0000
  C   C24       1.0  0.00373  0.51200  0.36718  1.0000
  C   C25       1.0  0.28736  0.01234  0.80320  1.0000
  C   C26       1.0  0.10260  0.48459  0.70053  1.0000
  C   C27       1.0  0.71265  0.98765  0.19681  1.0000
  C   C28       1.0  0.89740  0.51542  0.29946  1.0000
  C   C29       1.0  0.18861  0.08601  0.73463  1.0000
  C   C30       1.0  0.00753  0.41183  0.76848  1.0000
  C   C31       1.0  0.81138  0.91399  0.26537  1.0000
  C   C32       1.0  0.99247  0.58818  0.23151  1.0000
  C   C33       1.0  0.12143  0.90902  0.70292  1.0000
  C   C34       1.0  0.73538  0.59016  0.79876  1.0000
  C   C35       1.0  0.87857  0.09098  0.29708  1.0000
  C   C36       1.0  0.26462  0.40984  0.20124  1.0000
  C   C37       1.0  0.22241  0.83571  0.77160  1.0000
  C   C38       1.0  0.83276  0.66254  0.73064  1.0000
  C   C39       1.0  0.77760  0.16429  0.22840  1.0000
  C   C40       1.0  0.16723  0.33747  0.26936  1.0000
  C   C41       1.0  0.05279  0.83059  0.83884  1.0000
  C   C42       1.0  0.72493  0.66808  0.66261  1.0000
  C   C43       1.0  0.94722  0.16941  0.16116  1.0000
  C   C44       1.0  0.27506  0.33192  0.33739  1.0000
  C   C45       1.0  0.39164  0.88900  0.78819  1.0000
  C   C46       1.0  0.07081  0.60787  0.71554  1.0000
  C   C47       1.0  0.60836  0.11100  0.21180  1.0000
  C   C48       1.0  0.92919  0.39214  0.28445  1.0000
  O   O1        1.0  0.88422  0.22052  0.64476  1.0000
  O   O2        1.0  0.74630  0.27924  0.85604  1.0000
  O   O3        1.0  0.11577  0.77948  0.35525  1.0000
  O   O4        1.0  0.25370  0.72076  0.14395  1.0000
  O   O5        1.0  0.82277  0.06999  0.61079  1.0000
  O   O6        1.0  0.50321  0.43020  0.88954  1.0000
  O   O7        1.0  0.17725  0.93001  0.38920  1.0000
  O   O8        1.0  0.49680  0.56980  0.11048  1.0000
  O   O9        1.0  0.72304  0.85994  0.94937  1.0000
  O   O10       1.0  0.52908  0.63910  0.55217  1.0000
  O   O11       1.0  0.27694  0.14006  0.05062  1.0000
  O   O12       1.0  0.47096  0.36091  0.44782  1.0000
  O   O13       1.0  0.68721  0.04954  0.94320  1.0000
  O   O14       1.0  0.68366  0.45064  0.55589  1.0000
  O   O15       1.0  0.31280  0.95046  0.05679  1.0000
  O   O16       1.0  0.31636  0.54936  0.44412  1.0000
  O   O17       1.0  0.54907  0.11922  0.49301  1.0000
  O   O18       1.0  0.16093  0.38069  0.00543  1.0000
  O   O19       1.0  0.45096  0.88080  0.50699  1.0000
  O   O20       1.0  0.83908  0.61932  0.99456  1.0000
  O   O21       1.0  0.90823  0.25121  0.47966  1.0000
  O   O22       1.0  0.63793  0.24831  0.02078  1.0000
  O   O23       1.0  0.09180  0.74880  0.52035  1.0000
  O   O24       1.0  0.36205  0.75166  0.97922  1.0000
  O   O25       1.0  0.43741  0.27934  0.61151  1.0000
  O   O26       1.0  0.32566  0.22169  0.88670  1.0000
  O   O27       1.0  0.56260  0.72068  0.38848  1.0000
  O   O28       1.0  0.67434  0.77831  0.11329  1.0000
