data_image0
_chemical_formula_structural       Cd2H28C36N4O14
_chemical_formula_sum              "Cd2 H28 C36 N4 O14"
_cell_length_a       8.94013
_cell_length_b       11.0323
_cell_length_c       11.0323
_cell_angle_alpha    99.3624
_cell_angle_beta     113.569
_cell_angle_gamma    113.569

_space_group_name_H-M_alt    "P 1"
_space_group_IT_number       1

loop_
  _space_group_symop_operation_xyz
  'x, y, z'

loop_
  _atom_site_type_symbol
  _atom_site_label
  _atom_site_symmetry_multiplicity
  _atom_site_fract_x
  _atom_site_fract_y
  _atom_site_fract_z
  _atom_site_occupancy
  Cd  Cd1       1.0  0.75000  0.88007  0.11993  1.0000
  Cd  Cd2       1.0  0.25000  0.11993  0.88007  1.0000
  H   H1        1.0  0.72458  0.43966  0.03466  1.0000
  H   H2        1.0  0.77542  0.96534  0.56034  1.0000
  H   H3        1.0  0.27542  0.56034  0.96534  1.0000
  H   H4        1.0  0.22458  0.03466  0.43966  1.0000
  H   H5        1.0  0.21024  0.74870  0.03439  1.0000
  H   H6        1.0  0.28976  0.96561  0.25129  1.0000
  H   H7        1.0  0.78976  0.25130  0.96561  1.0000
  H   H8        1.0  0.71024  0.03439  0.74871  1.0000
  H   H9        1.0  0.46765  0.46499  0.84998  1.0000
  H   H10       1.0  0.03235  0.15002  0.53501  1.0000
  H   H11       1.0  0.53235  0.53501  0.15002  1.0000
  H   H12       1.0  0.96765  0.84998  0.46499  1.0000
  H   H13       1.0  0.48435  0.35847  0.64428  1.0000
  H   H14       1.0  0.01565  0.35572  0.64153  1.0000
  H   H15       1.0  0.51565  0.64153  0.35571  1.0000
  H   H16       1.0  0.98435  0.64428  0.35847  1.0000
  H   H17       1.0  0.49967  0.71886  0.52612  1.0000
  H   H18       1.0  0.00033  0.47388  0.28114  1.0000
  H   H19       1.0  0.50033  0.28114  0.47388  1.0000
  H   H20       1.0  0.99967  0.52612  0.71886  1.0000
  H   H21       1.0  0.48139  0.80814  0.73836  1.0000
  H   H22       1.0  0.01861  0.26164  0.19186  1.0000
  H   H23       1.0  0.51861  0.19186  0.26164  1.0000
  H   H24       1.0  0.98139  0.73836  0.80814  1.0000
  H   H25       1.0  0.86177  0.07521  0.97945  1.0000
  H   H26       1.0  0.63823  0.02055  0.92479  1.0000
  H   H27       1.0  0.13823  0.92479  0.02055  1.0000
  H   H28       1.0  0.36177  0.97945  0.07521  1.0000
  C   C1        1.0  0.91241  0.71727  0.07518  1.0000
  C   C2        1.0  0.58759  0.92482  0.28273  1.0000
  C   C3        1.0  0.08758  0.28273  0.92483  1.0000
  C   C4        1.0  0.41241  0.07517  0.71727  1.0000
  C   C5        1.0  0.96175  0.60724  0.03866  1.0000
  C   C6        1.0  0.53825  0.96135  0.39276  1.0000
  C   C7        1.0  0.03825  0.39276  0.96135  1.0000
  C   C8        1.0  0.46175  0.03865  0.60724  1.0000
  C   C9        1.0  0.84494  0.46617  0.01884  1.0000
  C   C10       1.0  0.65506  0.98117  0.53384  1.0000
  C   C11       1.0  0.15506  0.53384  0.98117  1.0000
  C   C12       1.0  0.34494  0.01883  0.46617  1.0000
  C   C13       1.0  0.11725  0.64012  0.01950  1.0000
  C   C14       1.0  0.38276  0.98050  0.35989  1.0000
  C   C15       1.0  0.88275  0.35989  0.98050  1.0000
  C   C16       1.0  0.61725  0.01950  0.64012  1.0000
  C   C17       1.0  0.48021  0.51636  0.77564  1.0000
  C   C18       1.0  0.01979  0.22436  0.48364  1.0000
  C   C19       1.0  0.51979  0.48364  0.22436  1.0000
  C   C20       1.0  0.98021  0.77564  0.51636  1.0000
  C   C21       1.0  0.48875  0.46010  0.65892  1.0000
  C   C22       1.0  0.01125  0.34108  0.53990  1.0000
  C   C23       1.0  0.51124  0.53990  0.34107  1.0000
  C   C24       1.0  0.98875  0.65892  0.46010  1.0000
  C   C25       1.0  0.49648  0.52919  0.56296  1.0000
  C   C26       1.0  0.00352  0.43703  0.47081  1.0000
  C   C27       1.0  0.50352  0.47081  0.43703  1.0000
  C   C28       1.0  0.99648  0.56296  0.52919  1.0000
  C   C29       1.0  0.49437  0.65729  0.59350  1.0000
  C   C30       1.0  0.00564  0.40650  0.34271  1.0000
  C   C31       1.0  0.50564  0.34271  0.40650  1.0000
  C   C32       1.0  0.99436  0.59350  0.65729  1.0000
  C   C33       1.0  0.48524  0.71081  0.71055  1.0000
  C   C34       1.0  0.01476  0.28945  0.28918  1.0000
  C   C35       1.0  0.51476  0.28918  0.28945  1.0000
  C   C36       1.0  0.98524  0.71055  0.71081  1.0000
  N   N1        1.0  0.47920  0.64116  0.80150  1.0000
  N   N2        1.0  0.02080  0.19850  0.35884  1.0000
  N   N3        1.0  0.52080  0.35884  0.19850  1.0000
  N   N4        1.0  0.97919  0.80150  0.64116  1.0000
  O   O1        1.0  0.82238  0.69937  0.14219  1.0000
  O   O2        1.0  0.67762  0.85781  0.30063  1.0000
  O   O3        1.0  0.17762  0.30063  0.85781  1.0000
  O   O4        1.0  0.32238  0.14219  0.69937  1.0000
  O   O5        1.0  0.95401  0.82212  0.03457  1.0000
  O   O6        1.0  0.54598  0.96543  0.17788  1.0000
  O   O7        1.0  0.04599  0.17788  0.96543  1.0000
  O   O8        1.0  0.45401  0.03457  0.82212  1.0000
  O   O9        1.0  0.46714  0.69226  0.91126  1.0000
  O   O10       1.0  0.03286  0.08874  0.30774  1.0000
  O   O11       1.0  0.53286  0.30773  0.08874  1.0000
  O   O12       1.0  0.96714  0.91126  0.69227  1.0000
  O   O13       1.0  0.75000  0.01400  0.98599  1.0000
  O   O14       1.0  0.25000  0.98600  0.01401  1.0000
