data_image0
_chemical_formula_structural       La2H30C48O18
_chemical_formula_sum              "La2 H30 C48 O18"
_cell_length_a       7.82915
_cell_length_b       9.44943
_cell_length_c       13.7421
_cell_angle_alpha    79.3857
_cell_angle_beta     89.3815
_cell_angle_gamma    84.7898

_space_group_name_H-M_alt    "P 1"
_space_group_IT_number       1

loop_
  _space_group_symop_operation_xyz
  'x, y, z'

loop_
  _atom_site_type_symbol
  _atom_site_label
  _atom_site_symmetry_multiplicity
  _atom_site_fract_x
  _atom_site_fract_y
  _atom_site_fract_z
  _atom_site_occupancy
  La  La1       1.0  0.25819  0.96916  0.55170  1.0000
  La  La2       1.0  0.74181  0.03085  0.44830  1.0000
  H   H1        1.0  0.16362  0.04275  0.77524  1.0000
  H   H2        1.0  0.83638  0.95725  0.22476  1.0000
  H   H3        1.0  0.95121  0.89325  0.68872  1.0000
  H   H4        1.0  0.04879  0.10675  0.31128  1.0000
  H   H5        1.0  0.11637  0.82354  0.75985  1.0000
  H   H6        1.0  0.88363  0.17647  0.24015  1.0000
  H   H7        1.0  0.17115  0.16364  0.16154  1.0000
  H   H8        1.0  0.82885  0.83635  0.83847  1.0000
  H   H9        1.0  0.84792  0.37420  0.43560  1.0000
  H   H10       1.0  0.15209  0.62580  0.56440  1.0000
  H   H11       1.0  0.69430  0.54223  0.24211  1.0000
  H   H12       1.0  0.30570  0.45776  0.75788  1.0000
  H   H13       1.0  0.64877  0.59505  0.42584  1.0000
  H   H14       1.0  0.35124  0.40496  0.57415  1.0000
  H   H15       1.0  0.98620  0.37443  0.92175  1.0000
  H   H16       1.0  0.01379  0.62557  0.07825  1.0000
  H   H17       1.0  0.11304  0.12882  0.99163  1.0000
  H   H18       1.0  0.88696  0.87119  0.00837  1.0000
  H   H19       1.0  0.04745  0.26433  0.77545  1.0000
  H   H20       1.0  0.95254  0.73567  0.22455  1.0000
  H   H21       1.0  0.61840  0.69035  0.75539  1.0000
  H   H22       1.0  0.38159  0.30965  0.24461  1.0000
  H   H23       1.0  0.55555  0.75591  0.30206  1.0000
  H   H24       1.0  0.44446  0.24408  0.69794  1.0000
  H   H25       1.0  0.77153  0.58854  0.91258  1.0000
  H   H26       1.0  0.22846  0.41146  0.08742  1.0000
  H   H27       1.0  0.45895  0.69254  0.95571  1.0000
  H   H28       1.0  0.54104  0.30746  0.04428  1.0000
  H   H29       1.0  0.65458  0.51613  0.06755  1.0000
  H   H30       1.0  0.34541  0.48386  0.93244  1.0000
  C   C1        1.0  0.01075  0.21660  0.58666  1.0000
  C   C2        1.0  0.98925  0.78341  0.41334  1.0000
  C   C3        1.0  0.89774  0.35070  0.59096  1.0000
  C   C4        1.0  0.10226  0.64930  0.40904  1.0000
  C   C5        1.0  0.66734  0.60049  0.58071  1.0000
  C   C6        1.0  0.33267  0.39951  0.41929  1.0000
  C   C7        1.0  0.86959  0.41275  0.67836  1.0000
  C   C8        1.0  0.13041  0.58725  0.32163  1.0000
  C   C9        1.0  0.38288  0.00241  0.29778  1.0000
  C   C10       1.0  0.61712  0.99758  0.70223  1.0000
  C   C11       1.0  0.34168  0.96996  0.19790  1.0000
  C   C12       1.0  0.65833  0.03003  0.80210  1.0000
  C   C13       1.0  0.53158  0.72358  0.57180  1.0000
  C   C14       1.0  0.46842  0.27642  0.42820  1.0000
  C   C15       1.0  0.38970  0.82591  0.06498  1.0000
  C   C16       1.0  0.61030  0.17409  0.93502  1.0000
  C   C17       1.0  0.74807  0.53804  0.67315  1.0000
  C   C18       1.0  0.25193  0.46196  0.32685  1.0000
  C   C19       1.0  0.23092  0.06832  0.13621  1.0000
  C   C20       1.0  0.76908  0.93168  0.86380  1.0000
  C   C21       1.0  0.81981  0.41857  0.50222  1.0000
  C   C22       1.0  0.18018  0.58144  0.49778  1.0000
  C   C23       1.0  0.27430  0.93073  0.00367  1.0000
  C   C24       1.0  0.72570  0.06927  0.99633  1.0000
  C   C25       1.0  0.61180  0.62327  0.19307  1.0000
  C   C26       1.0  0.38820  0.37672  0.80692  1.0000
  C   C27       1.0  0.42195  0.84579  0.16440  1.0000
  C   C28       1.0  0.57806  0.15421  0.83560  1.0000
  C   C29       1.0  0.70777  0.54416  0.49644  1.0000
  C   C30       1.0  0.29224  0.45584  0.50356  1.0000
  C   C31       1.0  0.91940  0.41957  0.85214  1.0000
  C   C32       1.0  0.08059  0.58043  0.14786  1.0000
  C   C33       1.0  0.19904  0.04950  0.03953  1.0000
  C   C34       1.0  0.80096  0.95050  0.96048  1.0000
  C   C35       1.0  0.95317  0.35655  0.77029  1.0000
  C   C36       1.0  0.04683  0.64345  0.22971  1.0000
  C   C37       1.0  0.71470  0.59878  0.75925  1.0000
  C   C38       1.0  0.28530  0.40122  0.24075  1.0000
  C   C39       1.0  0.53185  0.74046  0.22699  1.0000
  C   C40       1.0  0.46816  0.25953  0.77301  1.0000
  C   C41       1.0  0.22561  0.91755  0.90185  1.0000
  C   C42       1.0  0.77439  0.08244  0.09815  1.0000
  C   C43       1.0  0.79910  0.54109  0.84697  1.0000
  C   C44       1.0  0.20089  0.45891  0.15303  1.0000
  C   C45       1.0  0.47908  0.70637  0.03147  1.0000
  C   C46       1.0  0.52091  0.29363  0.96852  1.0000
  C   C47       1.0  0.58788  0.60811  0.09395  1.0000
  C   C48       1.0  0.41211  0.39188  0.90604  1.0000
  O   O1        1.0  0.18858  0.04752  0.84490  1.0000
  O   O2        1.0  0.81143  0.95249  0.15510  1.0000
  O   O3        1.0  0.25887  0.02033  0.35735  1.0000
  O   O4        1.0  0.74114  0.97966  0.64265  1.0000
  O   O5        1.0  0.54601  0.83539  0.50249  1.0000
  O   O6        1.0  0.45400  0.16461  0.49751  1.0000
  O   O7        1.0  0.53869  0.01394  0.31549  1.0000
  O   O8        1.0  0.46131  0.98606  0.68451  1.0000
  O   O9        1.0  0.98383  0.14745  0.51560  1.0000
  O   O10       1.0  0.01617  0.85255  0.48440  1.0000
  O   O11       1.0  0.40200  0.71612  0.62715  1.0000
  O   O12       1.0  0.59800  0.28389  0.37285  1.0000
  O   O13       1.0  0.13435  0.17029  0.64653  1.0000
  O   O14       1.0  0.86566  0.82972  0.35347  1.0000
  O   O15       1.0  0.07386  0.85655  0.69033  1.0000
  O   O16       1.0  0.92614  0.14346  0.30968  1.0000
  O   O17       1.0  0.21417  0.80204  0.87272  1.0000
  O   O18       1.0  0.78582  0.19798  0.12729  1.0000
