data_image0
_chemical_formula_structural       Sm2H30C48O18
_chemical_formula_sum              "Sm2 H30 C48 O18"
_cell_length_a       7.66061
_cell_length_b       9.66322
_cell_length_c       13.6469
_cell_angle_alpha    81.6739
_cell_angle_beta     88.3093
_cell_angle_gamma    82.7943

_space_group_name_H-M_alt    "P 1"
_space_group_IT_number       1

loop_
  _space_group_symop_operation_xyz
  'x, y, z'

loop_
  _atom_site_type_symbol
  _atom_site_label
  _atom_site_symmetry_multiplicity
  _atom_site_fract_x
  _atom_site_fract_y
  _atom_site_fract_z
  _atom_site_occupancy
  Sm  Sm1       1.0  0.75686  0.98233  0.04937  1.0000
  Sm  Sm2       1.0  0.24314  0.01767  0.95063  1.0000
  H   H1        1.0  0.58969  0.98213  0.24510  1.0000
  H   H2        1.0  0.41031  0.01787  0.75491  1.0000
  H   H3        1.0  0.44461  0.93464  0.17843  1.0000
  H   H4        1.0  0.55538  0.06536  0.82157  1.0000
  H   H5        1.0  0.86525  0.39251  0.08006  1.0000
  H   H6        1.0  0.13476  0.60750  0.91994  1.0000
  H   H7        1.0  0.66677  0.61600  0.07880  1.0000
  H   H8        1.0  0.33325  0.38401  0.92120  1.0000
  H   H9        1.0  0.47368  0.74165  0.73990  1.0000
  H   H10       1.0  0.52632  0.25834  0.26010  1.0000
  H   H11       1.0  0.52966  0.63232  0.58900  1.0000
  H   H12       1.0  0.47033  0.36768  0.41101  1.0000
  H   H13       1.0  0.73353  0.40926  0.59102  1.0000
  H   H14       1.0  0.26647  0.59074  0.40898  1.0000
  H   H15       1.0  0.30249  0.19557  0.69585  1.0000
  H   H16       1.0  0.69749  0.80443  0.30415  1.0000
  H   H17       1.0  0.88788  0.30018  0.74459  1.0000
  H   H18       1.0  0.11212  0.69982  0.25541  1.0000
  H   H19       1.0  0.31885  0.83368  0.33405  1.0000
  H   H20       1.0  0.68115  0.16631  0.66595  1.0000
  H   H21       1.0  0.37574  0.87169  0.50598  1.0000
  H   H22       1.0  0.62426  0.12831  0.49402  1.0000
  H   H23       1.0  0.02763  0.31449  0.54592  1.0000
  H   H24       1.0  0.97237  0.68551  0.45408  1.0000
  H   H25       1.0  0.83596  0.48891  0.43572  1.0000
  H   H26       1.0  0.16404  0.51109  0.56428  1.0000
  H   H27       1.0  0.79349  0.45524  0.26096  1.0000
  H   H28       1.0  0.20650  0.54476  0.73904  1.0000
  H   H29       1.0  0.93078  0.23786  0.20047  1.0000
  H   H30       1.0  0.06922  0.76213  0.79953  1.0000
  C   C1        1.0  0.84505  0.38904  0.92429  1.0000
  C   C2        1.0  0.15496  0.61096  0.07571  1.0000
  C   C3        1.0  0.80624  0.44541  0.01106  1.0000
  C   C4        1.0  0.19376  0.55459  0.98894  1.0000
  C   C5        1.0  0.69409  0.57185  0.01031  1.0000
  C   C6        1.0  0.30591  0.42814  0.98969  1.0000
  C   C7        1.0  0.61614  0.64128  0.92363  1.0000
  C   C8        1.0  0.38386  0.35872  0.07637  1.0000
  C   C9        1.0  0.64515  0.58257  0.83289  1.0000
  C   C10       1.0  0.35485  0.41743  0.16711  1.0000
  C   C11       1.0  0.56392  0.64516  0.74222  1.0000
  C   C12       1.0  0.43608  0.35484  0.25778  1.0000
  C   C13       1.0  0.59483  0.58301  0.65753  1.0000
  C   C14       1.0  0.40516  0.41699  0.34248  1.0000
  C   C15       1.0  0.70982  0.45687  0.65859  1.0000
  C   C16       1.0  0.29018  0.54313  0.34140  1.0000
  C   C17       1.0  0.79454  0.39496  0.74449  1.0000
  C   C18       1.0  0.20546  0.60504  0.25551  1.0000
  C   C19       1.0  0.76457  0.45473  0.83346  1.0000
  C   C20       1.0  0.23544  0.54527  0.16654  1.0000
  C   C21       1.0  0.97913  0.26229  0.92926  1.0000
  C   C22       1.0  0.02088  0.73771  0.07074  1.0000
  C   C23       1.0  0.49566  0.77202  0.93227  1.0000
  C   C24       1.0  0.50434  0.22799  0.06773  1.0000
  C   C25       1.0  0.14866  0.02835  0.30090  1.0000
  C   C26       1.0  0.85135  0.97164  0.69910  1.0000
  C   C27       1.0  0.25796  0.92904  0.36140  1.0000
  C   C28       1.0  0.74204  0.07095  0.63860  1.0000
  C   C29       1.0  0.28994  0.95002  0.45830  1.0000
  C   C30       1.0  0.71005  0.04998  0.54170  1.0000
  C   C31       1.0  0.21662  0.07042  0.49627  1.0000
  C   C32       1.0  0.78338  0.92958  0.50373  1.0000
  C   C33       1.0  0.09991  0.17514  0.43651  1.0000
  C   C34       1.0  0.90008  0.82486  0.56349  1.0000
  C   C35       1.0  0.00996  0.29751  0.47017  1.0000
  C   C36       1.0  0.99004  0.70249  0.52983  1.0000
  C   C37       1.0  0.90185  0.39510  0.40826  1.0000
  C   C38       1.0  0.09814  0.60491  0.59174  1.0000
  C   C39       1.0  0.87698  0.37609  0.30939  1.0000
  C   C40       1.0  0.12303  0.62391  0.69061  1.0000
  C   C41       1.0  0.95632  0.25635  0.27515  1.0000
  C   C42       1.0  0.04369  0.74365  0.72485  1.0000
  C   C43       1.0  0.06741  0.15291  0.33676  1.0000
  C   C44       1.0  0.93260  0.84708  0.66324  1.0000
  C   C45       1.0  0.10867  0.00023  0.19881  1.0000
  C   C46       1.0  0.89134  0.99977  0.80119  1.0000
  C   C47       1.0  0.27448  0.07743  0.59808  1.0000
  C   C48       1.0  0.72550  0.92258  0.40191  1.0000
  O   O1        1.0  0.96062  0.15490  0.99619  1.0000
  O   O2        1.0  0.03939  0.84511  0.00381  1.0000
  O   O3        1.0  0.57305  0.91810  0.19486  1.0000
  O   O4        1.0  0.42695  0.08190  0.80514  1.0000
  O   O5        1.0  0.11344  0.26091  0.87345  1.0000
  O   O6        1.0  0.88656  0.73909  0.12655  1.0000
  O   O7        1.0  0.35814  0.80488  0.88088  1.0000
  O   O8        1.0  0.64187  0.19512  0.11912  1.0000
  O   O9        1.0  0.52951  0.85202  0.99670  1.0000
  O   O10       1.0  0.47049  0.14798  0.00331  1.0000
  O   O11       1.0  0.94990  0.99323  0.18122  1.0000
  O   O12       1.0  0.05011  0.00677  0.81878  1.0000
  O   O13       1.0  0.23694  0.98335  0.13688  1.0000
  O   O14       1.0  0.76306  0.01666  0.86312  1.0000
  O   O15       1.0  0.34443  0.97166  0.65165  1.0000
  O   O16       1.0  0.65556  0.02834  0.34836  1.0000
  O   O17       1.0  0.25522  0.20598  0.62764  1.0000
  O   O18       1.0  0.74476  0.79402  0.37236  1.0000
