data_image0
_chemical_formula_structural       Cu2H30C26S2N4Cl2O6
_chemical_formula_sum              "Cu2 H30 C26 S2 N4 Cl2 O6"
_cell_length_a       7.62855
_cell_length_b       10.1924
_cell_length_c       11.188
_cell_angle_alpha    76.2064
_cell_angle_beta     86.5164
_cell_angle_gamma    76.9073

_space_group_name_H-M_alt    "P 1"
_space_group_IT_number       1

loop_
  _space_group_symop_operation_xyz
  'x, y, z'

loop_
  _atom_site_type_symbol
  _atom_site_label
  _atom_site_symmetry_multiplicity
  _atom_site_fract_x
  _atom_site_fract_y
  _atom_site_fract_z
  _atom_site_occupancy
  Cu  Cu1       1.0  0.86115  0.88431  0.04732  1.0000
  Cu  Cu2       1.0  0.13884  0.11569  0.95268  1.0000
  H   H1        1.0  0.17508  0.89565  0.21420  1.0000
  H   H2        1.0  0.82491  0.10435  0.78580  1.0000
  H   H3        1.0  0.18955  0.87026  0.51659  1.0000
  H   H4        1.0  0.81047  0.12975  0.48342  1.0000
  H   H5        1.0  0.03984  0.45844  0.17403  1.0000
  H   H6        1.0  0.96017  0.54155  0.82597  1.0000
  H   H7        1.0  0.26634  0.45453  0.20119  1.0000
  H   H8        1.0  0.73366  0.54547  0.79881  1.0000
  H   H9        1.0  0.34904  0.55007  0.84241  1.0000
  H   H10       1.0  0.65094  0.44993  0.15759  1.0000
  H   H11       1.0  0.25097  0.57198  0.02981  1.0000
  H   H12       1.0  0.74902  0.42802  0.97019  1.0000
  H   H13       1.0  0.98272  0.01215  0.64329  1.0000
  H   H14       1.0  0.01730  0.98786  0.35671  1.0000
  H   H15       1.0  0.28329  0.61465  0.35086  1.0000
  H   H16       1.0  0.71672  0.38535  0.64913  1.0000
  H   H17       1.0  0.35202  0.67253  0.19628  1.0000
  H   H18       1.0  0.64798  0.32746  0.80371  1.0000
  H   H19       1.0  0.19868  0.42829  0.42876  1.0000
  H   H20       1.0  0.80132  0.57171  0.57124  1.0000
  H   H21       1.0  0.15556  0.29297  0.36883  1.0000
  H   H22       1.0  0.84445  0.70703  0.63117  1.0000
  H   H23       1.0  0.97358  0.42190  0.40088  1.0000
  H   H24       1.0  0.02642  0.57810  0.59912  1.0000
  H   H25       1.0  0.80744  0.62531  0.27220  1.0000
  H   H26       1.0  0.19256  0.37469  0.72781  1.0000
  H   H27       1.0  0.92938  0.66944  0.38404  1.0000
  H   H28       1.0  0.07062  0.33056  0.61596  1.0000
  H   H29       1.0  0.69680  0.85154  0.25604  1.0000
  H   H30       1.0  0.30320  0.14846  0.74397  1.0000
  C   C1        1.0  0.17716  0.83253  0.61583  1.0000
  C   C2        1.0  0.82285  0.16748  0.38418  1.0000
  C   C3        1.0  0.12765  0.48648  0.23375  1.0000
  C   C4        1.0  0.87236  0.51352  0.76625  1.0000
  C   C5        1.0  0.26764  0.65091  0.79822  1.0000
  C   C6        1.0  0.73235  0.34909  0.20179  1.0000
  C   C7        1.0  0.27991  0.70213  0.67307  1.0000
  C   C8        1.0  0.72009  0.29787  0.32693  1.0000
  C   C9        1.0  0.04173  0.86088  0.81460  1.0000
  C   C10       1.0  0.95827  0.13913  0.18541  1.0000
  C   C11       1.0  0.14855  0.72826  0.87112  1.0000
  C   C12       1.0  0.85144  0.27174  0.12888  1.0000
  C   C13       1.0  0.07908  0.64594  0.21616  1.0000
  C   C14       1.0  0.92091  0.35405  0.78385  1.0000
  C   C15       1.0  0.14992  0.66870  0.00079  1.0000
  C   C16       1.0  0.85008  0.33130  0.99921  1.0000
  C   C17       1.0  0.55234  0.14421  0.01855  1.0000
  C   C18       1.0  0.44763  0.85582  0.98145  1.0000
  C   C19       1.0  0.06075  0.90980  0.68548  1.0000
  C   C20       1.0  0.93926  0.09021  0.31452  1.0000
  C   C21       1.0  0.24101  0.68812  0.26332  1.0000
  C   C22       1.0  0.75899  0.31188  0.73667  1.0000
  C   C23       1.0  0.11231  0.40400  0.36582  1.0000
  C   C24       1.0  0.88769  0.59600  0.63418  1.0000
  C   C25       1.0  0.90313  0.68674  0.28551  1.0000
  C   C26       1.0  0.09686  0.31325  0.71449  1.0000
  S   S1        1.0  0.38431  0.27683  0.99246  1.0000
  S   S2        1.0  0.61570  0.72318  0.00754  1.0000
  N   N1        1.0  0.04789  0.71760  0.08424  1.0000
  N   N2        1.0  0.95211  0.28240  0.91576  1.0000
  N   N3        1.0  0.67601  0.04819  0.03859  1.0000
  N   N4        1.0  0.32401  0.95180  0.96142  1.0000
  Cl  Cl1       1.0  0.42058  0.60456  0.58317  1.0000
  Cl  Cl2       1.0  0.57942  0.39544  0.41684  1.0000
  O   O1        1.0  0.82565  0.83228  0.23820  1.0000
  O   O2        1.0  0.17434  0.16772  0.76181  1.0000
  O   O3        1.0  0.93109  0.94092  0.87591  1.0000
  O   O4        1.0  0.06891  0.05908  0.12409  1.0000
  O   O5        1.0  0.21084  0.82049  0.28873  1.0000
  O   O6        1.0  0.78917  0.17951  0.71127  1.0000
