data_image0
_chemical_formula_structural       Dy2H14C16S2O18
_chemical_formula_sum              "Dy2 H14 C16 S2 O18"
_cell_length_a       5.82786
_cell_length_b       9.28758
_cell_length_c       10.5122
_cell_angle_alpha    100.235
_cell_angle_beta     92.0356
_cell_angle_gamma    109.997

_space_group_name_H-M_alt    "P 1"
_space_group_IT_number       1

loop_
  _space_group_symop_operation_xyz
  'x, y, z'

loop_
  _atom_site_type_symbol
  _atom_site_label
  _atom_site_symmetry_multiplicity
  _atom_site_fract_x
  _atom_site_fract_y
  _atom_site_fract_z
  _atom_site_occupancy
  Dy  Dy1       1.0  0.16421  0.19310  0.89256  1.0000
  Dy  Dy2       1.0  0.83580  0.80690  0.10744  1.0000
  H   H1        1.0  0.94859  0.33627  0.11224  1.0000
  H   H2        1.0  0.05141  0.66373  0.88776  1.0000
  H   H3        1.0  0.78015  0.15563  0.07059  1.0000
  H   H4        1.0  0.21985  0.84437  0.92941  1.0000
  H   H5        1.0  0.29046  0.52471  0.03255  1.0000
  H   H6        1.0  0.70954  0.47529  0.96745  1.0000
  H   H7        1.0  0.35185  0.54071  0.89332  1.0000
  H   H8        1.0  0.64814  0.45928  0.10668  1.0000
  H   H9        1.0  0.83407  0.13262  0.51433  1.0000
  H   H10       1.0  0.16593  0.86737  0.48567  1.0000
  H   H11       1.0  0.35591  0.39635  0.60013  1.0000
  H   H12       1.0  0.64408  0.60365  0.39988  1.0000
  H   H13       1.0  0.19893  0.33025  0.36719  1.0000
  H   H14       1.0  0.80107  0.66975  0.63281  1.0000
  C   C1        1.0  0.42923  0.19593  0.30842  1.0000
  C   C2        1.0  0.57077  0.80407  0.69158  1.0000
  C   C3        1.0  0.60375  0.13673  0.35141  1.0000
  C   C4        1.0  0.39624  0.86327  0.64859  1.0000
  C   C5        1.0  0.69806  0.17860  0.48246  1.0000
  C   C6        1.0  0.30193  0.82140  0.51754  1.0000
  C   C7        1.0  0.61481  0.27580  0.56980  1.0000
  C   C8        1.0  0.38518  0.72420  0.43020  1.0000
  C   C9        1.0  0.42864  0.32614  0.53020  1.0000
  C   C10       1.0  0.57135  0.67386  0.46981  1.0000
  C   C11       1.0  0.33850  0.28714  0.39945  1.0000
  C   C12       1.0  0.66150  0.71287  0.60055  1.0000
  C   C13       1.0  0.32799  0.16337  0.16822  1.0000
  C   C14       1.0  0.67200  0.83662  0.83178  1.0000
  C   C15       1.0  0.68970  0.02565  0.26380  1.0000
  C   C16       1.0  0.31030  0.97435  0.73619  1.0000
  S   S1        1.0  0.76143  0.34459  0.73058  1.0000
  S   S2        1.0  0.23858  0.65541  0.26942  1.0000
  O   O1        1.0  0.15352  0.03720  0.12055  1.0000
  O   O2        1.0  0.84649  0.96281  0.87945  1.0000
  O   O3        1.0  0.40972  0.27012  0.10260  1.0000
  O   O4        1.0  0.59030  0.72989  0.89740  1.0000
  O   O5        1.0  0.64031  0.00123  0.13956  1.0000
  O   O6        1.0  0.35969  0.99877  0.86044  1.0000
  O   O7        1.0  0.80794  0.95288  0.31296  1.0000
  O   O8        1.0  0.19207  0.04713  0.68704  1.0000
  O   O9        1.0  0.89103  0.23696  0.74751  1.0000
  O   O10       1.0  0.10897  0.76303  0.25248  1.0000
  O   O11       1.0  0.92489  0.50630  0.73869  1.0000
  O   O12       1.0  0.07511  0.49370  0.26130  1.0000
  O   O13       1.0  0.56598  0.33688  0.81940  1.0000
  O   O14       1.0  0.43403  0.66312  0.18060  1.0000
  O   O15       1.0  0.89792  0.24517  0.03959  1.0000
  O   O16       1.0  0.10208  0.75483  0.96041  1.0000
  O   O17       1.0  0.24957  0.46502  0.94207  1.0000
  O   O18       1.0  0.75043  0.53498  0.05793  1.0000
