data_image0
_chemical_formula_structural       Tb2H14C16S2O18
_chemical_formula_sum              "Tb2 H14 C16 S2 O18"
_cell_length_a       6.14351
_cell_length_b       9.1868
_cell_length_c       10.4042
_cell_angle_alpha    97.54
_cell_angle_beta     94.5922
_cell_angle_gamma    109.109

_space_group_name_H-M_alt    "P 1"
_space_group_IT_number       1

loop_
  _space_group_symop_operation_xyz
  'x, y, z'

loop_
  _atom_site_type_symbol
  _atom_site_label
  _atom_site_symmetry_multiplicity
  _atom_site_fract_x
  _atom_site_fract_y
  _atom_site_fract_z
  _atom_site_occupancy
  Tb  Tb1       1.0  0.33937  0.32491  0.11146  1.0000
  Tb  Tb2       1.0  0.66063  0.67509  0.88854  1.0000
  H   H1        1.0  0.10653  0.96205  0.10601  1.0000
  H   H2        1.0  0.89347  0.03795  0.89399  1.0000
  H   H3        1.0  0.37672  0.02630  0.14469  1.0000
  H   H4        1.0  0.62328  0.97370  0.85531  1.0000
  H   H5        1.0  0.68482  0.31508  0.92927  1.0000
  H   H6        1.0  0.31519  0.68492  0.07073  1.0000
  H   H7        1.0  0.48042  0.14815  0.89606  1.0000
  H   H8        1.0  0.51958  0.85185  0.10394  1.0000
  H   H9        1.0  0.33271  0.63810  0.51840  1.0000
  H   H10       1.0  0.66729  0.36190  0.48160  1.0000
  H   H11       1.0  0.84860  0.88014  0.59338  1.0000
  H   H12       1.0  0.15140  0.11986  0.40662  1.0000
  H   H13       1.0  0.70252  0.82253  0.35674  1.0000
  H   H14       1.0  0.29748  0.17747  0.64326  1.0000
  C   C1        1.0  0.93460  0.69807  0.30325  1.0000
  C   C2        1.0  0.06540  0.30193  0.69675  1.0000
  C   C3        1.0  0.11242  0.64594  0.35026  1.0000
  C   C4        1.0  0.88757  0.35406  0.64974  1.0000
  C   C5        1.0  0.19753  0.68150  0.48353  1.0000
  C   C6        1.0  0.80247  0.31850  0.51647  1.0000
  C   C7        1.0  0.10593  0.76787  0.56937  1.0000
  C   C8        1.0  0.89407  0.23213  0.43063  1.0000
  C   C9        1.0  0.92413  0.81620  0.52496  1.0000
  C   C10       1.0  0.07587  0.18380  0.47504  1.0000
  C   C11       1.0  0.84052  0.78183  0.39202  1.0000
  C   C12       1.0  0.15948  0.21817  0.60798  1.0000
  C   C13       1.0  0.83886  0.66967  0.16071  1.0000
  C   C14       1.0  0.16114  0.33033  0.83929  1.0000
  C   C15       1.0  0.21256  0.54840  0.26444  1.0000
  C   C16       1.0  0.78744  0.45160  0.73556  1.0000
  S   S1        1.0  0.22537  0.81537  0.73675  1.0000
  S   S2        1.0  0.77463  0.18463  0.26326  1.0000
  O   O1        1.0  0.66594  0.54923  0.11060  1.0000
  O   O2        1.0  0.33406  0.45077  0.88940  1.0000
  O   O3        1.0  0.92124  0.77568  0.09247  1.0000
  O   O4        1.0  0.07876  0.22432  0.90754  1.0000
  O   O5        1.0  0.16495  0.53078  0.13932  1.0000
  O   O6        1.0  0.83506  0.46923  0.86068  1.0000
  O   O7        1.0  0.33955  0.48071  0.31569  1.0000
  O   O8        1.0  0.66045  0.51929  0.68431  1.0000
  O   O9        1.0  0.35982  0.71042  0.75027  1.0000
  O   O10       1.0  0.64017  0.28957  0.24974  1.0000
  O   O11       1.0  0.37655  0.98146  0.76019  1.0000
  O   O12       1.0  0.62345  0.01854  0.23981  1.0000
  O   O13       1.0  0.03219  0.78878  0.81418  1.0000
  O   O14       1.0  0.96781  0.21122  0.18582  1.0000
  O   O15       1.0  0.24679  0.05467  0.10725  1.0000
  O   O16       1.0  0.75321  0.94533  0.89275  1.0000
  O   O17       1.0  0.56489  0.23592  0.96648  1.0000
  O   O18       1.0  0.43511  0.76408  0.03352  1.0000
