data_image0
_chemical_formula_structural       Mn12H40C32O48
_chemical_formula_sum              "Mn12 H40 C32 O48"
_cell_length_a       10.9777
_cell_length_b       11.7152
_cell_length_c       15.8366
_cell_angle_alpha    91.0813
_cell_angle_beta     90.0163
_cell_angle_gamma    89.9787

_space_group_name_H-M_alt    "P 1"
_space_group_IT_number       1

loop_
  _space_group_symop_operation_xyz
  'x, y, z'

loop_
  _atom_site_type_symbol
  _atom_site_label
  _atom_site_symmetry_multiplicity
  _atom_site_fract_x
  _atom_site_fract_y
  _atom_site_fract_z
  _atom_site_occupancy
  Mn  Mn1       1.0  0.00002  0.00011  0.00002  1.0000
  Mn  Mn2       1.0  0.50010  0.49920  0.49970  1.0000
  Mn  Mn3       1.0  0.95914  0.73920  0.86553  1.0000
  Mn  Mn4       1.0  0.45886  0.76138  0.63539  1.0000
  Mn  Mn5       1.0  0.04110  0.26088  0.13496  1.0000
  Mn  Mn6       1.0  0.54126  0.23995  0.36448  1.0000
  Mn  Mn7       1.0  0.17331  0.76153  0.71484  1.0000
  Mn  Mn8       1.0  0.67274  0.73839  0.78477  1.0000
  Mn  Mn9       1.0  0.82717  0.23833  0.28485  1.0000
  Mn  Mn10      1.0  0.32692  0.26137  0.21504  1.0000
  Mn  Mn11      1.0  0.00005  0.50000  0.99994  1.0000
  Mn  Mn12      1.0  0.49986  0.99900  0.50020  1.0000
  H   H1        1.0  0.09862  0.02511  0.74846  1.0000
  H   H2        1.0  0.59818  0.47494  0.75179  1.0000
  H   H3        1.0  0.90130  0.97520  0.25164  1.0000
  H   H4        1.0  0.40096  0.52499  0.24819  1.0000
  H   H5        1.0  0.65128  0.94189  0.91425  1.0000
  H   H6        1.0  0.15147  0.55770  0.58625  1.0000
  H   H7        1.0  0.34886  0.05850  0.08585  1.0000
  H   H8        1.0  0.84915  0.44151  0.41407  1.0000
  H   H9        1.0  0.86943  0.66512  0.53732  1.0000
  H   H10       1.0  0.36905  0.83480  0.96287  1.0000
  H   H11       1.0  0.13068  0.33480  0.46284  1.0000
  H   H12       1.0  0.63077  0.16507  0.03698  1.0000
  H   H13       1.0  0.73704  0.68612  0.60268  1.0000
  H   H14       1.0  0.23692  0.81363  0.89722  1.0000
  H   H15       1.0  0.26295  0.31365  0.39734  1.0000
  H   H16       1.0  0.76303  0.18622  0.10252  1.0000
  H   H17       1.0  0.81142  0.55276  0.59873  1.0000
  H   H18       1.0  0.31098  0.94712  0.90142  1.0000
  H   H19       1.0  0.18875  0.44711  0.40141  1.0000
  H   H20       1.0  0.68876  0.05283  0.09856  1.0000
  H   H21       1.0  0.12537  0.81136  0.09173  1.0000
  H   H22       1.0  0.62473  0.68858  0.40855  1.0000
  H   H23       1.0  0.87479  0.18852  0.90855  1.0000
  H   H24       1.0  0.37409  0.31109  0.59100  1.0000
  H   H25       1.0  0.73570  0.48879  0.95800  1.0000
  H   H26       1.0  0.23541  0.01118  0.54173  1.0000
  H   H27       1.0  0.26430  0.51099  0.04186  1.0000
  H   H28       1.0  0.76431  0.98925  0.45802  1.0000
  H   H29       1.0  0.27933  0.44838  0.76335  1.0000
  H   H30       1.0  0.77954  0.05147  0.73686  1.0000
  H   H31       1.0  0.72073  0.55152  0.23661  1.0000
  H   H32       1.0  0.22049  0.94858  0.26350  1.0000
  H   H33       1.0  0.35409  0.48368  0.85921  1.0000
  H   H34       1.0  0.85432  0.01604  0.64106  1.0000
  H   H35       1.0  0.64587  0.51624  0.14077  1.0000
  H   H36       1.0  0.14602  0.98394  0.35943  1.0000
  H   H37       1.0  0.34183  0.58770  0.77792  1.0000
  H   H38       1.0  0.84190  0.91202  0.72232  1.0000
  H   H39       1.0  0.65829  0.41218  0.22202  1.0000
  H   H40       1.0  0.15798  0.08793  0.27810  1.0000
  C   C1        1.0  0.06439  0.98007  0.80456  1.0000
  C   C2        1.0  0.56447  0.51982  0.69542  1.0000
  C   C3        1.0  0.93544  0.01986  0.19535  1.0000
  C   C4        1.0  0.43518  0.48033  0.30447  1.0000
  C   C5        1.0  0.74965  0.92279  0.92031  1.0000
  C   C6        1.0  0.24977  0.57697  0.57991  1.0000
  C   C7        1.0  0.25033  0.07700  0.07995  1.0000
  C   C8        1.0  0.75064  0.42306  0.41993  1.0000
  C   C9        1.0  0.90847  0.68008  0.66969  1.0000
  C   C10       1.0  0.40851  0.82000  0.83058  1.0000
  C   C11       1.0  0.09146  0.31994  0.33049  1.0000
  C   C12       1.0  0.59149  0.18024  0.16927  1.0000
  C   C13       1.0  0.82647  0.64549  0.59772  1.0000
  C   C14       1.0  0.32623  0.85440  0.90240  1.0000
  C   C15       1.0  0.17359  0.35439  0.40241  1.0000
  C   C16       1.0  0.67365  0.14556  0.09745  1.0000
  C   C17       1.0  0.08306  0.75716  0.04191  1.0000
  C   C18       1.0  0.58264  0.74259  0.45858  1.0000
  C   C19       1.0  0.91728  0.24283  0.95825  1.0000
  C   C20       1.0  0.41730  0.25705  0.54143  1.0000
  C   C21       1.0  0.75864  0.56099  0.91697  1.0000
  C   C22       1.0  0.25834  0.93923  0.58304  1.0000
  C   C23       1.0  0.24133  0.43897  0.08306  1.0000
  C   C24       1.0  0.74115  0.06124  0.41679  1.0000
  C   C25       1.0  0.17506  0.55437  0.84746  1.0000
  C   C26       1.0  0.67524  0.94576  0.65260  1.0000
  C   C27       1.0  0.82494  0.44565  0.15237  1.0000
  C   C28       1.0  0.32504  0.05448  0.34746  1.0000
  C   C29       1.0  0.29551  0.51799  0.80959  1.0000
  C   C30       1.0  0.79569  0.98183  0.69065  1.0000
  C   C31       1.0  0.70453  0.48193  0.19035  1.0000
  C   C32       1.0  0.20442  0.01821  0.30974  1.0000
  O   O1        1.0  0.03250  0.03789  0.86805  1.0000
  O   O2        1.0  0.53261  0.46187  0.63202  1.0000
  O   O3        1.0  0.96763  0.96171  0.13212  1.0000
  O   O4        1.0  0.46757  0.53840  0.36768  1.0000
  O   O5        1.0  0.06111  0.87040  0.79770  1.0000
  O   O6        1.0  0.56188  0.62958  0.70193  1.0000
  O   O7        1.0  0.93815  0.12963  0.20169  1.0000
  O   O8        1.0  0.43778  0.37053  0.29814  1.0000
  O   O9        1.0  0.81126  0.98081  0.97207  1.0000
  O   O10       1.0  0.31114  0.51934  0.52783  1.0000
  O   O11       1.0  0.18897  0.01888  0.02814  1.0000
  O   O12       1.0  0.68924  0.48111  0.47176  1.0000
  O   O13       1.0  0.78950  0.84138  0.87220  1.0000
  O   O14       1.0  0.28971  0.65828  0.62813  1.0000
  O   O15       1.0  0.21005  0.15795  0.12838  1.0000
  O   O16       1.0  0.71035  0.34214  0.37147  1.0000
  O   O17       1.0  0.86088  0.70059  0.74324  1.0000
  O   O18       1.0  0.36095  0.79892  0.75705  1.0000
  O   O19       1.0  0.13904  0.29894  0.25700  1.0000
  O   O20       1.0  0.63910  0.20142  0.24274  1.0000
  O   O21       1.0  0.02154  0.68555  0.65562  1.0000
  O   O22       1.0  0.52160  0.81517  0.84457  1.0000
  O   O23       1.0  0.97837  0.31504  0.34446  1.0000
  O   O24       1.0  0.47839  0.18521  0.15528  1.0000
  O   O25       1.0  0.02724  0.81103  0.98306  1.0000
  O   O26       1.0  0.52688  0.68871  0.51730  1.0000
  O   O27       1.0  0.97330  0.18909  0.01707  1.0000
  O   O28       1.0  0.47348  0.31119  0.48291  1.0000
  O   O29       1.0  0.09373  0.65115  0.04659  1.0000
  O   O30       1.0  0.59362  0.84867  0.45413  1.0000
  O   O31       1.0  0.90651  0.34881  0.95345  1.0000
  O   O32       1.0  0.40722  0.15104  0.54607  1.0000
  O   O33       1.0  0.86875  0.59802  0.92270  1.0000
  O   O34       1.0  0.36847  0.90207  0.57754  1.0000
  O   O35       1.0  0.13118  0.40198  0.07749  1.0000
  O   O36       1.0  0.63110  0.09827  0.42241  1.0000
  O   O37       1.0  0.67713  0.59838  0.86933  1.0000
  O   O38       1.0  0.17684  0.90212  0.63071  1.0000
  O   O39       1.0  0.32286  0.40171  0.13072  1.0000
  O   O40       1.0  0.82270  0.09834  0.36904  1.0000
  O   O41       1.0  0.12840  0.65087  0.82493  1.0000
  O   O42       1.0  0.62849  0.84918  0.67492  1.0000
  O   O43       1.0  0.87161  0.34906  0.17472  1.0000
  O   O44       1.0  0.37157  0.15101  0.32491  1.0000
  O   O45       1.0  0.12542  0.48862  0.89905  1.0000
  O   O46       1.0  0.62567  0.01169  0.60109  1.0000
  O   O47       1.0  0.87446  0.51153  0.10083  1.0000
  O   O48       1.0  0.37493  0.98862  0.39887  1.0000
