data_image0
_chemical_formula_structural       Nd4H36C32N4O36
_chemical_formula_sum              "Nd4 H36 C32 N4 O36"
_cell_length_a       6.50211
_cell_length_b       12.6507
_cell_length_c       14.9021
_cell_angle_alpha    107.41
_cell_angle_beta     97.1268
_cell_angle_gamma    103.851

_space_group_name_H-M_alt    "P 1"
_space_group_IT_number       1

loop_
  _space_group_symop_operation_xyz
  'x, y, z'

loop_
  _atom_site_type_symbol
  _atom_site_label
  _atom_site_symmetry_multiplicity
  _atom_site_fract_x
  _atom_site_fract_y
  _atom_site_fract_z
  _atom_site_occupancy
  Nd  Nd1       1.0  0.14560  0.83753  0.30338  1.0000
  Nd  Nd2       1.0  0.85441  0.16247  0.69662  1.0000
  Nd  Nd3       1.0  0.34886  0.66325  0.69595  1.0000
  Nd  Nd4       1.0  0.65112  0.33675  0.30404  1.0000
  H   H1        1.0  0.88920  0.68834  0.06344  1.0000
  H   H2        1.0  0.11081  0.31165  0.93656  1.0000
  H   H3        1.0  0.90728  0.68535  0.89516  1.0000
  H   H4        1.0  0.09272  0.31464  0.10483  1.0000
  H   H5        1.0  0.33083  0.03343  0.02100  1.0000
  H   H6        1.0  0.66915  0.96656  0.97900  1.0000
  H   H7        1.0  0.59760  0.81567  0.94145  1.0000
  H   H8        1.0  0.40242  0.18433  0.05855  1.0000
  H   H9        1.0  0.57757  0.81663  0.10897  1.0000
  H   H10       1.0  0.42244  0.18337  0.89103  1.0000
  H   H11       1.0  0.17459  0.46422  0.98096  1.0000
  H   H12       1.0  0.82539  0.53579  0.01904  1.0000
  H   H13       1.0  0.74569  0.93013  0.31960  1.0000
  H   H14       1.0  0.25433  0.06988  0.68040  1.0000
  H   H15       1.0  0.84162  0.98139  0.24217  1.0000
  H   H16       1.0  0.15839  0.01861  0.75783  1.0000
  H   H17       1.0  0.92469  0.85717  0.46860  1.0000
  H   H18       1.0  0.07532  0.14284  0.53141  1.0000
  H   H19       1.0  0.72380  0.80575  0.38683  1.0000
  H   H20       1.0  0.27621  0.19425  0.61317  1.0000
  H   H21       1.0  0.30980  0.66168  0.36813  1.0000
  H   H22       1.0  0.69019  0.33832  0.63187  1.0000
  H   H23       1.0  0.05791  0.63001  0.36316  1.0000
  H   H24       1.0  0.94209  0.36999  0.63684  1.0000
  H   H25       1.0  0.66417  0.52573  0.75869  1.0000
  H   H26       1.0  0.33583  0.47427  0.24131  1.0000
  H   H27       1.0  0.75773  0.57942  0.68132  1.0000
  H   H28       1.0  0.24225  0.42058  0.31868  1.0000
  H   H29       1.0  0.62647  0.63043  0.54310  1.0000
  H   H30       1.0  0.37352  0.36956  0.45690  1.0000
  H   H31       1.0  0.79193  0.73471  0.62385  1.0000
  H   H32       1.0  0.20806  0.26528  0.37614  1.0000
  H   H33       1.0  0.41281  0.85939  0.62623  1.0000
  H   H34       1.0  0.58719  0.14061  0.37377  1.0000
  H   H35       1.0  0.26860  0.76070  0.52925  1.0000
  H   H36       1.0  0.73139  0.23930  0.47074  1.0000
  C   C1        1.0  0.98871  0.76187  0.04997  1.0000
  C   C2        1.0  0.01128  0.23813  0.95002  1.0000
  C   C3        1.0  0.99706  0.76163  0.95694  1.0000
  C   C4        1.0  0.00293  0.23837  0.04306  1.0000
  C   C5        1.0  0.12451  0.86039  0.94558  1.0000
  C   C6        1.0  0.87548  0.13960  0.05442  1.0000
  C   C7        1.0  0.23271  0.95542  0.02827  1.0000
  C   C8        1.0  0.76728  0.04458  0.97173  1.0000
  C   C9        1.0  0.21945  0.94768  0.11853  1.0000
  C   C10       1.0  0.78054  0.05232  0.88147  1.0000
  C   C11       1.0  0.15054  0.86714  0.84789  1.0000
  C   C12       1.0  0.84945  0.13286  0.15211  1.0000
  C   C13       1.0  0.33627  0.04641  0.21007  1.0000
  C   C14       1.0  0.66374  0.95359  0.78993  1.0000
  C   C15       1.0  0.50239  0.74028  0.95393  1.0000
  C   C16       1.0  0.49762  0.25973  0.04607  1.0000
  C   C17       1.0  0.49228  0.73979  0.04684  1.0000
  C   C18       1.0  0.50773  0.26021  0.95317  1.0000
  C   C19       1.0  0.36992  0.63920  0.05740  1.0000
  C   C20       1.0  0.63008  0.36080  0.94260  1.0000
  C   C21       1.0  0.26920  0.54346  0.97427  1.0000
  C   C22       1.0  0.73079  0.45654  0.02573  1.0000
  C   C23       1.0  0.28539  0.55186  0.88442  1.0000
  C   C24       1.0  0.71460  0.44814  0.11558  1.0000
  C   C25       1.0  0.34110  0.62987  0.15412  1.0000
  C   C26       1.0  0.65890  0.37014  0.84589  1.0000
  C   C27       1.0  0.17463  0.45189  0.79311  1.0000
  C   C28       1.0  0.82536  0.54811  0.20690  1.0000
  C   C29       1.0  0.41055  0.02512  0.51955  1.0000
  C   C30       1.0  0.58947  0.97488  0.48046  1.0000
  C   C31       1.0  0.09071  0.47877  0.47805  1.0000
  C   C32       1.0  0.90925  0.52122  0.52193  1.0000
  N   N1        1.0  0.10161  0.85066  0.12937  1.0000
  N   N2        1.0  0.89839  0.14934  0.87063  1.0000
  N   N3        1.0  0.39777  0.65034  0.87395  1.0000
  N   N4        1.0  0.60223  0.34966  0.12605  1.0000
  O   O1        1.0  0.12775  0.77203  0.78102  1.0000
  O   O2        1.0  0.87224  0.22797  0.21897  1.0000
  O   O3        1.0  0.19501  0.96726  0.84205  1.0000
  O   O4        1.0  0.80499  0.03274  0.15795  1.0000
  O   O5        1.0  0.40233  0.14678  0.20515  1.0000
  O   O6        1.0  0.59768  0.85322  0.79484  1.0000
  O   O7        1.0  0.35933  0.02194  0.28720  1.0000
  O   O8        1.0  0.64067  0.97806  0.71280  1.0000
  O   O9        1.0  0.36556  0.72360  0.22311  1.0000
  O   O10       1.0  0.63444  0.27640  0.77689  1.0000
  O   O11       1.0  0.29258  0.52897  0.15826  1.0000
  O   O12       1.0  0.70743  0.47103  0.84174  1.0000
  O   O13       1.0  0.10817  0.35175  0.79834  1.0000
  O   O14       1.0  0.89182  0.64826  0.20166  1.0000
  O   O15       1.0  0.15357  0.47537  0.71540  1.0000
  O   O16       1.0  0.84643  0.52464  0.28460  1.0000
  O   O17       1.0  0.22425  0.98782  0.46641  1.0000
  O   O18       1.0  0.77578  0.01219  0.53360  1.0000
  O   O19       1.0  0.46706  0.10143  0.60341  1.0000
  O   O20       1.0  0.53298  0.89859  0.39659  1.0000
  O   O21       1.0  0.27699  0.51227  0.53154  1.0000
  O   O22       1.0  0.72301  0.48773  0.46846  1.0000
  O   O23       1.0  0.03744  0.41230  0.39097  1.0000
  O   O24       1.0  0.96255  0.58770  0.60903  1.0000
  O   O25       1.0  0.86364  0.93413  0.28452  1.0000
  O   O26       1.0  0.13637  0.06588  0.71548  1.0000
  O   O27       1.0  0.86562  0.79474  0.40629  1.0000
  O   O28       1.0  0.13438  0.20526  0.59371  1.0000
  O   O29       1.0  0.19913  0.69319  0.39538  1.0000
  O   O30       1.0  0.80087  0.30681  0.60462  1.0000
  O   O31       1.0  0.63353  0.56696  0.71282  1.0000
  O   O32       1.0  0.36647  0.43303  0.28717  1.0000
  O   O33       1.0  0.63837  0.70474  0.59260  1.0000
  O   O34       1.0  0.36162  0.29526  0.40740  1.0000
  O   O35       1.0  0.27734  0.79415  0.59911  1.0000
  O   O36       1.0  0.72265  0.20585  0.40089  1.0000
