data_image0
_chemical_formula_structural       Nd2H54C56N2O24
_chemical_formula_sum              "Nd2 H54 C56 N2 O24"
_cell_length_a       10.8057
_cell_length_b       11.6132
_cell_length_c       13.793
_cell_angle_alpha    95.3785
_cell_angle_beta     103.362
_cell_angle_gamma    108.391

_space_group_name_H-M_alt    "P 1"
_space_group_IT_number       1

loop_
  _space_group_symop_operation_xyz
  'x, y, z'

loop_
  _atom_site_type_symbol
  _atom_site_label
  _atom_site_symmetry_multiplicity
  _atom_site_fract_x
  _atom_site_fract_y
  _atom_site_fract_z
  _atom_site_occupancy
  Nd  Nd1       1.0  0.79936  0.47051  0.56490  1.0000
  Nd  Nd2       1.0  0.20064  0.52949  0.43510  1.0000
  H   H1        1.0  0.49275  0.23752  0.53238  1.0000
  H   H2        1.0  0.50724  0.76248  0.46762  1.0000
  H   H3        1.0  0.51708  0.43700  0.20982  1.0000
  H   H4        1.0  0.48292  0.56300  0.79019  1.0000
  H   H5        1.0  0.38630  0.40473  0.27141  1.0000
  H   H6        1.0  0.61369  0.59527  0.72859  1.0000
  H   H7        1.0  0.30834  0.47625  0.11973  1.0000
  H   H8        1.0  0.69166  0.52374  0.88027  1.0000
  H   H9        1.0  0.21570  0.31401  0.09889  1.0000
  H   H10       1.0  0.78430  0.68599  0.90111  1.0000
  H   H11       1.0  0.13063  0.41026  0.97745  1.0000
  H   H12       1.0  0.86938  0.58974  0.02256  1.0000
  H   H13       1.0  0.02165  0.43242  0.80352  1.0000
  H   H14       1.0  0.97836  0.56759  0.19649  1.0000
  H   H15       1.0  0.44373  0.32986  0.86967  1.0000
  H   H16       1.0  0.55627  0.67014  0.13033  1.0000
  H   H17       1.0  0.33184  0.35059  0.69498  1.0000
  H   H18       1.0  0.66816  0.64941  0.30502  1.0000
  H   H19       1.0  0.62153  0.30594  0.29169  1.0000
  H   H20       1.0  0.37847  0.69406  0.70831  1.0000
  H   H21       1.0  0.53990  0.14418  0.24016  1.0000
  H   H22       1.0  0.46011  0.85582  0.75984  1.0000
  H   H23       1.0  0.62177  0.34850  0.11754  1.0000
  H   H24       1.0  0.37823  0.65150  0.88246  1.0000
  H   H25       1.0  0.72119  0.25673  0.16238  1.0000
  H   H26       1.0  0.27881  0.74328  0.83762  1.0000
  H   H27       1.0  0.74348  0.33997  0.01323  1.0000
  H   H28       1.0  0.25652  0.66003  0.98677  1.0000
  H   H29       1.0  0.76332  0.36194  0.83958  1.0000
  H   H30       1.0  0.23668  0.63806  0.16042  1.0000
  H   H31       1.0  0.37651  0.02473  0.88790  1.0000
  H   H32       1.0  0.62350  0.97527  0.11210  1.0000
  H   H33       1.0  0.38989  0.05529  0.71314  1.0000
  H   H34       1.0  0.61011  0.94470  0.28686  1.0000
  H   H35       1.0  0.34900  0.14424  0.31071  1.0000
  H   H36       1.0  0.65100  0.85576  0.68929  1.0000
  H   H37       1.0  0.23542  0.20443  0.23827  1.0000
  H   H38       1.0  0.76458  0.79557  0.76173  1.0000
  H   H39       1.0  0.31633  0.99121  0.15730  1.0000
  H   H40       1.0  0.68367  0.00879  0.84269  1.0000
  H   H41       1.0  0.16048  0.98160  0.18676  1.0000
  H   H42       1.0  0.83953  0.01840  0.81324  1.0000
  H   H43       1.0  0.10808  0.82146  0.07264  1.0000
  H   H44       1.0  0.89191  0.17854  0.92735  1.0000
  H   H45       1.0  0.00493  0.65477  0.92156  1.0000
  H   H46       1.0  0.99506  0.34523  0.07844  1.0000
  H   H47       1.0  0.15653  0.09224  0.87732  1.0000
  H   H48       1.0  0.84348  0.90776  0.12268  1.0000
  H   H49       1.0  0.05819  0.92167  0.72553  1.0000
  H   H50       1.0  0.94182  0.07833  0.27447  1.0000
  H   H51       1.0  0.88345  0.29700  0.41711  1.0000
  H   H52       1.0  0.11655  0.70300  0.58288  1.0000
  H   H53       1.0  0.72518  0.25651  0.38150  1.0000
  H   H54       1.0  0.27481  0.74349  0.61850  1.0000
  C   C1        1.0  0.41526  0.37327  0.20480  1.0000
  C   C2        1.0  0.58474  0.62673  0.79520  1.0000
  C   C3        1.0  0.31679  0.38401  0.11146  1.0000
  C   C4        1.0  0.68321  0.61598  0.88854  1.0000
  C   C5        1.0  0.29643  0.37139  0.93442  1.0000
  C   C6        1.0  0.70357  0.62861  0.06558  1.0000
  C   C7        1.0  0.17508  0.39726  0.91594  1.0000
  C   C8        1.0  0.82492  0.60274  0.08406  1.0000
  C   C9        1.0  0.11357  0.40885  0.81849  1.0000
  C   C10       1.0  0.88644  0.59116  0.18152  1.0000
  C   C11       1.0  0.35103  0.35148  0.85387  1.0000
  C   C12       1.0  0.64897  0.64852  0.14613  1.0000
  C   C13       1.0  0.28923  0.36352  0.75774  1.0000
  C   C14       1.0  0.71077  0.63648  0.24226  1.0000
  C   C15       1.0  0.17168  0.39524  0.73925  1.0000
  C   C16       1.0  0.82833  0.60476  0.26075  1.0000
  C   C17       1.0  0.11911  0.42416  0.63914  1.0000
  C   C18       1.0  0.88088  0.57584  0.36086  1.0000
  C   C19       1.0  0.54984  0.23723  0.22407  1.0000
  C   C20       1.0  0.45016  0.76277  0.77593  1.0000
  C   C21       1.0  0.61711  0.25847  0.13863  1.0000
  C   C22       1.0  0.38289  0.74153  0.86137  1.0000
  C   C23       1.0  0.55780  0.18023  0.96117  1.0000
  C   C24       1.0  0.44221  0.81977  0.03883  1.0000
  C   C25       1.0  0.66755  0.27594  0.94818  1.0000
  C   C26       1.0  0.33245  0.72406  0.05182  1.0000
  C   C27       1.0  0.67867  0.28858  0.85121  1.0000
  C   C28       1.0  0.32134  0.71142  0.14879  1.0000
  C   C29       1.0  0.46054  0.09789  0.87588  1.0000
  C   C30       1.0  0.53946  0.90212  0.12412  1.0000
  C   C31       1.0  0.46912  0.11483  0.77922  1.0000
  C   C32       1.0  0.53088  0.88516  0.22078  1.0000
  C   C33       1.0  0.57883  0.21049  0.76561  1.0000
  C   C34       1.0  0.42116  0.78951  0.23439  1.0000
  C   C35       1.0  0.59020  0.23978  0.66629  1.0000
  C   C36       1.0  0.40981  0.76022  0.33371  1.0000
  C   C37       1.0  0.31261  0.16286  0.23378  1.0000
  C   C38       1.0  0.68739  0.83713  0.76622  1.0000
  C   C39       1.0  0.24467  0.04015  0.16121  1.0000
  C   C40       1.0  0.75533  0.95985  0.83879  1.0000
  C   C41       1.0  0.13894  0.96790  0.98414  1.0000
  C   C42       1.0  0.86107  0.03210  0.01586  1.0000
  C   C43       1.0  0.09696  0.84445  0.99724  1.0000
  C   C44       1.0  0.90304  0.15555  0.00276  1.0000
  C   C45       1.0  0.03945  0.75106  0.91268  1.0000
  C   C46       1.0  0.96054  0.24894  0.08732  1.0000
  C   C47       1.0  0.12343  0.99567  0.88571  1.0000
  C   C48       1.0  0.87658  0.00434  0.11428  1.0000
  C   C49       1.0  0.06947  0.90094  0.80192  1.0000
  C   C50       1.0  0.93053  0.09906  0.19807  1.0000
  C   C51       1.0  0.02574  0.77703  0.81440  1.0000
  C   C52       1.0  0.97426  0.22297  0.18560  1.0000
  C   C53       1.0  0.95832  0.67324  0.72741  1.0000
  C   C54       1.0  0.04167  0.32676  0.27259  1.0000
  C   C55       1.0  0.46572  0.43092  0.47353  1.0000
  C   C56       1.0  0.53428  0.56907  0.52647  1.0000
  N   N1        1.0  0.41825  0.24914  0.20203  1.0000
  N   N2        1.0  0.58175  0.75086  0.79797  1.0000
  O   O1        1.0  0.19473  0.06489  0.06216  1.0000
  O   O2        1.0  0.80527  0.93511  0.93784  1.0000
  O   O3        1.0  0.53723  0.16217  0.05236  1.0000
  O   O4        1.0  0.46278  0.83784  0.94764  1.0000
  O   O5        1.0  0.36868  0.36494  0.02656  1.0000
  O   O6        1.0  0.63133  0.63506  0.97344  1.0000
  O   O7        1.0  0.47736  0.19151  0.58962  1.0000
  O   O8        1.0  0.52263  0.80849  0.41038  1.0000
  O   O9        1.0  0.69827  0.31020  0.65529  1.0000
  O   O10       1.0  0.30172  0.68979  0.34471  1.0000
  O   O11       1.0  0.87774  0.57258  0.74202  1.0000
  O   O12       1.0  0.12225  0.42743  0.25798  1.0000
  O   O13       1.0  0.97697  0.68379  0.63939  1.0000
  O   O14       1.0  0.02303  0.31621  0.36060  1.0000
  O   O15       1.0  0.19772  0.44239  0.58145  1.0000
  O   O16       1.0  0.80227  0.55761  0.41854  1.0000
  O   O17       1.0  0.00248  0.43414  0.61560  1.0000
  O   O18       1.0  0.99751  0.56586  0.38440  1.0000
  O   O19       1.0  0.54365  0.36681  0.47987  1.0000
  O   O20       1.0  0.45634  0.63318  0.52012  1.0000
  O   O21       1.0  0.34121  0.39318  0.42902  1.0000
  O   O22       1.0  0.65878  0.60681  0.57098  1.0000
  O   O23       1.0  0.80226  0.29072  0.44164  1.0000
  O   O24       1.0  0.19774  0.70928  0.55836  1.0000
