data_image0
_chemical_formula_structural       Sr4H20C20O24
_chemical_formula_sum              "Sr4 H20 C20 O24"
_cell_length_a       7.66974
_cell_length_b       10.0163
_cell_length_c       11.0172
_cell_angle_alpha    97.7176
_cell_angle_beta     90.0052
_cell_angle_gamma    112.531

_space_group_name_H-M_alt    "P 1"
_space_group_IT_number       1

loop_
  _space_group_symop_operation_xyz
  'x, y, z'

loop_
  _atom_site_type_symbol
  _atom_site_label
  _atom_site_symmetry_multiplicity
  _atom_site_fract_x
  _atom_site_fract_y
  _atom_site_fract_z
  _atom_site_occupancy
  Sr  Sr1       1.0  0.60417  0.48633  0.68353  1.0000
  Sr  Sr2       1.0  0.11792  0.51373  0.81649  1.0000
  Sr  Sr3       1.0  0.39584  0.51366  0.31647  1.0000
  Sr  Sr4       1.0  0.88208  0.48627  0.18351  1.0000
  H   H1        1.0  0.01549  0.69813  0.60335  1.0000
  H   H2        1.0  0.31707  0.30184  0.89672  1.0000
  H   H3        1.0  0.98450  0.30186  0.39664  1.0000
  H   H4        1.0  0.68293  0.69816  0.10328  1.0000
  H   H5        1.0  0.86728  0.77380  0.63225  1.0000
  H   H6        1.0  0.09316  0.22635  0.86786  1.0000
  H   H7        1.0  0.13272  0.22620  0.36775  1.0000
  H   H8        1.0  0.90683  0.77365  0.13214  1.0000
  H   H9        1.0  0.14649  0.26672  0.67484  1.0000
  H   H10       1.0  0.88008  0.73345  0.82519  1.0000
  H   H11       1.0  0.85351  0.73328  0.32515  1.0000
  H   H12       1.0  0.11992  0.26655  0.17481  1.0000
  H   H13       1.0  0.21248  0.34913  0.56318  1.0000
  H   H14       1.0  0.86363  0.65090  0.93675  1.0000
  H   H15       1.0  0.78752  0.65087  0.43682  1.0000
  H   H16       1.0  0.13637  0.34910  0.06325  1.0000
  H   H17       1.0  0.72117  0.06024  0.83397  1.0000
  H   H18       1.0  0.66091  0.93995  0.66610  1.0000
  H   H19       1.0  0.27883  0.93976  0.16603  1.0000
  H   H20       1.0  0.33908  0.06005  0.33390  1.0000
  C   C1        1.0  0.59651  0.77916  0.85254  1.0000
  C   C2        1.0  0.81721  0.22105  0.64756  1.0000
  C   C3        1.0  0.40350  0.22085  0.14747  1.0000
  C   C4        1.0  0.18279  0.77895  0.35244  1.0000
  C   C5        1.0  0.54990  0.89157  0.93389  1.0000
  C   C6        1.0  0.65829  0.10850  0.56612  1.0000
  C   C7        1.0  0.45010  0.10843  0.06610  1.0000
  C   C8        1.0  0.34170  0.89149  0.43388  1.0000
  C   C9        1.0  0.42714  0.85598  0.02998  1.0000
  C   C10       1.0  0.57113  0.14400  0.46999  1.0000
  C   C11       1.0  0.57286  0.14401  0.97002  1.0000
  C   C12       1.0  0.42887  0.85600  0.53002  1.0000
  C   C13       1.0  0.62309  0.03485  0.90691  1.0000
  C   C14       1.0  0.58823  0.96525  0.59316  1.0000
  C   C15       1.0  0.37690  0.96514  0.09308  1.0000
  C   C16       1.0  0.41177  0.03475  0.40684  1.0000
  C   C17       1.0  0.35229  0.70870  0.07453  1.0000
  C   C18       1.0  0.64335  0.29133  0.42552  1.0000
  C   C19       1.0  0.64771  0.29131  0.92546  1.0000
  C   C20       1.0  0.35666  0.70867  0.57449  1.0000
  O   O1        1.0  0.48305  0.64490  0.84550  1.0000
  O   O2        1.0  0.83790  0.35523  0.65451  1.0000
  O   O3        1.0  0.51696  0.35510  0.15450  1.0000
  O   O4        1.0  0.16211  0.64477  0.34549  1.0000
  O   O5        1.0  0.74414  0.82277  0.79166  1.0000
  O   O6        1.0  0.92117  0.17755  0.70859  1.0000
  O   O7        1.0  0.25586  0.17723  0.20834  1.0000
  O   O8        1.0  0.07884  0.82244  0.29140  1.0000
  O   O9        1.0  0.17864  0.62793  0.04932  1.0000
  O   O10       1.0  0.55016  0.37183  0.45068  1.0000
  O   O11       1.0  0.82137  0.37208  0.95068  1.0000
  O   O12       1.0  0.44983  0.62817  0.54933  1.0000
  O   O13       1.0  0.46410  0.67871  0.14140  1.0000
  O   O14       1.0  0.78525  0.32154  0.35870  1.0000
  O   O15       1.0  0.53590  0.32130  0.85860  1.0000
  O   O16       1.0  0.21475  0.67845  0.64130  1.0000
  O   O17       1.0  0.88244  0.68888  0.58562  1.0000
  O   O18       1.0  0.19336  0.31127  0.91450  1.0000
  O   O19       1.0  0.11756  0.31112  0.41438  1.0000
  O   O20       1.0  0.80663  0.68873  0.08550  1.0000
  O   O21       1.0  0.25178  0.35196  0.65011  1.0000
  O   O22       1.0  0.90020  0.64821  0.84984  1.0000
  O   O23       1.0  0.74822  0.64804  0.34989  1.0000
  O   O24       1.0  0.09980  0.35178  0.15016  1.0000
