data_image0
_chemical_formula_structural       K2H8C18O12F2
_chemical_formula_sum              "K2 H8 C18 O12 F2"
_cell_length_a       4.23759
_cell_length_b       10.625
_cell_length_c       10.9706
_cell_angle_alpha    89.9999
_cell_angle_beta     90
_cell_angle_gamma    98.1848

_space_group_name_H-M_alt    "P 1"
_space_group_IT_number       1

loop_
  _space_group_symop_operation_xyz
  'x, y, z'

loop_
  _atom_site_type_symbol
  _atom_site_label
  _atom_site_symmetry_multiplicity
  _atom_site_fract_x
  _atom_site_fract_y
  _atom_site_fract_z
  _atom_site_occupancy
  K   K1        1.0  0.82749  0.50598  0.33254  1.0000
  K   K2        1.0  0.32749  0.00598  0.66746  1.0000
  H   H1        1.0  0.12549  0.75977  0.49830  1.0000
  H   H2        1.0  0.62549  0.25977  0.50170  1.0000
  H   H3        1.0  0.78159  0.83142  0.83687  1.0000
  H   H4        1.0  0.28158  0.33141  0.16313  1.0000
  H   H5        1.0  0.57089  0.79009  0.12977  1.0000
  H   H6        1.0  0.07089  0.29009  0.87023  1.0000
  H   H7        1.0  0.23594  0.13454  0.10929  1.0000
  H   H8        1.0  0.73593  0.63454  0.89071  1.0000
  C   C1        1.0  0.05897  0.08332  0.29018  1.0000
  C   C2        1.0  0.55897  0.58332  0.70982  1.0000
  C   C3        1.0  0.85432  0.99173  0.35552  1.0000
  C   C4        1.0  0.35431  0.49173  0.64448  1.0000
  C   C5        1.0  0.67107  0.88768  0.29924  1.0000
  C   C6        1.0  0.17107  0.38768  0.70075  1.0000
  C   C7        1.0  0.70518  0.87289  0.17345  1.0000
  C   C8        1.0  0.20518  0.37289  0.82655  1.0000
  C   C9        1.0  0.90636  0.96194  0.10550  1.0000
  C   C10       1.0  0.40635  0.46194  0.89451  1.0000
  C   C11       1.0  0.07879  0.06682  0.16398  1.0000
  C   C12       1.0  0.57877  0.56682  0.83602  1.0000
  C   C13       1.0  0.26688  0.19199  0.35193  1.0000
  C   C14       1.0  0.76687  0.69199  0.64807  1.0000
  C   C15       1.0  0.43598  0.79119  0.36279  1.0000
  C   C16       1.0  0.93599  0.29119  0.63721  1.0000
  C   C17       1.0  0.94317  0.94574  0.97142  1.0000
  C   C18       1.0  0.44316  0.44574  0.02858  1.0000
  O   O1        1.0  0.33360  0.29773  0.29660  1.0000
  O   O2        1.0  0.83359  0.79773  0.70340  1.0000
  O   O3        1.0  0.37346  0.16995  0.45718  1.0000
  O   O4        1.0  0.87346  0.66995  0.54282  1.0000
  O   O5        1.0  0.31538  0.82956  0.46486  1.0000
  O   O6        1.0  0.81537  0.32956  0.53514  1.0000
  O   O7        1.0  0.35557  0.68501  0.31651  1.0000
  O   O8        1.0  0.85558  0.18501  0.68349  1.0000
  O   O9        1.0  0.74243  0.84840  0.92759  1.0000
  O   O10       1.0  0.24242  0.34840  0.07241  1.0000
  O   O11       1.0  0.13989  0.01498  0.90941  1.0000
  O   O12       1.0  0.63988  0.51498  0.09059  1.0000
  F   F1        1.0  0.83659  0.00310  0.47807  1.0000
  F   F2        1.0  0.33659  0.50310  0.52193  1.0000
