data_image0
_chemical_formula_structural       K2H18C16S4N8O10
_chemical_formula_sum              "K2 H18 C16 S4 N8 O10"
_cell_length_a       6.80173
_cell_length_b       10.0342
_cell_length_c       10.3196
_cell_angle_alpha    110.558
_cell_angle_beta     89.5202
_cell_angle_gamma    107.016

_space_group_name_H-M_alt    "P 1"
_space_group_IT_number       1

loop_
  _space_group_symop_operation_xyz
  'x, y, z'

loop_
  _atom_site_type_symbol
  _atom_site_label
  _atom_site_symmetry_multiplicity
  _atom_site_fract_x
  _atom_site_fract_y
  _atom_site_fract_z
  _atom_site_occupancy
  K   K1        1.0  0.27395  0.62023  0.17064  1.0000
  K   K2        1.0  0.72606  0.37977  0.82935  1.0000
  H   H1        1.0  0.50979  0.20957  0.49252  1.0000
  H   H2        1.0  0.49022  0.79043  0.50748  1.0000
  H   H3        1.0  0.83451  0.61989  0.45033  1.0000
  H   H4        1.0  0.16550  0.38011  0.54967  1.0000
  H   H5        1.0  0.49864  0.27244  0.10840  1.0000
  H   H6        1.0  0.50136  0.72756  0.89160  1.0000
  H   H7        1.0  0.08405  0.32916  0.30601  1.0000
  H   H8        1.0  0.91595  0.67083  0.69399  1.0000
  H   H9        1.0  0.72148  0.98988  0.95708  1.0000
  H   H10       1.0  0.27852  0.01012  0.04292  1.0000
  H   H11       1.0  0.84647  0.89923  0.28848  1.0000
  H   H12       1.0  0.15353  0.10077  0.71152  1.0000
  H   H13       1.0  0.64522  0.97456  0.34697  1.0000
  H   H14       1.0  0.35478  0.02543  0.65304  1.0000
  H   H15       1.0  0.17599  0.88320  0.41182  1.0000
  H   H16       1.0  0.82401  0.11680  0.58818  1.0000
  H   H17       1.0  0.29352  0.96646  0.31290  1.0000
  H   H18       1.0  0.70648  0.03353  0.68710  1.0000
  C   C1        1.0  0.47909  0.22151  0.28908  1.0000
  C   C2        1.0  0.52091  0.77849  0.71092  1.0000
  C   C3        1.0  0.67208  0.45949  0.26929  1.0000
  C   C4        1.0  0.32793  0.54051  0.73070  1.0000
  C   C5        1.0  0.55477  0.27915  0.43028  1.0000
  C   C6        1.0  0.44523  0.72085  0.56972  1.0000
  C   C7        1.0  0.68874  0.42670  0.49246  1.0000
  C   C8        1.0  0.31127  0.57330  0.50753  1.0000
  C   C9        1.0  0.77509  0.98295  0.28214  1.0000
  C   C10       1.0  0.22492  0.01705  0.71786  1.0000
  C   C11       1.0  0.91493  0.16881  0.12102  1.0000
  C   C12       1.0  0.08506  0.83118  0.87898  1.0000
  C   C13       1.0  0.69089  0.93505  0.13366  1.0000
  C   C14       1.0  0.30911  0.06496  0.86634  1.0000
  C   C15       1.0  0.92758  0.13654  0.34391  1.0000
  C   C16       1.0  0.07242  0.86347  0.65609  1.0000
  S   S1        1.0  0.73887  0.56943  0.17441  1.0000
  S   S2        1.0  0.26113  0.43057  0.82558  1.0000
  S   S3        1.0  0.00418  0.26987  0.02461  1.0000
  S   S4        1.0  0.99581  0.73013  0.97539  1.0000
  N   N1        1.0  0.54595  0.31616  0.21429  1.0000
  N   N2        1.0  0.45405  0.68384  0.78571  1.0000
  N   N3        1.0  0.74075  0.50980  0.40586  1.0000
  N   N4        1.0  0.25926  0.49020  0.59413  1.0000
  N   N5        1.0  0.77147  0.02918  0.06383  1.0000
  N   N6        1.0  0.22853  0.97082  0.93617  1.0000
  N   N7        1.0  0.98095  0.21882  0.26025  1.0000
  N   N8        1.0  0.01905  0.78118  0.73975  1.0000
  O   O1        1.0  0.35671  0.09017  0.22163  1.0000
  O   O2        1.0  0.64330  0.90983  0.77837  1.0000
  O   O3        1.0  0.76487  0.49092  0.61903  1.0000
  O   O4        1.0  0.23513  0.50908  0.38096  1.0000
  O   O5        1.0  0.00412  0.18846  0.46717  1.0000
  O   O6        1.0  0.99586  0.81153  0.53284  1.0000
  O   O7        1.0  0.55634  0.81336  0.07411  1.0000
  O   O8        1.0  0.44365  0.18664  0.92589  1.0000
  O   O9        1.0  0.29414  0.89302  0.35687  1.0000
  O   O10       1.0  0.70586  0.10698  0.64312  1.0000
