data_image0
_chemical_formula_structural       Cu2Hg2H22C34N10Cl4
_chemical_formula_sum              "Cu2 Hg2 H22 C34 N10 Cl4"
_cell_length_a       7.23111
_cell_length_b       9.53061
_cell_length_c       13.1533
_cell_angle_alpha    85.4479
_cell_angle_beta     83.9821
_cell_angle_gamma    86.5589

_space_group_name_H-M_alt    "P 1"
_space_group_IT_number       1

loop_
  _space_group_symop_operation_xyz
  'x, y, z'

loop_
  _atom_site_type_symbol
  _atom_site_label
  _atom_site_symmetry_multiplicity
  _atom_site_fract_x
  _atom_site_fract_y
  _atom_site_fract_z
  _atom_site_occupancy
  Cu  Cu1       1.0  0.08900  0.22518  0.70245  1.0000
  Cu  Cu2       1.0  0.91101  0.77482  0.29755  1.0000
  Hg  Hg1       1.0  0.54815  0.11938  0.83083  1.0000
  Hg  Hg2       1.0  0.45184  0.88063  0.16917  1.0000
  H   H1        1.0  0.98555  0.07447  0.91482  1.0000
  H   H2        1.0  0.01446  0.92553  0.08518  1.0000
  H   H3        1.0  0.80583  0.14732  0.07919  1.0000
  H   H4        1.0  0.19418  0.85268  0.92081  1.0000
  H   H5        1.0  0.69401  0.40194  0.08893  1.0000
  H   H6        1.0  0.30598  0.59805  0.91107  1.0000
  H   H7        1.0  0.77480  0.57309  0.93981  1.0000
  H   H8        1.0  0.22518  0.42690  0.06019  1.0000
  H   H9        1.0  0.90639  0.71204  0.80859  1.0000
  H   H10       1.0  0.09360  0.28796  0.19141  1.0000
  H   H11       1.0  0.04462  0.83274  0.64578  1.0000
  H   H12       1.0  0.95538  0.16726  0.35422  1.0000
  H   H13       1.0  0.20513  0.69200  0.50751  1.0000
  H   H14       1.0  0.79487  0.30799  0.49249  1.0000
  H   H15       1.0  0.34891  0.53646  0.40114  1.0000
  H   H16       1.0  0.65110  0.46353  0.59887  1.0000
  H   H17       1.0  0.49278  0.34649  0.29571  1.0000
  H   H18       1.0  0.50723  0.65351  0.70429  1.0000
  H   H19       1.0  0.45707  0.09215  0.36280  1.0000
  H   H20       1.0  0.54294  0.90784  0.63720  1.0000
  H   H21       1.0  0.28495  0.04259  0.53617  1.0000
  H   H22       1.0  0.71506  0.95741  0.46384  1.0000
  C   C1        1.0  0.46682  0.32863  0.81101  1.0000
  C   C2        1.0  0.53315  0.67138  0.18898  1.0000
  C   C3        1.0  0.63032  0.92139  0.88822  1.0000
  C   C4        1.0  0.36968  0.07863  0.11177  1.0000
  C   C5        1.0  0.93650  0.18328  0.92498  1.0000
  C   C6        1.0  0.06350  0.81672  0.07502  1.0000
  C   C7        1.0  0.83628  0.22475  0.01495  1.0000
  C   C8        1.0  0.16372  0.77524  0.98505  1.0000
  C   C9        1.0  0.77534  0.36576  0.02045  1.0000
  C   C10       1.0  0.22466  0.63423  0.97955  1.0000
  C   C11       1.0  0.82044  0.46206  0.93732  1.0000
  C   C12       1.0  0.17955  0.53793  0.06268  1.0000
  C   C13       1.0  0.92399  0.41383  0.85019  1.0000
  C   C14       1.0  0.07600  0.58616  0.14981  1.0000
  C   C15       1.0  0.98750  0.50396  0.75878  1.0000
  C   C16       1.0  0.01249  0.49604  0.24123  1.0000
  C   C17       1.0  0.97568  0.65118  0.74757  1.0000
  C   C18       1.0  0.02431  0.34882  0.25243  1.0000
  C   C19       1.0  0.05373  0.71801  0.65613  1.0000
  C   C20       1.0  0.94626  0.28199  0.34388  1.0000
  C   C21       1.0  0.14468  0.63920  0.57893  1.0000
  C   C22       1.0  0.85532  0.36080  0.42107  1.0000
  C   C23       1.0  0.15251  0.49218  0.59497  1.0000
  C   C24       1.0  0.84750  0.50782  0.40503  1.0000
  C   C25       1.0  0.24439  0.39025  0.52517  1.0000
  C   C26       1.0  0.75562  0.60975  0.47484  1.0000
  C   C27       1.0  0.33925  0.42625  0.42965  1.0000
  C   C28       1.0  0.66077  0.57375  0.57036  1.0000
  C   C29       1.0  0.41873  0.31884  0.37041  1.0000
  C   C30       1.0  0.58128  0.68116  0.62959  1.0000
  C   C31       1.0  0.39974  0.17886  0.40743  1.0000
  C   C32       1.0  0.60027  0.82115  0.59258  1.0000
  C   C33       1.0  0.30410  0.15004  0.50369  1.0000
  C   C34       1.0  0.69591  0.84996  0.49631  1.0000
  N   N1        1.0  0.42463  0.44836  0.79754  1.0000
  N   N2        1.0  0.57533  0.55165  0.20245  1.0000
  N   N3        1.0  0.67851  0.80979  0.92231  1.0000
  N   N4        1.0  0.32150  0.19022  0.07767  1.0000
  N   N5        1.0  0.97763  0.27509  0.84446  1.0000
  N   N6        1.0  0.02237  0.72491  0.15554  1.0000
  N   N7        1.0  0.07142  0.43042  0.68228  1.0000
  N   N8        1.0  0.92858  0.56957  0.31772  1.0000
  N   N9        1.0  0.23046  0.25287  0.56136  1.0000
  N   N10       1.0  0.76955  0.74713  0.43864  1.0000
  Cl  Cl1       1.0  0.23061  0.01291  0.74969  1.0000
  Cl  Cl2       1.0  0.76939  0.98708  0.25031  1.0000
  Cl  Cl3       1.0  0.79617  0.14046  0.64827  1.0000
  Cl  Cl4       1.0  0.20383  0.85956  0.35173  1.0000
