data_image0
_chemical_formula_structural       Mn2H40C44Se4N12O4
_chemical_formula_sum              "Mn2 H40 C44 Se4 N12 O4"
_cell_length_a       10.5242
_cell_length_b       10.7234
_cell_length_c       13.5594
_cell_angle_alpha    99.1831
_cell_angle_beta     108.323
_cell_angle_gamma    113.617

_space_group_name_H-M_alt    "P 1"
_space_group_IT_number       1

loop_
  _space_group_symop_operation_xyz
  'x, y, z'

loop_
  _atom_site_type_symbol
  _atom_site_label
  _atom_site_symmetry_multiplicity
  _atom_site_fract_x
  _atom_site_fract_y
  _atom_site_fract_z
  _atom_site_occupancy
  Mn  Mn1       1.0  0.64422  0.39586  0.24965  1.0000
  Mn  Mn2       1.0  0.35579  0.60415  0.75036  1.0000
  H   H1        1.0  0.53176  0.06379  0.20353  1.0000
  H   H2        1.0  0.35508  0.32095  0.29629  1.0000
  H   H3        1.0  0.46823  0.93620  0.79647  1.0000
  H   H4        1.0  0.64490  0.67905  0.70370  1.0000
  H   H5        1.0  0.32149  0.84417  0.19895  1.0000
  H   H6        1.0  0.13976  0.11559  0.30083  1.0000
  H   H7        1.0  0.67850  0.15582  0.80105  1.0000
  H   H8        1.0  0.86023  0.88440  0.69917  1.0000
  H   H9        1.0  0.19559  0.70030  0.26417  1.0000
  H   H10       1.0  0.92990  0.92504  0.23514  1.0000
  H   H11       1.0  0.80443  0.29971  0.73584  1.0000
  H   H12       1.0  0.07012  0.07497  0.76486  1.0000
  H   H13       1.0  0.97737  0.49485  0.26695  1.0000
  H   H14       1.0  0.72054  0.70555  0.23237  1.0000
  H   H15       1.0  0.02264  0.50516  0.73305  1.0000
  H   H16       1.0  0.27948  0.29446  0.76763  1.0000
  H   H17       1.0  0.78990  0.58678  0.46214  1.0000
  H   H18       1.0  0.62546  0.32947  0.03770  1.0000
  H   H19       1.0  0.21010  0.41322  0.53787  1.0000
  H   H20       1.0  0.37453  0.67052  0.96230  1.0000
  H   H21       1.0  0.63581  0.59152  0.41138  1.0000
  H   H22       1.0  0.67859  0.22648  0.08818  1.0000
  H   H23       1.0  0.36419  0.40848  0.58862  1.0000
  H   H24       1.0  0.32140  0.77352  0.91182  1.0000
  H   H25       1.0  0.62551  0.94483  0.04796  1.0000
  H   H26       1.0  0.39523  0.58464  0.45476  1.0000
  H   H27       1.0  0.37448  0.05516  0.95204  1.0000
  H   H28       1.0  0.60476  0.41536  0.54523  1.0000
  H   H29       1.0  0.76498  0.82980  0.99623  1.0000
  H   H30       1.0  0.33098  0.77407  0.50558  1.0000
  H   H31       1.0  0.23500  0.17018  0.00376  1.0000
  H   H32       1.0  0.66901  0.22594  0.49441  1.0000
  H   H33       1.0  0.11383  0.25599  0.04409  1.0000
  H   H34       1.0  0.71485  0.06588  0.45475  1.0000
  H   H35       1.0  0.88616  0.74400  0.95591  1.0000
  H   H36       1.0  0.28515  0.93413  0.54526  1.0000
  H   H37       1.0  0.95987  0.35207  0.09420  1.0000
  H   H38       1.0  0.76055  0.86394  0.40498  1.0000
  H   H39       1.0  0.04013  0.64792  0.90581  1.0000
  H   H40       1.0  0.23946  0.13607  0.59503  1.0000
  C   C1        1.0  0.44152  0.06984  0.22385  1.0000
  C   C2        1.0  0.34338  0.21315  0.27583  1.0000
  C   C3        1.0  0.55847  0.93016  0.77615  1.0000
  C   C4        1.0  0.65661  0.78685  0.72417  1.0000
  C   C5        1.0  0.32409  0.94761  0.22265  1.0000
  C   C6        1.0  0.22215  0.09694  0.27705  1.0000
  C   C7        1.0  0.67591  0.05238  0.77734  1.0000
  C   C8        1.0  0.77784  0.90306  0.72295  1.0000
  C   C9        1.0  0.21029  0.95959  0.24982  1.0000
  C   C10       1.0  0.78972  0.04041  0.75017  1.0000
  C   C11       1.0  0.08319  0.83301  0.24981  1.0000
  C   C12       1.0  0.91682  0.16700  0.75019  1.0000
  C   C13       1.0  0.09357  0.70823  0.25793  1.0000
  C   C14       1.0  0.94648  0.83223  0.24159  1.0000
  C   C15       1.0  0.90645  0.29177  0.74207  1.0000
  C   C16       1.0  0.05354  0.16778  0.75840  1.0000
  C   C17       1.0  0.97144  0.59207  0.25845  1.0000
  C   C18       1.0  0.82915  0.71037  0.24095  1.0000
  C   C19       1.0  0.02858  0.40794  0.74155  1.0000
  C   C20       1.0  0.17086  0.28964  0.75905  1.0000
  C   C21       1.0  0.87328  0.26857  0.36401  1.0000
  C   C22       1.0  0.39716  0.50571  0.13503  1.0000
  C   C23       1.0  0.12675  0.73141  0.63601  1.0000
  C   C24       1.0  0.60282  0.49430  0.86497  1.0000
  C   C25       1.0  0.73638  0.01140  0.04888  1.0000
  C   C26       1.0  0.46154  0.69215  0.45291  1.0000
  C   C27       1.0  0.26361  0.98860  0.95112  1.0000
  C   C28       1.0  0.53845  0.30785  0.54708  1.0000
  C   C29       1.0  0.81597  0.94659  0.01909  1.0000
  C   C30       1.0  0.42630  0.80053  0.48237  1.0000
  C   C31       1.0  0.18401  0.05340  0.98090  1.0000
  C   C32       1.0  0.57369  0.19947  0.51762  1.0000
  C   C33       1.0  0.95591  0.03183  0.01628  1.0000
  C   C34       1.0  0.51563  0.94018  0.48403  1.0000
  C   C35       1.0  0.04408  0.96816  0.98372  1.0000
  C   C36       1.0  0.48436  0.05983  0.51597  1.0000
  C   C37       1.0  0.00768  0.18089  0.04476  1.0000
  C   C38       1.0  0.63773  0.96151  0.45489  1.0000
  C   C39       1.0  0.99231  0.81910  0.95524  1.0000
  C   C40       1.0  0.36226  0.03851  0.54511  1.0000
  C   C41       1.0  0.92067  0.23634  0.07334  1.0000
  C   C42       1.0  0.66461  0.84710  0.42656  1.0000
  C   C43       1.0  0.07934  0.76365  0.92667  1.0000
  C   C44       1.0  0.33540  0.15291  0.57345  1.0000
  Se  Se1       1.0  0.98455  0.18514  0.41699  1.0000
  Se  Se2       1.0  0.26356  0.56734  0.08105  1.0000
  Se  Se3       1.0  0.01547  0.81483  0.58304  1.0000
  Se  Se4       1.0  0.73641  0.43266  0.91895  1.0000
  N   N1        1.0  0.45203  0.20102  0.24979  1.0000
  N   N2        1.0  0.54797  0.79897  0.75020  1.0000
  N   N3        1.0  0.84047  0.59172  0.24971  1.0000
  N   N4        1.0  0.15954  0.40829  0.75029  1.0000
  N   N5        1.0  0.79897  0.32330  0.32937  1.0000
  N   N6        1.0  0.48407  0.46324  0.17046  1.0000
  N   N7        1.0  0.20106  0.67668  0.67064  1.0000
  N   N8        1.0  0.51593  0.53678  0.82954  1.0000
  N   N9        1.0  0.78683  0.15397  0.07562  1.0000
  N   N10       1.0  0.57866  0.71391  0.42521  1.0000
  N   N11       1.0  0.21317  0.84602  0.92438  1.0000
  N   N12       1.0  0.42134  0.28610  0.57479  1.0000
  O   O1        1.0  0.68112  0.52290  0.41215  1.0000
  O   O2        1.0  0.60935  0.27205  0.08706  1.0000
  O   O3        1.0  0.31888  0.47711  0.58785  1.0000
  O   O4        1.0  0.39064  0.72794  0.91294  1.0000
