data_image0
_chemical_formula_structural       CoH20C22Se2N6O2
_chemical_formula_sum              "Co1 H20 C22 Se2 N6 O2"
_cell_length_a       7.31562
_cell_length_b       8.91991
_cell_length_c       10.0907
_cell_angle_alpha    110.179
_cell_angle_beta     102.511
_cell_angle_gamma    98.3816

_space_group_name_H-M_alt    "P 1"
_space_group_IT_number       1

loop_
  _space_group_symop_operation_xyz
  'x, y, z'

loop_
  _atom_site_type_symbol
  _atom_site_label
  _atom_site_symmetry_multiplicity
  _atom_site_fract_x
  _atom_site_fract_y
  _atom_site_fract_z
  _atom_site_occupancy
  Co  Co1       1.0  0.50001  0.50000  0.50000  1.0000
  H   H1        1.0  0.62293  0.55763  0.81127  1.0000
  H   H2        1.0  0.37707  0.44237  0.18873  1.0000
  H   H3        1.0  0.83833  0.77302  0.03961  1.0000
  H   H4        1.0  0.16166  0.22698  0.96039  1.0000
  H   H5        1.0  0.98574  0.04220  0.77603  1.0000
  H   H6        1.0  0.01427  0.95780  0.22398  1.0000
  H   H7        1.0  0.76162  0.81450  0.56014  1.0000
  H   H8        1.0  0.23839  0.18550  0.43986  1.0000
  H   H9        1.0  0.77160  0.34601  0.59369  1.0000
  H   H10       1.0  0.22840  0.65398  0.40631  1.0000
  H   H11       1.0  0.58582  0.26727  0.62264  1.0000
  H   H12       1.0  0.41418  0.73273  0.37736  1.0000
  H   H13       1.0  0.65192  0.02576  0.41627  1.0000
  H   H14       1.0  0.34808  0.97424  0.58374  1.0000
  H   H15       1.0  0.68379  0.16618  0.24999  1.0000
  H   H16       1.0  0.31621  0.83382  0.75001  1.0000
  H   H17       1.0  0.28983  0.73120  0.89503  1.0000
  H   H18       1.0  0.71017  0.26880  0.10497  1.0000
  H   H19       1.0  0.27181  0.61175  0.07676  1.0000
  H   H20       1.0  0.72818  0.38825  0.92324  1.0000
  C   C1        1.0  0.70746  0.66673  0.80862  1.0000
  C   C2        1.0  0.29254  0.33327  0.19137  1.0000
  C   C3        1.0  0.82993  0.79037  0.93692  1.0000
  C   C4        1.0  0.17007  0.20962  0.06308  1.0000
  C   C5        1.0  0.93580  0.93237  0.93259  1.0000
  C   C6        1.0  0.06420  0.06762  0.06742  1.0000
  C   C7        1.0  0.91033  0.93807  0.79217  1.0000
  C   C8        1.0  0.08967  0.06194  0.20783  1.0000
  C   C9        1.0  0.78379  0.81027  0.66866  1.0000
  C   C10       1.0  0.21622  0.18973  0.33135  1.0000
  C   C11       1.0  0.77711  0.56075  0.32942  1.0000
  C   C12       1.0  0.22289  0.43926  0.67057  1.0000
  C   C13       1.0  0.57612  0.96234  0.29910  1.0000
  C   C14       1.0  0.42389  0.03765  0.70090  1.0000
  C   C15       1.0  0.59390  0.04147  0.20367  1.0000
  C   C16       1.0  0.40609  0.95853  0.79633  1.0000
  C   C17       1.0  0.49279  0.96117  0.05332  1.0000
  C   C18       1.0  0.50721  0.03883  0.94669  1.0000
  C   C19       1.0  0.37523  0.80302  0.00873  1.0000
  C   C20       1.0  0.62476  0.19698  0.99128  1.0000
  C   C21       1.0  0.36485  0.73419  0.11179  1.0000
  C   C22       1.0  0.63515  0.26581  0.88821  1.0000
  Se  Se1       1.0  0.93396  0.62003  0.23316  1.0000
  Se  Se2       1.0  0.06604  0.37997  0.76682  1.0000
  N   N1        1.0  0.68160  0.67491  0.67490  1.0000
  N   N2        1.0  0.31840  0.32509  0.32510  1.0000
  N   N3        1.0  0.67168  0.52243  0.39211  1.0000
  N   N4        1.0  0.32833  0.47758  0.60788  1.0000
  N   N5        1.0  0.46386  0.81098  0.25517  1.0000
  N   N6        1.0  0.53614  0.18902  0.74483  1.0000
  O   O1        1.0  0.63050  0.30743  0.54946  1.0000
  O   O2        1.0  0.36950  0.69257  0.45054  1.0000
