data_image0
_chemical_formula_structural       Zn2H26C38S4N14O4
_chemical_formula_sum              "Zn2 H26 C38 S4 N14 O4"
_cell_length_a       6.10819
_cell_length_b       11.4686
_cell_length_c       14.8709
_cell_angle_alpha    90.0003
_cell_angle_beta     89.9999
_cell_angle_gamma    90.0001

_space_group_name_H-M_alt    "P 1"
_space_group_IT_number       1

loop_
  _space_group_symop_operation_xyz
  'x, y, z'

loop_
  _atom_site_type_symbol
  _atom_site_label
  _atom_site_symmetry_multiplicity
  _atom_site_fract_x
  _atom_site_fract_y
  _atom_site_fract_z
  _atom_site_occupancy
  Zn  Zn1       1.0  0.83175  0.50000  0.50000  1.0000
  Zn  Zn2       1.0  0.16825  0.00000  0.00000  1.0000
  H   H1        1.0  0.58788  0.71562  0.45417  1.0000
  H   H2        1.0  0.58788  0.28438  0.54583  1.0000
  H   H3        1.0  0.41212  0.78438  0.95417  1.0000
  H   H4        1.0  0.41212  0.21562  0.04583  1.0000
  H   H5        1.0  0.26913  0.82665  0.51808  1.0000
  H   H6        1.0  0.26913  0.17335  0.48192  1.0000
  H   H7        1.0  0.73087  0.67335  0.01808  1.0000
  H   H8        1.0  0.73087  0.32665  0.98192  1.0000
  H   H9        1.0  0.12124  0.76879  0.66834  1.0000
  H   H10       1.0  0.12123  0.23121  0.33166  1.0000
  H   H11       1.0  0.87877  0.73121  0.16834  1.0000
  H   H12       1.0  0.87877  0.26879  0.83166  1.0000
  H   H13       1.0  0.61450  0.49903  0.67820  1.0000
  H   H14       1.0  0.61450  0.50097  0.32180  1.0000
  H   H15       1.0  0.38550  0.00097  0.17820  1.0000
  H   H16       1.0  0.38550  0.99903  0.82180  1.0000
  H   H17       1.0  0.92197  0.52561  0.86331  1.0000
  H   H18       1.0  0.92197  0.47439  0.13669  1.0000
  H   H19       1.0  0.07803  0.97439  0.36331  1.0000
  H   H20       1.0  0.07803  0.02561  0.63669  1.0000
  H   H21       1.0  0.12996  0.64061  0.78683  1.0000
  H   H22       1.0  0.12996  0.35939  0.21317  1.0000
  H   H23       1.0  0.87004  0.85939  0.28683  1.0000
  H   H24       1.0  0.87004  0.14061  0.71317  1.0000
  H   H25       1.0  0.54746  0.50000  1.00000  1.0000
  H   H26       1.0  0.45254  0.00000  0.50000  1.0000
  C   C1        1.0  0.51814  0.69383  0.51956  1.0000
  C   C2        1.0  0.51814  0.30617  0.48044  1.0000
  C   C3        1.0  0.48186  0.80617  0.01956  1.0000
  C   C4        1.0  0.48186  0.19383  0.98044  1.0000
  C   C5        1.0  0.34073  0.75414  0.55497  1.0000
  C   C6        1.0  0.34073  0.24586  0.44503  1.0000
  C   C7        1.0  0.65927  0.74586  0.05497  1.0000
  C   C8        1.0  0.65927  0.25414  0.94503  1.0000
  C   C9        1.0  0.25919  0.72225  0.63848  1.0000
  C   C10       1.0  0.25919  0.27775  0.36152  1.0000
  C   C11       1.0  0.74081  0.77775  0.13848  1.0000
  C   C12       1.0  0.74081  0.22225  0.86152  1.0000
  C   C13       1.0  0.35708  0.62989  0.68561  1.0000
  C   C14       1.0  0.35708  0.37011  0.31439  1.0000
  C   C15       1.0  0.64292  0.87011  0.18561  1.0000
  C   C16       1.0  0.64292  0.12989  0.81439  1.0000
  C   C17       1.0  0.53387  0.57176  0.64526  1.0000
  C   C18       1.0  0.53387  0.42823  0.35474  1.0000
  C   C19       1.0  0.46613  0.92824  0.14526  1.0000
  C   C20       1.0  0.46613  0.07176  0.85474  1.0000
  C   C21       1.0  0.37771  0.53406  0.83464  1.0000
  C   C22       1.0  0.37771  0.46594  0.16536  1.0000
  C   C23       1.0  0.62229  0.96594  0.33464  1.0000
  C   C24       1.0  0.62229  0.03406  0.66536  1.0000
  C   C25       1.0  0.25233  0.51849  0.92019  1.0000
  C   C26       1.0  0.25234  0.48152  0.07981  1.0000
  C   C27       1.0  0.74767  0.98151  0.42019  1.0000
  C   C28       1.0  0.74767  0.01849  0.57981  1.0000
  C   C29       1.0  0.02310  0.51610  0.92345  1.0000
  C   C30       1.0  0.02310  0.48390  0.07655  1.0000
  C   C31       1.0  0.97690  0.98390  0.42345  1.0000
  C   C32       1.0  0.97690  0.01610  0.57655  1.0000
  C   C33       1.0  0.07950  0.65052  0.36025  1.0000
  C   C34       1.0  0.07948  0.34947  0.63975  1.0000
  C   C35       1.0  0.92050  0.84948  0.86025  1.0000
  C   C36       1.0  0.92052  0.15053  0.13975  1.0000
  C   C37       1.0  0.36829  0.50000  1.00000  1.0000
  C   C38       1.0  0.63172  0.00000  0.50000  1.0000
  S   S1        1.0  0.21146  0.73481  0.29278  1.0000
  S   S2        1.0  0.21145  0.26519  0.70722  1.0000
  S   S3        1.0  0.78854  0.76519  0.79278  1.0000
  S   S4        1.0  0.78854  0.23482  0.20722  1.0000
  N   N1        1.0  0.98335  0.58849  0.41042  1.0000
  N   N2        1.0  0.98333  0.41150  0.58959  1.0000
  N   N3        1.0  0.01665  0.91151  0.91042  1.0000
  N   N4        1.0  0.01666  0.08850  0.08959  1.0000
  N   N5        1.0  0.61045  0.60440  0.56421  1.0000
  N   N6        1.0  0.61045  0.39560  0.43579  1.0000
  N   N7        1.0  0.38955  0.89560  0.06421  1.0000
  N   N8        1.0  0.38955  0.10440  0.93579  1.0000
  N   N9        1.0  0.27394  0.59992  0.76996  1.0000
  N   N10       1.0  0.27394  0.40008  0.23004  1.0000
  N   N11       1.0  0.72606  0.90008  0.26996  1.0000
  N   N12       1.0  0.72606  0.09992  0.73004  1.0000
  N   N13       1.0  0.91153  0.50000  0.00000  1.0000
  N   N14       1.0  0.08848  1.00000  0.50000  1.0000
  O   O1        1.0  0.56177  0.49118  0.82470  1.0000
  O   O2        1.0  0.56178  0.50882  0.17530  1.0000
  O   O3        1.0  0.43823  0.00882  0.32470  1.0000
  O   O4        1.0  0.43822  0.99118  0.67530  1.0000
