data_image0
_chemical_formula_structural       Ni3H46C60N12O16
_chemical_formula_sum              "Ni3 H46 C60 N12 O16"
_cell_length_a       11.2837
_cell_length_b       12.0775
_cell_length_c       12.5768
_cell_angle_alpha    102.374
_cell_angle_beta     108.802
_cell_angle_gamma    108.728

_space_group_name_H-M_alt    "P 1"
_space_group_IT_number       1

loop_
  _space_group_symop_operation_xyz
  'x, y, z'

loop_
  _atom_site_type_symbol
  _atom_site_label
  _atom_site_symmetry_multiplicity
  _atom_site_fract_x
  _atom_site_fract_y
  _atom_site_fract_z
  _atom_site_occupancy
  Ni  Ni1       1.0  0.00000  0.00000  0.00000  1.0000
  Ni  Ni2       1.0  0.01524  0.28233  0.44490  1.0000
  Ni  Ni3       1.0  0.98476  0.71767  0.55510  1.0000
  H   H1        1.0  0.95246  0.10576  0.20007  1.0000
  H   H2        1.0  0.04754  0.89426  0.79994  1.0000
  H   H3        1.0  0.78776  0.28593  0.37793  1.0000
  H   H4        1.0  0.21224  0.71407  0.62204  1.0000
  H   H5        1.0  0.86801  0.27851  0.76257  1.0000
  H   H6        1.0  0.13199  0.72149  0.23744  1.0000
  H   H7        1.0  0.43983  0.02505  0.63190  1.0000
  H   H8        1.0  0.56017  0.97495  0.36810  1.0000
  H   H9        1.0  0.54846  0.37667  0.57359  1.0000
  H   H10       1.0  0.45154  0.62333  0.42642  1.0000
  H   H11       1.0  0.90722  0.18766  0.89009  1.0000
  H   H12       1.0  0.09278  0.81235  0.10992  1.0000
  H   H13       1.0  0.68335  0.80298  0.80385  1.0000
  H   H14       1.0  0.31666  0.19703  0.19616  1.0000
  H   H15       1.0  0.51418  0.88677  0.66284  1.0000
  H   H16       1.0  0.48583  0.11323  0.33715  1.0000
  H   H17       1.0  0.34416  0.35315  0.56673  1.0000
  H   H18       1.0  0.65583  0.64684  0.43328  1.0000
  H   H19       1.0  0.24017  0.96333  0.46703  1.0000
  H   H20       1.0  0.75983  0.03666  0.53298  1.0000
  H   H21       1.0  0.00481  0.00151  0.38064  1.0000
  H   H22       1.0  0.99518  0.99848  0.61937  1.0000
  H   H23       1.0  0.72699  0.48582  0.52728  1.0000
  H   H24       1.0  0.27301  0.51418  0.47273  1.0000
  H   H25       1.0  0.97987  0.49143  0.86316  1.0000
  H   H26       1.0  0.02013  0.50857  0.13684  1.0000
  H   H27       1.0  0.11681  0.69934  0.81786  1.0000
  H   H28       1.0  0.88319  0.30067  0.18214  1.0000
  H   H29       1.0  0.36290  0.51426  0.14945  1.0000
  H   H30       1.0  0.63711  0.48573  0.85055  1.0000
  H   H31       1.0  0.07475  0.22408  0.80954  1.0000
  H   H32       1.0  0.92525  0.77592  0.19046  1.0000
  H   H33       1.0  0.30252  0.59138  0.82052  1.0000
  H   H34       1.0  0.69748  0.40862  0.17948  1.0000
  H   H35       1.0  0.60602  0.65391  0.16518  1.0000
  H   H36       1.0  0.39399  0.34609  0.83482  1.0000
  H   H37       1.0  0.31402  0.77691  0.97076  1.0000
  H   H38       1.0  0.68597  0.22308  0.02924  1.0000
  H   H39       1.0  0.77926  0.87526  0.27497  1.0000
  H   H40       1.0  0.22074  0.12474  0.72502  1.0000
  H   H41       1.0  0.48220  0.99801  0.09030  1.0000
  H   H42       1.0  0.51780  0.00199  0.90969  1.0000
  H   H43       1.0  0.88188  0.43256  0.41837  1.0000
  H   H44       1.0  0.11813  0.56745  0.58164  1.0000
  H   H45       1.0  0.06747  0.19815  0.17183  1.0000
  H   H46       1.0  0.93253  0.80186  0.82817  1.0000
  C   C1        1.0  0.75881  0.25708  0.72026  1.0000
  C   C2        1.0  0.24119  0.74292  0.27975  1.0000
  C   C3        1.0  0.65786  0.14374  0.70503  1.0000
  C   C4        1.0  0.34214  0.85626  0.29498  1.0000
  C   C5        1.0  0.51776  0.11127  0.63973  1.0000
  C   C6        1.0  0.48224  0.88873  0.36027  1.0000
  C   C7        1.0  0.47932  0.19552  0.59258  1.0000
  C   C8        1.0  0.52068  0.80448  0.40743  1.0000
  C   C9        1.0  0.57856  0.31061  0.60923  1.0000
  C   C10       1.0  0.42144  0.68939  0.39077  1.0000
  C   C11       1.0  0.71789  0.34041  0.67385  1.0000
  C   C12       1.0  0.28211  0.65959  0.32616  1.0000
  C   C13       1.0  0.82549  0.09414  0.84699  1.0000
  C   C14       1.0  0.17451  0.90587  0.15302  1.0000
  C   C15       1.0  0.70408  0.89584  0.80061  1.0000
  C   C16       1.0  0.29593  0.10417  0.19940  1.0000
  C   C17       1.0  0.62095  0.93551  0.72783  1.0000
  C   C18       1.0  0.37905  0.06449  0.27217  1.0000
  C   C19       1.0  0.28343  0.25312  0.52332  1.0000
  C   C20       1.0  0.71656  0.74687  0.47669  1.0000
  C   C21       1.0  0.22758  0.04936  0.47384  1.0000
  C   C22       1.0  0.77242  0.95064  0.52616  1.0000
  C   C23       1.0  0.11116  0.06926  0.43104  1.0000
  C   C24       1.0  0.88884  0.93074  0.56897  1.0000
  C   C25       1.0  0.81248  0.52003  0.61444  1.0000
  C   C26       1.0  0.18753  0.47997  0.38557  1.0000
  C   C27       1.0  0.94941  0.52122  0.78743  1.0000
  C   C28       1.0  0.05060  0.47878  0.21257  1.0000
  C   C29       1.0  0.01562  0.62328  0.76416  1.0000
  C   C30       1.0  0.98439  0.37672  0.23584  1.0000
  C   C31       1.0  0.17774  0.26916  0.04780  1.0000
  C   C32       1.0  0.82226  0.73083  0.95220  1.0000
  C   C33       1.0  0.21511  0.36051  0.98602  1.0000
  C   C34       1.0  0.78489  0.63949  0.01397  1.0000
  C   C35       1.0  0.31322  0.48416  0.05171  1.0000
  C   C36       1.0  0.68678  0.51583  0.94829  1.0000
  C   C37       1.0  0.14817  0.32116  0.86089  1.0000
  C   C38       1.0  0.85183  0.67884  0.13910  1.0000
  C   C39       1.0  0.17853  0.40435  0.80149  1.0000
  C   C40       1.0  0.82147  0.59565  0.19851  1.0000
  C   C41       1.0  0.34545  0.56891  0.99325  1.0000
  C   C42       1.0  0.65455  0.43108  0.00675  1.0000
  C   C43       1.0  0.27744  0.52768  0.86770  1.0000
  C   C44       1.0  0.72256  0.47232  0.13230  1.0000
  C   C45       1.0  0.10907  0.35926  0.66796  1.0000
  C   C46       1.0  0.89092  0.64074  0.33204  1.0000
  C   C47       1.0  0.44806  0.70018  0.06107  1.0000
  C   C48       1.0  0.55194  0.29981  0.93893  1.0000
  C   C49       1.0  0.57936  0.72946  0.14802  1.0000
  C   C50       1.0  0.42064  0.27054  0.85197  1.0000
  C   C51       1.0  0.41574  0.79817  0.03785  1.0000
  C   C52       1.0  0.58425  0.20182  0.96215  1.0000
  C   C53       1.0  0.67668  0.85326  0.20902  1.0000
  C   C54       1.0  0.32332  0.14674  0.79098  1.0000
  C   C55       1.0  0.50997  0.92191  0.10326  1.0000
  C   C56       1.0  0.49003  0.07809  0.89673  1.0000
  C   C57       1.0  0.64162  0.95066  0.18917  1.0000
  C   C58       1.0  0.35837  0.04934  0.81082  1.0000
  C   C59       1.0  0.73609  0.08465  0.26542  1.0000
  C   C60       1.0  0.26391  0.91535  0.73456  1.0000
  N   N1        1.0  0.83142  0.99562  0.87422  1.0000
  N   N2        1.0  0.16858  0.00439  0.12580  1.0000
  N   N3        1.0  0.69894  0.06205  0.75708  1.0000
  N   N4        1.0  0.30106  0.93795  0.24293  1.0000
  N   N5        1.0  0.14734  0.19654  0.46280  1.0000
  N   N6        1.0  0.85266  0.80346  0.53722  1.0000
  N   N7        1.0  0.33762  0.16706  0.53193  1.0000
  N   N8        1.0  0.66238  0.83293  0.46807  1.0000
  N   N9        1.0  0.92934  0.62130  0.65614  1.0000
  N   N10       1.0  0.07067  0.37870  0.34386  1.0000
  N   N11       1.0  0.81996  0.45576  0.69155  1.0000
  N   N12       1.0  0.18004  0.54425  0.30846  1.0000
  O   O1        1.0  0.11447  0.15413  0.97777  1.0000
  O   O2        1.0  0.88554  0.84587  0.02223  1.0000
  O   O3        1.0  0.20752  0.31094  0.15860  1.0000
  O   O4        1.0  0.79247  0.68906  0.84140  1.0000
  O   O5        1.0  0.00783  0.25236  0.60933  1.0000
  O   O6        1.0  0.99215  0.74764  0.39068  1.0000
  O   O7        1.0  0.15643  0.42804  0.61246  1.0000
  O   O8        1.0  0.84356  0.57196  0.38754  1.0000
  O   O9        1.0  0.67967  0.15823  0.28253  1.0000
  O   O10       1.0  0.32033  0.84178  0.71741  1.0000
  O   O11       1.0  0.86686  0.11546  0.31115  1.0000
  O   O12       1.0  0.13314  0.88453  0.68884  1.0000
  O   O13       1.0  0.97607  0.12539  0.13568  1.0000
  O   O14       1.0  0.02393  0.87462  0.86433  1.0000
  O   O15       1.0  0.87315  0.36066  0.44519  1.0000
  O   O16       1.0  0.12684  0.63932  0.55480  1.0000
