data_image0
_chemical_formula_structural       Cs4B4H32C24O4F24
_chemical_formula_sum              "Cs4 B4 H32 C24 O4 F24"
_cell_length_a       8.93349
_cell_length_b       9.19697
_cell_length_c       12.6055
_cell_angle_alpha    90
_cell_angle_beta     93.8589
_cell_angle_gamma    90

_space_group_name_H-M_alt    "P 1"
_space_group_IT_number       1

loop_
  _space_group_symop_operation_xyz
  'x, y, z'

loop_
  _atom_site_type_symbol
  _atom_site_label
  _atom_site_symmetry_multiplicity
  _atom_site_fract_x
  _atom_site_fract_y
  _atom_site_fract_z
  _atom_site_occupancy
  Cs  Cs1       1.0  0.17206  0.16582  0.44200  1.0000
  Cs  Cs2       1.0  0.67207  0.33418  0.94200  1.0000
  Cs  Cs3       1.0  0.82793  0.83418  0.55800  1.0000
  Cs  Cs4       1.0  0.32793  0.66582  0.05800  1.0000
  B   B1        1.0  0.77588  0.26343  0.56404  1.0000
  B   B2        1.0  0.27588  0.23657  0.06404  1.0000
  B   B3        1.0  0.22412  0.73657  0.43596  1.0000
  B   B4        1.0  0.72412  0.76343  0.93596  1.0000
  H   H1        1.0  0.83070  0.11581  0.32244  1.0000
  H   H2        1.0  0.33071  0.38419  0.82244  1.0000
  H   H3        1.0  0.16930  0.88419  0.67756  1.0000
  H   H4        1.0  0.66929  0.61581  0.17756  1.0000
  H   H5        1.0  0.65022  0.15847  0.36428  1.0000
  H   H6        1.0  0.15022  0.34153  0.86428  1.0000
  H   H7        1.0  0.34979  0.84153  0.63572  1.0000
  H   H8        1.0  0.84978  0.65847  0.13572  1.0000
  H   H9        1.0  0.90848  0.37523  0.34149  1.0000
  H   H10       1.0  0.40848  0.12477  0.84149  1.0000
  H   H11       1.0  0.09152  0.62477  0.65851  1.0000
  H   H12       1.0  0.59152  0.87523  0.15851  1.0000
  H   H13       1.0  0.74449  0.35785  0.25658  1.0000
  H   H14       1.0  0.24449  0.14215  0.75658  1.0000
  H   H15       1.0  0.25551  0.64215  0.74342  1.0000
  H   H16       1.0  0.75551  0.85785  0.24342  1.0000
  H   H17       1.0  0.58696  0.42765  0.40438  1.0000
  H   H18       1.0  0.08696  0.07235  0.90438  1.0000
  H   H19       1.0  0.41304  0.57236  0.59562  1.0000
  H   H20       1.0  0.91304  0.92765  0.09562  1.0000
  H   H21       1.0  0.72042  0.56309  0.38353  1.0000
  H   H22       1.0  0.22042  0.93691  0.88353  1.0000
  H   H23       1.0  0.27958  0.43691  0.61647  1.0000
  H   H24       1.0  0.77958  0.06309  0.11647  1.0000
  H   H25       1.0  0.88423  0.47828  0.53623  1.0000
  H   H26       1.0  0.38423  0.02172  0.03623  1.0000
  H   H27       1.0  0.11577  0.52172  0.46377  1.0000
  H   H28       1.0  0.61577  0.97828  0.96377  1.0000
  H   H29       1.0  0.70187  0.49740  0.58162  1.0000
  H   H30       1.0  0.20187  0.00260  0.08162  1.0000
  H   H31       1.0  0.29813  0.50260  0.41838  1.0000
  H   H32       1.0  0.79813  0.99740  0.91838  1.0000
  C   C1        1.0  0.76986  0.18918  0.37369  1.0000
  C   C2        1.0  0.26986  0.31082  0.87369  1.0000
  C   C3        1.0  0.23014  0.81082  0.62631  1.0000
  C   C4        1.0  0.73014  0.68918  0.12631  1.0000
  C   C5        1.0  0.78832  0.34692  0.33983  1.0000
  C   C6        1.0  0.28832  0.15308  0.83983  1.0000
  C   C7        1.0  0.21168  0.65308  0.66017  1.0000
  C   C8        1.0  0.71168  0.84692  0.16017  1.0000
  C   C9        1.0  0.70803  0.45088  0.41184  1.0000
  C   C10       1.0  0.20803  0.04912  0.91184  1.0000
  C   C11       1.0  0.29197  0.54912  0.58816  1.0000
  C   C12       1.0  0.79197  0.95088  0.08816  1.0000
  C   C13       1.0  0.76924  0.43360  0.52808  1.0000
  C   C14       1.0  0.26924  0.06640  0.02808  1.0000
  C   C15       1.0  0.23076  0.56640  0.47192  1.0000
  C   C16       1.0  0.73076  0.93360  0.97192  1.0000
  C   C17       1.0  0.60990  0.21274  0.60165  1.0000
  C   C18       1.0  0.10990  0.28726  0.10165  1.0000
  C   C19       1.0  0.39009  0.78726  0.39835  1.0000
  C   C20       1.0  0.89009  0.71274  0.89835  1.0000
  C   C21       1.0  0.89917  0.24174  0.66535  1.0000
  C   C22       1.0  0.39917  0.25826  0.16535  1.0000
  C   C23       1.0  0.10083  0.75826  0.33465  1.0000
  C   C24       1.0  0.60083  0.74174  0.83465  1.0000
  O   O1        1.0  0.82746  0.16278  0.48144  1.0000
  O   O2        1.0  0.32746  0.33722  0.98144  1.0000
  O   O3        1.0  0.17254  0.83722  0.51856  1.0000
  O   O4        1.0  0.67254  0.66278  0.01856  1.0000
  F   F1        1.0  0.49332  0.23873  0.52454  1.0000
  F   F2        1.0  0.99332  0.26127  0.02454  1.0000
  F   F3        1.0  0.50668  0.76127  0.47546  1.0000
  F   F4        1.0  0.00668  0.73873  0.97546  1.0000
  F   F5        1.0  0.59535  0.06599  0.62466  1.0000
  F   F6        1.0  0.09535  0.43401  0.12466  1.0000
  F   F7        1.0  0.40465  0.93401  0.37534  1.0000
  F   F8        1.0  0.90465  0.56599  0.87534  1.0000
  F   F9        1.0  0.56450  0.28351  0.69152  1.0000
  F   F10       1.0  0.06450  0.21650  0.19152  1.0000
  F   F11       1.0  0.43550  0.71650  0.30848  1.0000
  F   F12       1.0  0.93550  0.78350  0.80848  1.0000
  F   F13       1.0  0.04278  0.28606  0.64230  1.0000
  F   F14       1.0  0.54278  0.21394  0.14230  1.0000
  F   F15       1.0  0.95722  0.71394  0.35770  1.0000
  F   F16       1.0  0.45722  0.78606  0.85770  1.0000
  F   F17       1.0  0.92009  0.09860  0.70042  1.0000
  F   F18       1.0  0.42009  0.40141  0.20042  1.0000
  F   F19       1.0  0.07991  0.90140  0.29958  1.0000
  F   F20       1.0  0.57991  0.59860  0.79958  1.0000
  F   F21       1.0  0.87088  0.31867  0.75567  1.0000
  F   F22       1.0  0.37088  0.18133  0.25567  1.0000
  F   F23       1.0  0.12912  0.68133  0.24434  1.0000
  F   F24       1.0  0.62912  0.81867  0.74434  1.0000
