data_image0
_chemical_formula_structural       Cd4H40C64N24O16
_chemical_formula_sum              "Cd4 H40 C64 N24 O16"
_cell_length_a       11.3615
_cell_length_b       13.7963
_cell_length_c       13.78
_cell_angle_alpha    103.194
_cell_angle_beta     90
_cell_angle_gamma    114.316

_space_group_name_H-M_alt    "P 1"
_space_group_IT_number       1

loop_
  _space_group_symop_operation_xyz
  'x, y, z'

loop_
  _atom_site_type_symbol
  _atom_site_label
  _atom_site_symmetry_multiplicity
  _atom_site_fract_x
  _atom_site_fract_y
  _atom_site_fract_z
  _atom_site_occupancy
  Cd  Cd1       1.0  0.04150  0.44340  0.36499  1.0000
  Cd  Cd2       1.0  0.40187  0.44336  0.86497  1.0000
  Cd  Cd3       1.0  0.95850  0.55660  0.63501  1.0000
  Cd  Cd4       1.0  0.59813  0.55664  0.13503  1.0000
  H   H1        1.0  0.08468  0.34756  0.76636  1.0000
  H   H2        1.0  0.26285  0.34739  0.26629  1.0000
  H   H3        1.0  0.91532  0.65244  0.23364  1.0000
  H   H4        1.0  0.73715  0.65261  0.73371  1.0000
  H   H5        1.0  0.86282  0.30679  0.83095  1.0000
  H   H6        1.0  0.44376  0.30645  0.33093  1.0000
  H   H7        1.0  0.13719  0.69321  0.16904  1.0000
  H   H8        1.0  0.55624  0.69355  0.66907  1.0000
  H   H9        1.0  0.00601  0.20205  0.36199  1.0000
  H   H10       1.0  0.19582  0.20198  0.86189  1.0000
  H   H11       1.0  0.99399  0.79795  0.63801  1.0000
  H   H12       1.0  0.80418  0.79802  0.13811  1.0000
  H   H13       1.0  0.83813  0.01662  0.37617  1.0000
  H   H14       1.0  0.17811  0.01645  0.87579  1.0000
  H   H15       1.0  0.16187  0.98337  0.62383  1.0000
  H   H16       1.0  0.82189  0.98355  0.12421  1.0000
  H   H17       1.0  0.54912  0.14374  0.37683  1.0000
  H   H18       1.0  0.59433  0.14360  0.87682  1.0000
  H   H19       1.0  0.45089  0.85626  0.62317  1.0000
  H   H20       1.0  0.40567  0.85641  0.12318  1.0000
  H   H21       1.0  0.72819  0.32358  0.36347  1.0000
  H   H22       1.0  0.59517  0.32342  0.86351  1.0000
  H   H23       1.0  0.27181  0.67642  0.63653  1.0000
  H   H24       1.0  0.40483  0.67658  0.13649  1.0000
  H   H25       1.0  0.53025  0.76549  0.37569  1.0000
  H   H26       1.0  0.23516  0.76541  0.87558  1.0000
  H   H27       1.0  0.46975  0.23451  0.62431  1.0000
  H   H28       1.0  0.76484  0.23459  0.12442  1.0000
  H   H29       1.0  0.36151  0.58117  0.37734  1.0000
  H   H30       1.0  0.21955  0.58108  0.87719  1.0000
  H   H31       1.0  0.63849  0.41883  0.62266  1.0000
  H   H32       1.0  0.78045  0.41892  0.12281  1.0000
  H   H33       1.0  0.06646  0.68490  0.37887  1.0000
  H   H34       1.0  0.61828  0.68476  0.87861  1.0000
  H   H35       1.0  0.93354  0.31510  0.62113  1.0000
  H   H36       1.0  0.38172  0.31524  0.12139  1.0000
  H   H37       1.0  0.22534  0.87478  0.36940  1.0000
  H   H38       1.0  0.64930  0.87468  0.86921  1.0000
  H   H39       1.0  0.77466  0.12522  0.63060  1.0000
  H   H40       1.0  0.35070  0.12532  0.13079  1.0000
  C   C1        1.0  0.04174  0.37554  0.04259  1.0000
  C   C2        1.0  0.33378  0.37553  0.54254  1.0000
  C   C3        1.0  0.95826  0.62446  0.95741  1.0000
  C   C4        1.0  0.66622  0.62447  0.45746  1.0000
  C   C5        1.0  0.16565  0.40948  0.00803  1.0000
  C   C6        1.0  0.24377  0.40940  0.50795  1.0000
  C   C7        1.0  0.83435  0.59052  0.99197  1.0000
  C   C8        1.0  0.75623  0.59060  0.49205  1.0000
  C   C9        1.0  0.07069  0.35680  0.84564  1.0000
  C   C10       1.0  0.28606  0.35666  0.34558  1.0000
  C   C11       1.0  0.92931  0.64320  0.15436  1.0000
  C   C12       1.0  0.71395  0.64335  0.65442  1.0000
  C   C13       1.0  0.94955  0.33188  0.88187  1.0000
  C   C14       1.0  0.38220  0.33168  0.38183  1.0000
  C   C15       1.0  0.05045  0.66812  0.11813  1.0000
  C   C16       1.0  0.61780  0.66833  0.61817  1.0000
  C   C17       1.0  0.02943  0.37639  0.15211  1.0000
  C   C18       1.0  0.34713  0.37659  0.65211  1.0000
  C   C19       1.0  0.97057  0.62361  0.84789  1.0000
  C   C20       1.0  0.65287  0.62341  0.34789  1.0000
  C   C21       1.0  0.28768  0.46783  0.08048  1.0000
  C   C22       1.0  0.17989  0.46756  0.58041  1.0000
  C   C23       1.0  0.71232  0.53217  0.91952  1.0000
  C   C24       1.0  0.82011  0.53244  0.41959  1.0000
  C   C25       1.0  0.90393  0.18558  0.36614  1.0000
  C   C26       1.0  0.28143  0.18549  0.86605  1.0000
  C   C27       1.0  0.09607  0.81442  0.63386  1.0000
  C   C28       1.0  0.71857  0.81451  0.13395  1.0000
  C   C29       1.0  0.81202  0.08370  0.37347  1.0000
  C   C30       1.0  0.27138  0.08355  0.87327  1.0000
  C   C31       1.0  0.18798  0.91630  0.62653  1.0000
  C   C32       1.0  0.72862  0.91645  0.12673  1.0000
  C   C33       1.0  0.68213  0.06739  0.37669  1.0000
  C   C34       1.0  0.38494  0.06720  0.87652  1.0000
  C   C35       1.0  0.31787  0.93261  0.62331  1.0000
  C   C36       1.0  0.61506  0.93280  0.12348  1.0000
  C   C37       1.0  0.64923  0.15411  0.37353  1.0000
  C   C38       1.0  0.50460  0.15397  0.87351  1.0000
  C   C39       1.0  0.35077  0.84589  0.62647  1.0000
  C   C40       1.0  0.49541  0.84603  0.12649  1.0000
  C   C41       1.0  0.74788  0.25343  0.36736  1.0000
  C   C42       1.0  0.50530  0.25331  0.86741  1.0000
  C   C43       1.0  0.25212  0.74657  0.63264  1.0000
  C   C44       1.0  0.49470  0.74669  0.13259  1.0000
  C   C45       1.0  0.38969  0.83400  0.37310  1.0000
  C   C46       1.0  0.44417  0.83392  0.87301  1.0000
  C   C47       1.0  0.61031  0.16600  0.62690  1.0000
  C   C48       1.0  0.55583  0.16609  0.12699  1.0000
  C   C49       1.0  0.42863  0.75071  0.37615  1.0000
  C   C50       1.0  0.32197  0.75060  0.87604  1.0000
  C   C51       1.0  0.57137  0.24929  0.62385  1.0000
  C   C52       1.0  0.67803  0.24940  0.12395  1.0000
  C   C53       1.0  0.33393  0.64796  0.37802  1.0000
  C   C54       1.0  0.31393  0.64786  0.87790  1.0000
  C   C55       1.0  0.66607  0.35204  0.62198  1.0000
  C   C56       1.0  0.68607  0.35214  0.12210  1.0000
  C   C57       1.0  0.16995  0.70640  0.37677  1.0000
  C   C58       1.0  0.53633  0.70630  0.87657  1.0000
  C   C59       1.0  0.83005  0.29359  0.62323  1.0000
  C   C60       1.0  0.46367  0.29371  0.12343  1.0000
  C   C61       1.0  0.25740  0.81102  0.37228  1.0000
  C   C62       1.0  0.55349  0.81094  0.87214  1.0000
  C   C63       1.0  0.74260  0.18898  0.62772  1.0000
  C   C64       1.0  0.44651  0.18906  0.12786  1.0000
  N   N1        1.0  0.93397  0.33828  0.97926  1.0000
  N   N2        1.0  0.40427  0.33819  0.47924  1.0000
  N   N3        1.0  0.06603  0.66173  0.02074  1.0000
  N   N4        1.0  0.59573  0.66181  0.52076  1.0000
  N   N5        1.0  0.17825  0.39575  0.90959  1.0000
  N   N6        1.0  0.21746  0.39566  0.40949  1.0000
  N   N7        1.0  0.82175  0.60425  0.09042  1.0000
  N   N8        1.0  0.78254  0.60433  0.59051  1.0000
  N   N9        1.0  0.87291  0.26913  0.36406  1.0000
  N   N10       1.0  0.39599  0.26903  0.86397  1.0000
  N   N11       1.0  0.12709  0.73087  0.63594  1.0000
  N   N12       1.0  0.60401  0.73098  0.13603  1.0000
  N   N13       1.0  0.20713  0.62603  0.37924  1.0000
  N   N14       1.0  0.41880  0.62590  0.87903  1.0000
  N   N15       1.0  0.79287  0.37397  0.62076  1.0000
  N   N16       1.0  0.58120  0.37411  0.12097  1.0000
  N   N17       1.0  0.59400  0.96201  0.38444  1.0000
  N   N18       1.0  0.36770  0.96178  0.88414  1.0000
  N   N19       1.0  0.40600  0.03799  0.61556  1.0000
  N   N20       1.0  0.63230  0.03822  0.11586  1.0000
  N   N21       1.0  0.47566  0.94130  0.36750  1.0000
  N   N22       1.0  0.46551  0.94124  0.86752  1.0000
  N   N23       1.0  0.52434  0.05869  0.63250  1.0000
  N   N24       1.0  0.53449  0.05876  0.13248  1.0000
  O   O1        1.0  0.99067  0.44501  0.20359  1.0000
  O   O2        1.0  0.45450  0.44529  0.70353  1.0000
  O   O3        1.0  0.00933  0.55499  0.79641  1.0000
  O   O4        1.0  0.54549  0.55471  0.29647  1.0000
  O   O5        1.0  0.05849  0.30929  0.18338  1.0000
  O   O6        1.0  0.25109  0.30945  0.68348  1.0000
  O   O7        1.0  0.94151  0.69072  0.81662  1.0000
  O   O8        1.0  0.74891  0.69055  0.31652  1.0000
  O   O9        1.0  0.28127  0.51944  0.16564  1.0000
  O   O10       1.0  0.23769  0.51901  0.66565  1.0000
  O   O11       1.0  0.71873  0.48056  0.83436  1.0000
  O   O12       1.0  0.76230  0.48099  0.33435  1.0000
  O   O13       1.0  0.39035  0.46184  0.04544  1.0000
  O   O14       1.0  0.07126  0.46158  0.54531  1.0000
  O   O15       1.0  0.60965  0.53816  0.95456  1.0000
  O   O16       1.0  0.92874  0.53842  0.45469  1.0000
