data_image0
_chemical_formula_structural       Ag2H24C40N6O6
_chemical_formula_sum              "Ag2 H24 C40 N6 O6"
_cell_length_a       9.18405
_cell_length_b       9.53399
_cell_length_c       10.7688
_cell_angle_alpha    110.883
_cell_angle_beta     96.2556
_cell_angle_gamma    103.353

_space_group_name_H-M_alt    "P 1"
_space_group_IT_number       1

loop_
  _space_group_symop_operation_xyz
  'x, y, z'

loop_
  _atom_site_type_symbol
  _atom_site_label
  _atom_site_symmetry_multiplicity
  _atom_site_fract_x
  _atom_site_fract_y
  _atom_site_fract_z
  _atom_site_occupancy
  Ag  Ag1       1.0  0.08865  0.00690  0.19987  1.0000
  Ag  Ag2       1.0  0.91135  0.99309  0.80012  1.0000
  H   H1        1.0  0.36176  0.30760  0.29498  1.0000
  H   H2        1.0  0.63824  0.69240  0.70502  1.0000
  H   H3        1.0  0.19656  0.76770  0.11589  1.0000
  H   H4        1.0  0.80344  0.23231  0.88411  1.0000
  H   H5        1.0  0.31138  0.55561  0.01765  1.0000
  H   H6        1.0  0.68862  0.44439  0.98235  1.0000
  H   H7        1.0  0.58535  0.61897  0.98999  1.0000
  H   H8        1.0  0.41465  0.38103  0.01001  1.0000
  H   H9        1.0  0.74196  0.89523  0.07066  1.0000
  H   H10       1.0  0.25804  0.10477  0.92934  1.0000
  H   H11       1.0  0.76441  0.18027  0.17745  1.0000
  H   H12       1.0  0.23559  0.81974  0.82255  1.0000
  H   H13       1.0  0.91010  0.70724  0.21541  1.0000
  H   H14       1.0  0.08989  0.29275  0.78458  1.0000
  H   H15       1.0  0.01730  0.24538  0.37989  1.0000
  H   H16       1.0  0.98271  0.75462  0.62011  1.0000
  H   H17       1.0  0.92626  0.44489  0.55067  1.0000
  H   H18       1.0  0.07375  0.55512  0.44933  1.0000
  H   H19       1.0  0.72381  0.36393  0.66378  1.0000
  H   H20       1.0  0.27620  0.63608  0.33622  1.0000
  H   H21       1.0  0.60611  0.07965  0.60994  1.0000
  H   H22       1.0  0.39389  0.92035  0.39006  1.0000
  H   H23       1.0  0.60027  0.80094  0.48845  1.0000
  H   H24       1.0  0.39972  0.19906  0.51154  1.0000
  C   C1        1.0  0.42027  0.21888  0.25496  1.0000
  C   C2        1.0  0.57973  0.78111  0.74504  1.0000
  C   C3        1.0  0.40402  0.95373  0.15443  1.0000
  C   C4        1.0  0.59598  0.04627  0.84558  1.0000
  C   C5        1.0  0.31657  0.79523  0.10807  1.0000
  C   C6        1.0  0.68343  0.20477  0.89194  1.0000
  C   C7        1.0  0.38191  0.67680  0.05224  1.0000
  C   C8        1.0  0.61809  0.32320  0.94776  1.0000
  C   C9        1.0  0.53598  0.71285  0.03843  1.0000
  C   C10       1.0  0.46402  0.28715  0.96157  1.0000
  C   C11       1.0  0.62369  0.86657  0.08236  1.0000
  C   C12       1.0  0.37631  0.13343  0.91765  1.0000
  C   C13       1.0  0.56104  0.99114  0.14334  1.0000
  C   C14       1.0  0.43896  0.00886  0.85667  1.0000
  C   C15       1.0  0.64653  0.15031  0.19012  1.0000
  C   C16       1.0  0.35347  0.84969  0.80988  1.0000
  C   C17       1.0  0.57723  0.26626  0.24786  1.0000
  C   C18       1.0  0.42276  0.73374  0.75214  1.0000
  C   C19       1.0  0.64943  0.42843  0.29022  1.0000
  C   C20       1.0  0.35056  0.57156  0.70979  1.0000
  C   C21       1.0  0.69697  0.56958  0.32099  1.0000
  C   C22       1.0  0.30303  0.43041  0.67900  1.0000
  C   C23       1.0  0.74939  0.73197  0.35143  1.0000
  C   C24       1.0  0.25060  0.26802  0.64857  1.0000
  C   C25       1.0  0.86477  0.78932  0.28847  1.0000
  C   C26       1.0  0.13523  0.21068  0.71153  1.0000
  C   C27       1.0  0.86538  0.04891  0.40157  1.0000
  C   C28       1.0  0.13462  0.95110  0.59843  1.0000
  C   C29       1.0  0.92806  0.21020  0.43142  1.0000
  C   C30       1.0  0.07195  0.78980  0.56857  1.0000
  C   C31       1.0  0.87654  0.32009  0.52456  1.0000
  C   C32       1.0  0.12347  0.67991  0.47544  1.0000
  C   C33       1.0  0.75923  0.27361  0.58897  1.0000
  C   C34       1.0  0.24077  0.72640  0.41103  1.0000
  C   C35       1.0  0.69506  0.11685  0.55973  1.0000
  C   C36       1.0  0.30494  0.88315  0.44027  1.0000
  C   C37       1.0  0.74719  0.00083  0.46691  1.0000
  C   C38       1.0  0.25281  0.99918  0.53309  1.0000
  C   C39       1.0  0.68991  0.83991  0.43946  1.0000
  C   C40       1.0  0.31009  0.16009  0.56052  1.0000
  N   N1        1.0  0.33686  0.07054  0.20883  1.0000
  N   N2        1.0  0.66314  0.92945  0.79117  1.0000
  N   N3        1.0  0.91889  0.93945  0.31108  1.0000
  N   N4        1.0  0.08111  0.06056  0.68893  1.0000
  N   N5        1.0  0.07235  0.28980  0.10315  1.0000
  N   N6        1.0  0.92765  0.71020  0.89685  1.0000
  O   O1        1.0  0.97778  0.15156  0.06540  1.0000
  O   O2        1.0  0.02222  0.84844  0.93460  1.0000
  O   O3        1.0  0.14254  0.36122  0.22590  1.0000
  O   O4        1.0  0.85746  0.63878  0.77410  1.0000
  O   O5        1.0  0.09303  0.34945  0.01697  1.0000
  O   O6        1.0  0.90697  0.65054  0.98303  1.0000
