data_image0
_chemical_formula_structural       Zn2H36C32Br4N8O8
_chemical_formula_sum              "Zn2 H36 C32 Br4 N8 O8"
_cell_length_a       7.92161
_cell_length_b       7.92162
_cell_length_c       15.9939
_cell_angle_alpha    84.439
_cell_angle_beta     84.4388
_cell_angle_gamma    80.9772

_space_group_name_H-M_alt    "P 1"
_space_group_IT_number       1

loop_
  _space_group_symop_operation_xyz
  'x, y, z'

loop_
  _atom_site_type_symbol
  _atom_site_label
  _atom_site_symmetry_multiplicity
  _atom_site_fract_x
  _atom_site_fract_y
  _atom_site_fract_z
  _atom_site_occupancy
  Zn  Zn1       1.0  0.56569  0.43431  0.25000  1.0000
  Zn  Zn2       1.0  0.43431  0.56569  0.75000  1.0000
  H   H1        1.0  0.13888  0.47203  0.60366  1.0000
  H   H2        1.0  0.52797  0.86112  0.89634  1.0000
  H   H3        1.0  0.86111  0.52797  0.39634  1.0000
  H   H4        1.0  0.47203  0.13888  0.10366  1.0000
  H   H5        1.0  0.33584  0.31811  0.39587  1.0000
  H   H6        1.0  0.68189  0.66415  0.10413  1.0000
  H   H7        1.0  0.66415  0.68189  0.60413  1.0000
  H   H8        1.0  0.31811  0.33585  0.89587  1.0000
  H   H9        1.0  0.22499  0.73584  0.55722  1.0000
  H   H10       1.0  0.26416  0.77500  0.94278  1.0000
  H   H11       1.0  0.77501  0.26416  0.44278  1.0000
  H   H12       1.0  0.73584  0.22499  0.05722  1.0000
  H   H13       1.0  0.38676  0.91006  0.44849  1.0000
  H   H14       1.0  0.08994  0.61325  0.05150  1.0000
  H   H15       1.0  0.61325  0.08994  0.55150  1.0000
  H   H16       1.0  0.91006  0.38675  0.94850  1.0000
  H   H17       1.0  0.52473  0.77431  0.31802  1.0000
  H   H18       1.0  0.22569  0.47527  0.18198  1.0000
  H   H19       1.0  0.47527  0.22569  0.68198  1.0000
  H   H20       1.0  0.77431  0.52473  0.81802  1.0000
  H   H21       1.0  0.17290  0.95315  0.63243  1.0000
  H   H22       1.0  0.04685  0.82710  0.86757  1.0000
  H   H23       1.0  0.82710  0.04685  0.36757  1.0000
  H   H24       1.0  0.95315  0.17290  0.13243  1.0000
  H   H25       1.0  0.98163  0.98628  0.57722  1.0000
  H   H26       1.0  0.01372  0.01837  0.92278  1.0000
  H   H27       1.0  0.01837  0.01372  0.42278  1.0000
  H   H28       1.0  0.98629  0.98163  0.07722  1.0000
  H   H29       1.0  0.94295  0.85246  0.72394  1.0000
  H   H30       1.0  0.14754  0.05705  0.77606  1.0000
  H   H31       1.0  0.05705  0.14754  0.27606  1.0000
  H   H32       1.0  0.85246  0.94295  0.22394  1.0000
  H   H33       1.0  0.80264  0.04529  0.70808  1.0000
  H   H34       1.0  0.95471  0.19736  0.79192  1.0000
  H   H35       1.0  0.19736  0.95471  0.29192  1.0000
  H   H36       1.0  0.04529  0.80264  0.20808  1.0000
  C   C1        1.0  0.34391  0.44788  0.41014  1.0000
  C   C2        1.0  0.55212  0.65609  0.08986  1.0000
  C   C3        1.0  0.65609  0.55212  0.58986  1.0000
  C   C4        1.0  0.44788  0.34391  0.91014  1.0000
  C   C5        1.0  0.26657  0.51284  0.48562  1.0000
  C   C6        1.0  0.48716  0.73343  0.01438  1.0000
  C   C7        1.0  0.73342  0.48716  0.51438  1.0000
  C   C8        1.0  0.51284  0.26657  0.98562  1.0000
  C   C9        1.0  0.28384  0.68162  0.49936  1.0000
  C   C10       1.0  0.31837  0.71616  0.00064  1.0000
  C   C11       1.0  0.71616  0.31837  0.50064  1.0000
  C   C12       1.0  0.68163  0.28384  0.99936  1.0000
  C   C13       1.0  0.37521  0.77815  0.43927  1.0000
  C   C14       1.0  0.22186  0.62479  0.06073  1.0000
  C   C15       1.0  0.62479  0.22185  0.56073  1.0000
  C   C16       1.0  0.77815  0.37521  0.93927  1.0000
  C   C17       1.0  0.45003  0.70447  0.36651  1.0000
  C   C18       1.0  0.29552  0.54997  0.13349  1.0000
  C   C19       1.0  0.54997  0.29552  0.63349  1.0000
  C   C20       1.0  0.70448  0.45003  0.86651  1.0000
  C   C21       1.0  0.15104  0.25117  0.54632  1.0000
  C   C22       1.0  0.74883  0.84896  0.95368  1.0000
  C   C23       1.0  0.84896  0.74883  0.45368  1.0000
  C   C24       1.0  0.25117  0.15103  0.04632  1.0000
  C   C25       1.0  0.04173  0.02337  0.63031  1.0000
  C   C26       1.0  0.97663  0.95826  0.86969  1.0000
  C   C27       1.0  0.95826  0.97663  0.36969  1.0000
  C   C28       1.0  0.02337  0.04173  0.13031  1.0000
  C   C29       1.0  0.93823  0.99244  0.71305  1.0000
  C   C30       1.0  0.00756  0.06177  0.78695  1.0000
  C   C31       1.0  0.06177  0.00756  0.28695  1.0000
  C   C32       1.0  0.99244  0.93823  0.21305  1.0000
  Br  Br1       1.0  0.52063  0.14218  0.25398  1.0000
  Br  Br2       1.0  0.85782  0.47937  0.24602  1.0000
  Br  Br3       1.0  0.47937  0.85782  0.74602  1.0000
  Br  Br4       1.0  0.14218  0.52063  0.75398  1.0000
  N   N1        1.0  0.43384  0.54267  0.35318  1.0000
  N   N2        1.0  0.45732  0.56616  0.14683  1.0000
  N   N3        1.0  0.56616  0.45732  0.64683  1.0000
  N   N4        1.0  0.54268  0.43384  0.85318  1.0000
  N   N5        1.0  0.17558  0.41913  0.54728  1.0000
  N   N6        1.0  0.58088  0.82441  0.95272  1.0000
  N   N7        1.0  0.82441  0.58088  0.45272  1.0000
  N   N8        1.0  0.41913  0.17559  0.04728  1.0000
  O   O1        1.0  0.20592  0.15675  0.48995  1.0000
  O   O2        1.0  0.84326  0.79407  0.01006  1.0000
  O   O3        1.0  0.79407  0.84326  0.51006  1.0000
  O   O4        1.0  0.15675  0.20593  0.98994  1.0000
  O   O5        1.0  0.05635  0.20568  0.61722  1.0000
  O   O6        1.0  0.79432  0.94365  0.88278  1.0000
  O   O7        1.0  0.94365  0.79432  0.38278  1.0000
  O   O8        1.0  0.20568  0.05635  0.11722  1.0000
