data_image0
_chemical_formula_structural       Gd4H12C36O24
_chemical_formula_sum              "Gd4 H12 C36 O24"
_cell_length_a       10.3956
_cell_length_b       10.3959
_cell_length_c       13.9858
_cell_angle_alpha    89.9999
_cell_angle_beta     90.0003
_cell_angle_gamma    90.0001

_space_group_name_H-M_alt    "P 1"
_space_group_IT_number       1

loop_
  _space_group_symop_operation_xyz
  'x, y, z'

loop_
  _atom_site_type_symbol
  _atom_site_label
  _atom_site_symmetry_multiplicity
  _atom_site_fract_x
  _atom_site_fract_y
  _atom_site_fract_z
  _atom_site_occupancy
  Gd  Gd1       1.0  0.87791  0.87792  0.62499  1.0000
  Gd  Gd2       1.0  0.12209  0.12209  0.12499  1.0000
  Gd  Gd3       1.0  0.12209  0.87792  0.37501  1.0000
  Gd  Gd4       1.0  0.87792  0.12208  0.87501  1.0000
  H   H1        1.0  0.93032  0.47213  0.64521  1.0000
  H   H2        1.0  0.06968  0.52787  0.14520  1.0000
  H   H3        1.0  0.52787  0.93030  0.39520  1.0000
  H   H4        1.0  0.47214  0.06970  0.89520  1.0000
  H   H5        1.0  0.06967  0.47213  0.35480  1.0000
  H   H6        1.0  0.93033  0.52787  0.85480  1.0000
  H   H7        1.0  0.47213  0.93030  0.60480  1.0000
  H   H8        1.0  0.52786  0.06969  0.10480  1.0000
  H   H9        1.0  1.00000  0.11351  0.50000  1.0000
  H   H10       1.0  0.00000  0.88649  1.00000  1.0000
  H   H11       1.0  0.88649  0.00000  0.25000  1.0000
  H   H12       1.0  0.11351  0.00000  0.75000  1.0000
  C   C1        1.0  0.99999  0.62979  0.50000  1.0000
  C   C2        1.0  0.00001  0.37021  0.00000  1.0000
  C   C3        1.0  0.37020  1.00000  0.25000  1.0000
  C   C4        1.0  0.62980  0.00000  0.75000  1.0000
  C   C5        1.0  0.92818  0.21096  0.67005  1.0000
  C   C6        1.0  0.07182  0.78904  0.17005  1.0000
  C   C7        1.0  0.78903  0.92817  0.42005  1.0000
  C   C8        1.0  0.21098  0.07183  0.92005  1.0000
  C   C9        1.0  0.07182  0.21096  0.32995  1.0000
  C   C10       1.0  0.92819  0.78904  0.82995  1.0000
  C   C11       1.0  0.21097  0.92817  0.57995  1.0000
  C   C12       1.0  0.78903  0.07183  0.07995  1.0000
  C   C13       1.0  0.99999  0.48593  0.50000  1.0000
  C   C14       1.0  0.00000  0.51407  1.00000  1.0000
  C   C15       1.0  0.51406  1.00000  0.25000  1.0000
  C   C16       1.0  0.48594  1.00000  0.75000  1.0000
  C   C17       1.0  0.96084  0.41916  0.58187  1.0000
  C   C18       1.0  0.03916  0.58084  0.08187  1.0000
  C   C19       1.0  0.58084  0.96083  0.33187  1.0000
  C   C20       1.0  0.41916  0.03917  0.83187  1.0000
  C   C21       1.0  0.03915  0.41916  0.41813  1.0000
  C   C22       1.0  0.96085  0.58084  0.91813  1.0000
  C   C23       1.0  0.41916  0.96083  0.66814  1.0000
  C   C24       1.0  0.58084  0.03917  0.16813  1.0000
  C   C25       1.0  0.96275  0.28451  0.58234  1.0000
  C   C26       1.0  0.03725  0.71549  0.08234  1.0000
  C   C27       1.0  0.71548  0.96274  0.33234  1.0000
  C   C28       1.0  0.28452  0.03726  0.83234  1.0000
  C   C29       1.0  0.03725  0.28451  0.41766  1.0000
  C   C30       1.0  0.96275  0.71549  0.91766  1.0000
  C   C31       1.0  0.28452  0.96274  0.66766  1.0000
  C   C32       1.0  0.71548  0.03726  0.16766  1.0000
  C   C33       1.0  1.00000  0.21808  0.50000  1.0000
  C   C34       1.0  0.00000  0.78192  1.00000  1.0000
  C   C35       1.0  0.78193  0.00000  0.25000  1.0000
  C   C36       1.0  0.21807  0.00000  0.75000  1.0000
  O   O1        1.0  0.91475  0.68598  0.55016  1.0000
  O   O2        1.0  0.08524  0.31402  0.05016  1.0000
  O   O3        1.0  0.31401  0.91475  0.30016  1.0000
  O   O4        1.0  0.68599  0.08524  0.80016  1.0000
  O   O5        1.0  0.08523  0.68598  0.44984  1.0000
  O   O6        1.0  0.91476  0.31402  0.94984  1.0000
  O   O7        1.0  0.68599  0.91475  0.69984  1.0000
  O   O8        1.0  0.31401  0.08524  0.19984  1.0000
  O   O9        1.0  0.91831  0.26927  0.74963  1.0000
  O   O10       1.0  0.08168  0.73073  0.24963  1.0000
  O   O11       1.0  0.73069  0.91828  0.49963  1.0000
  O   O12       1.0  0.26931  0.08172  0.99963  1.0000
  O   O13       1.0  0.08169  0.26927  0.25037  1.0000
  O   O14       1.0  0.91832  0.73073  0.75037  1.0000
  O   O15       1.0  0.26931  0.91828  0.50038  1.0000
  O   O16       1.0  0.73069  0.08172  0.00037  1.0000
  O   O17       1.0  0.91193  0.08891  0.66392  1.0000
  O   O18       1.0  0.08807  0.91109  0.16391  1.0000
  O   O19       1.0  0.91107  0.91194  0.41394  1.0000
  O   O20       1.0  0.08893  0.08806  0.91394  1.0000
  O   O21       1.0  0.08807  0.08891  0.33609  1.0000
  O   O22       1.0  0.91193  0.91109  0.83608  1.0000
  O   O23       1.0  0.08893  0.91194  0.58606  1.0000
  O   O24       1.0  0.91107  0.08807  0.08606  1.0000
