data_image0
_chemical_formula_structural       Gd4H36C44O28
_chemical_formula_sum              "Gd4 H36 C44 O28"
_cell_length_a       10.3726
_cell_length_b       10.3727
_cell_length_c       14.057
_cell_angle_alpha    90
_cell_angle_beta     90
_cell_angle_gamma    90

_space_group_name_H-M_alt    "P 1"
_space_group_IT_number       1

loop_
  _space_group_symop_operation_xyz
  'x, y, z'

loop_
  _atom_site_type_symbol
  _atom_site_label
  _atom_site_symmetry_multiplicity
  _atom_site_fract_x
  _atom_site_fract_y
  _atom_site_fract_z
  _atom_site_occupancy
  Gd  Gd1       1.0  0.13020  0.12848  0.16505  1.0000
  Gd  Gd2       1.0  0.86980  0.87152  0.66505  1.0000
  Gd  Gd3       1.0  0.87152  0.13020  0.91505  1.0000
  Gd  Gd4       1.0  0.12848  0.86980  0.41505  1.0000
  H   H1        1.0  0.23683  0.36483  0.08658  1.0000
  H   H2        1.0  0.76317  0.63517  0.58658  1.0000
  H   H3        1.0  0.63517  0.23683  0.83658  1.0000
  H   H4        1.0  0.36483  0.76317  0.33658  1.0000
  H   H5        1.0  0.89666  0.00774  0.30033  1.0000
  H   H6        1.0  0.10334  0.99226  0.80033  1.0000
  H   H7        1.0  0.99226  0.89666  0.05033  1.0000
  H   H8        1.0  0.00774  0.10334  0.55033  1.0000
  H   H9        1.0  0.53773  0.07804  0.15691  1.0000
  H   H10       1.0  0.46227  0.92196  0.65691  1.0000
  H   H11       1.0  0.92196  0.53773  0.90691  1.0000
  H   H12       1.0  0.07804  0.46227  0.40691  1.0000
  H   H13       1.0  0.53957  0.98637  0.45545  1.0000
  H   H14       1.0  0.46043  0.01363  0.95545  1.0000
  H   H15       1.0  0.01363  0.53957  0.20545  1.0000
  H   H16       1.0  0.98637  0.46043  0.70545  1.0000
  H   H17       1.0  0.40571  0.32132  0.98404  1.0000
  H   H18       1.0  0.59429  0.67868  0.48405  1.0000
  H   H19       1.0  0.67868  0.40571  0.73405  1.0000
  H   H20       1.0  0.32132  0.59429  0.23405  1.0000
  H   H21       1.0  0.44542  0.18926  0.05840  1.0000
  H   H22       1.0  0.55458  0.81074  0.55840  1.0000
  H   H23       1.0  0.81074  0.44542  0.80840  1.0000
  H   H24       1.0  0.18926  0.55458  0.30840  1.0000
  H   H25       1.0  0.60456  0.36408  0.08356  1.0000
  H   H26       1.0  0.39544  0.63592  0.58356  1.0000
  H   H27       1.0  0.63593  0.60456  0.83356  1.0000
  H   H28       1.0  0.36408  0.39544  0.33356  1.0000
  H   H29       1.0  0.51097  0.34305  0.18878  1.0000
  H   H30       1.0  0.48903  0.65695  0.68878  1.0000
  H   H31       1.0  0.65695  0.51097  0.93878  1.0000
  H   H32       1.0  0.34306  0.48903  0.43878  1.0000
  H   H33       1.0  0.47986  0.47604  0.11129  1.0000
  H   H34       1.0  0.52014  0.52396  0.61129  1.0000
  H   H35       1.0  0.52395  0.47986  0.86129  1.0000
  H   H36       1.0  0.47605  0.52014  0.36129  1.0000
  C   C1        1.0  0.79618  0.95977  0.47687  1.0000
  C   C2        1.0  0.20382  0.04023  0.97687  1.0000
  C   C3        1.0  0.04023  0.79619  0.22687  1.0000
  C   C4        1.0  0.95977  0.20381  0.72687  1.0000
  C   C5        1.0  0.72647  0.99339  0.38755  1.0000
  C   C6        1.0  0.27353  0.00661  0.88756  1.0000
  C   C7        1.0  0.00661  0.72647  0.13755  1.0000
  C   C8        1.0  0.99339  0.27353  0.63755  1.0000
  C   C9        1.0  0.79226  0.01505  0.30256  1.0000
  C   C10       1.0  0.20774  0.98495  0.80256  1.0000
  C   C11       1.0  0.98495  0.79226  0.05256  1.0000
  C   C12       1.0  0.01505  0.20774  0.55256  1.0000
  C   C13       1.0  0.72495  0.04850  0.22000  1.0000
  C   C14       1.0  0.27505  0.95150  0.72000  1.0000
  C   C15       1.0  0.95150  0.72495  0.97000  1.0000
  C   C16       1.0  0.04850  0.27505  0.47000  1.0000
  C   C17       1.0  0.59049  0.05602  0.22176  1.0000
  C   C18       1.0  0.40951  0.94398  0.72176  1.0000
  C   C19       1.0  0.94398  0.59049  0.97176  1.0000
  C   C20       1.0  0.05602  0.40951  0.47176  1.0000
  C   C21       1.0  0.52386  0.03186  0.30623  1.0000
  C   C22       1.0  0.47614  0.96814  0.80623  1.0000
  C   C23       1.0  0.96814  0.52386  0.05623  1.0000
  C   C24       1.0  0.03186  0.47614  0.55623  1.0000
  C   C25       1.0  0.59184  0.00267  0.38936  1.0000
  C   C26       1.0  0.40816  0.99733  0.88936  1.0000
  C   C27       1.0  0.99733  0.59184  0.13936  1.0000
  C   C28       1.0  0.00267  0.40816  0.63936  1.0000
  C   C29       1.0  0.79849  0.07426  0.13086  1.0000
  C   C30       1.0  0.20151  0.92574  0.63086  1.0000
  C   C31       1.0  0.92574  0.79849  0.88086  1.0000
  C   C32       1.0  0.07426  0.20151  0.38086  1.0000
  C   C33       1.0  0.37950  0.03092  0.30705  1.0000
  C   C34       1.0  0.62050  0.96908  0.80705  1.0000
  C   C35       1.0  0.96909  0.37950  0.05706  1.0000
  C   C36       1.0  0.03091  0.62050  0.55706  1.0000
  C   C37       1.0  0.41381  0.29002  0.05876  1.0000
  C   C38       1.0  0.58619  0.70998  0.55876  1.0000
  C   C39       1.0  0.70998  0.41381  0.80876  1.0000
  C   C40       1.0  0.29002  0.58619  0.30876  1.0000
  C   C41       1.0  0.50741  0.37369  0.11405  1.0000
  C   C42       1.0  0.49259  0.62630  0.61405  1.0000
  C   C43       1.0  0.62630  0.50740  0.86405  1.0000
  C   C44       1.0  0.37370  0.49259  0.36405  1.0000
  O   O1        1.0  0.74120  0.98668  0.55540  1.0000
  O   O2        1.0  0.25880  0.01332  0.05540  1.0000
  O   O3        1.0  0.01332  0.74120  0.30540  1.0000
  O   O4        1.0  0.98668  0.25880  0.80540  1.0000
  O   O5        1.0  0.90599  0.90214  0.47487  1.0000
  O   O6        1.0  0.09401  0.09786  0.97487  1.0000
  O   O7        1.0  0.09786  0.90599  0.22487  1.0000
  O   O8        1.0  0.90214  0.09401  0.72487  1.0000
  O   O9        1.0  0.92124  0.07928  0.13725  1.0000
  O   O10       1.0  0.07876  0.92072  0.63725  1.0000
  O   O11       1.0  0.92072  0.92124  0.88725  1.0000
  O   O12       1.0  0.07928  0.07876  0.38725  1.0000
  O   O13       1.0  0.73924  0.08850  0.05271  1.0000
  O   O14       1.0  0.26076  0.91151  0.55271  1.0000
  O   O15       1.0  0.91150  0.73924  0.80271  1.0000
  O   O16       1.0  0.08850  0.26076  0.30271  1.0000
  O   O17       1.0  0.32063  0.10322  0.24898  1.0000
  O   O18       1.0  0.67937  0.89678  0.74898  1.0000
  O   O19       1.0  0.89677  0.32063  0.99898  1.0000
  O   O20       1.0  0.10323  0.67937  0.49897  1.0000
  O   O21       1.0  0.32724  0.95405  0.36606  1.0000
  O   O22       1.0  0.67276  0.04595  0.86606  1.0000
  O   O23       1.0  0.04595  0.32725  0.11606  1.0000
  O   O24       1.0  0.95405  0.67276  0.61606  1.0000
  O   O25       1.0  0.28673  0.28754  0.10089  1.0000
  O   O26       1.0  0.71327  0.71246  0.60089  1.0000
  O   O27       1.0  0.71246  0.28673  0.85089  1.0000
  O   O28       1.0  0.28754  0.71327  0.35089  1.0000
