data_image0
_chemical_formula_structural       Ca4H48C28N8O32
_chemical_formula_sum              "Ca4 H48 C28 N8 O32"
_cell_length_a       7.7225
_cell_length_b       8.32854
_cell_length_c       18.7331
_cell_angle_alpha    90
_cell_angle_beta     90
_cell_angle_gamma    105.167

_space_group_name_H-M_alt    "P 1"
_space_group_IT_number       1

loop_
  _space_group_symop_operation_xyz
  'x, y, z'

loop_
  _atom_site_type_symbol
  _atom_site_label
  _atom_site_symmetry_multiplicity
  _atom_site_fract_x
  _atom_site_fract_y
  _atom_site_fract_z
  _atom_site_occupancy
  Ca  Ca1       1.0  0.23672  0.46194  0.97248  1.0000
  Ca  Ca2       1.0  0.26328  0.03806  0.47248  1.0000
  Ca  Ca3       1.0  0.76328  0.53806  0.02752  1.0000
  Ca  Ca4       1.0  0.73672  0.96194  0.52752  1.0000
  H   H1        1.0  0.11607  0.00426  0.04529  1.0000
  H   H2        1.0  0.38392  0.49574  0.54529  1.0000
  H   H3        1.0  0.88392  0.99574  0.95471  1.0000
  H   H4        1.0  0.61608  0.50426  0.45471  1.0000
  H   H5        1.0  0.11031  0.87022  0.11976  1.0000
  H   H6        1.0  0.38969  0.62978  0.61976  1.0000
  H   H7        1.0  0.88969  0.12978  0.88024  1.0000
  H   H8        1.0  0.61031  0.37022  0.38024  1.0000
  H   H9        1.0  0.44941  0.09288  0.05969  1.0000
  H   H10       1.0  0.05059  0.40712  0.55969  1.0000
  H   H11       1.0  0.55059  0.90712  0.94031  1.0000
  H   H12       1.0  0.94941  0.59288  0.44031  1.0000
  H   H13       1.0  0.59587  0.24528  0.21447  1.0000
  H   H14       1.0  0.90413  0.25473  0.71447  1.0000
  H   H15       1.0  0.40413  0.75473  0.78553  1.0000
  H   H16       1.0  0.09587  0.74527  0.28553  1.0000
  H   H17       1.0  0.66751  0.20161  0.12854  1.0000
  H   H18       1.0  0.83248  0.29839  0.62853  1.0000
  H   H19       1.0  0.33249  0.79839  0.87147  1.0000
  H   H20       1.0  0.16752  0.70161  0.37146  1.0000
  H   H21       1.0  0.81919  0.23342  0.28028  1.0000
  H   H22       1.0  0.68081  0.26658  0.78028  1.0000
  H   H23       1.0  0.18081  0.76658  0.71972  1.0000
  H   H24       1.0  0.31919  0.73342  0.21972  1.0000
  H   H25       1.0  0.07399  0.11905  0.30931  1.0000
  H   H26       1.0  0.42601  0.38095  0.80931  1.0000
  H   H27       1.0  0.92600  0.88095  0.69069  1.0000
  H   H28       1.0  0.57399  0.61905  0.19069  1.0000
  H   H29       1.0  0.94788  0.92540  0.27412  1.0000
  H   H30       1.0  0.55212  0.57460  0.77412  1.0000
  H   H31       1.0  0.05212  0.07460  0.72588  1.0000
  H   H32       1.0  0.44787  0.42540  0.22588  1.0000
  H   H33       1.0  0.42736  0.20621  0.95976  1.0000
  H   H34       1.0  0.07264  0.29379  0.45976  1.0000
  H   H35       1.0  0.57264  0.79379  0.04024  1.0000
  H   H36       1.0  0.92736  0.70621  0.54024  1.0000
  H   H37       1.0  0.28862  0.15762  0.89690  1.0000
  H   H38       1.0  0.21139  0.34238  0.39690  1.0000
  H   H39       1.0  0.71138  0.84238  0.10310  1.0000
  H   H40       1.0  0.78862  0.65762  0.60310  1.0000
  H   H41       1.0  0.13408  0.48884  0.80676  1.0000
  H   H42       1.0  0.36592  0.01116  0.30676  1.0000
  H   H43       1.0  0.86592  0.51116  0.19324  1.0000
  H   H44       1.0  0.63408  0.98884  0.69324  1.0000
  H   H45       1.0  0.98268  0.48937  0.86386  1.0000
  H   H46       1.0  0.51732  0.01063  0.36386  1.0000
  H   H47       1.0  0.01732  0.51063  0.13613  1.0000
  H   H48       1.0  0.48268  0.98937  0.63613  1.0000
  C   C1        1.0  0.20573  0.78759  0.02271  1.0000
  C   C2        1.0  0.29427  0.71241  0.52270  1.0000
  C   C3        1.0  0.79427  0.21241  0.97729  1.0000
  C   C4        1.0  0.70573  0.28759  0.47730  1.0000
  C   C5        1.0  0.18974  0.92651  0.07319  1.0000
  C   C6        1.0  0.31026  0.57349  0.57319  1.0000
  C   C7        1.0  0.81026  0.07349  0.92681  1.0000
  C   C8        1.0  0.68975  0.42651  0.42681  1.0000
  C   C9        1.0  0.41739  0.03588  0.16466  1.0000
  C   C10       1.0  0.08261  0.46412  0.66466  1.0000
  C   C11       1.0  0.58261  0.96412  0.83534  1.0000
  C   C12       1.0  0.91739  0.53588  0.33534  1.0000
  C   C13       1.0  0.60477  0.14438  0.17818  1.0000
  C   C14       1.0  0.89523  0.35562  0.67818  1.0000
  C   C15       1.0  0.39523  0.85562  0.82182  1.0000
  C   C16       1.0  0.10477  0.64438  0.32182  1.0000
  C   C17       1.0  0.72195  0.04318  0.21099  1.0000
  C   C18       1.0  0.77805  0.45683  0.71099  1.0000
  C   C19       1.0  0.27805  0.95683  0.78901  1.0000
  C   C20       1.0  0.22195  0.54317  0.28901  1.0000
  C   C21       1.0  0.93865  0.03545  0.30469  1.0000
  C   C22       1.0  0.56135  0.46455  0.80469  1.0000
  C   C23       1.0  0.06134  0.96455  0.69532  1.0000
  C   C24       1.0  0.43865  0.53545  0.19531  1.0000
  C   C25       1.0  0.86776  0.97973  0.37917  1.0000
  C   C26       1.0  0.63224  0.52028  0.87917  1.0000
  C   C27       1.0  0.13224  0.02027  0.62083  1.0000
  C   C28       1.0  0.36776  0.47972  0.12083  1.0000
  N   N1        1.0  0.36182  0.02758  0.09696  1.0000
  N   N2        1.0  0.13818  0.47242  0.59696  1.0000
  N   N3        1.0  0.63818  0.97242  0.90304  1.0000
  N   N4        1.0  0.86182  0.52758  0.40304  1.0000
  N   N5        1.0  0.82394  0.11585  0.26571  1.0000
  N   N6        1.0  0.67606  0.38415  0.76571  1.0000
  N   N7        1.0  0.17605  0.88415  0.73429  1.0000
  N   N8        1.0  0.32394  0.61585  0.23429  1.0000
  O   O1        1.0  0.06213  0.68684  0.00173  1.0000
  O   O2        1.0  0.43786  0.81316  0.50172  1.0000
  O   O3        1.0  0.93787  0.31316  0.99827  1.0000
  O   O4        1.0  0.56213  0.18684  0.49828  1.0000
  O   O5        1.0  0.35966  0.77372  0.00330  1.0000
  O   O6        1.0  0.14034  0.72628  0.50330  1.0000
  O   O7        1.0  0.64034  0.22629  0.99670  1.0000
  O   O8        1.0  0.85966  0.27371  0.49671  1.0000
  O   O9        1.0  0.32227  0.95862  0.21489  1.0000
  O   O10       1.0  0.17773  0.54138  0.71489  1.0000
  O   O11       1.0  0.67773  0.04138  0.78510  1.0000
  O   O12       1.0  0.82227  0.45862  0.28511  1.0000
  O   O13       1.0  0.72327  0.90219  0.18789  1.0000
  O   O14       1.0  0.77673  0.59781  0.68789  1.0000
  O   O15       1.0  0.27673  0.09781  0.81211  1.0000
  O   O16       1.0  0.22327  0.40219  0.31211  1.0000
  O   O17       1.0  0.97535  0.94088  0.42325  1.0000
  O   O18       1.0  0.52465  0.55912  0.92325  1.0000
  O   O19       1.0  0.02465  0.05912  0.57675  1.0000
  O   O20       1.0  0.47535  0.44088  0.07675  1.0000
  O   O21       1.0  0.70727  0.97437  0.39587  1.0000
  O   O22       1.0  0.79273  0.52563  0.89587  1.0000
  O   O23       1.0  0.29272  0.02562  0.60413  1.0000
  O   O24       1.0  0.20727  0.47437  0.10413  1.0000
  O   O25       1.0  0.30182  0.20143  0.94681  1.0000
  O   O26       1.0  0.19818  0.29857  0.44681  1.0000
  O   O27       1.0  0.69818  0.79857  0.05319  1.0000
  O   O28       1.0  0.80182  0.70143  0.55319  1.0000
  O   O29       1.0  0.10307  0.46817  0.85780  1.0000
  O   O30       1.0  0.39693  0.03183  0.35780  1.0000
  O   O31       1.0  0.89693  0.53183  0.14220  1.0000
  O   O32       1.0  0.60307  0.96817  0.64220  1.0000
