data_image0
_chemical_formula_structural       Ag4H48C50N16O8
_chemical_formula_sum              "Ag4 H48 C50 N16 O8"
_cell_length_a       11.365
_cell_length_b       11.3921
_cell_length_c       12.142
_cell_angle_alpha    85.5495
_cell_angle_beta     65.5744
_cell_angle_gamma    77.0624

_space_group_name_H-M_alt    "P 1"
_space_group_IT_number       1

loop_
  _space_group_symop_operation_xyz
  'x, y, z'

loop_
  _atom_site_type_symbol
  _atom_site_label
  _atom_site_symmetry_multiplicity
  _atom_site_fract_x
  _atom_site_fract_y
  _atom_site_fract_z
  _atom_site_occupancy
  Ag  Ag1       1.0  0.79849  0.69048  0.55264  1.0000
  Ag  Ag2       1.0  0.20150  0.30952  0.44736  1.0000
  Ag  Ag3       1.0  0.48895  0.19899  0.34309  1.0000
  Ag  Ag4       1.0  0.51105  0.80101  0.65691  1.0000
  H   H1        1.0  0.63170  0.51191  0.77159  1.0000
  H   H2        1.0  0.36830  0.48809  0.22841  1.0000
  H   H3        1.0  0.00703  0.30450  0.73600  1.0000
  H   H4        1.0  0.99297  0.69551  0.26400  1.0000
  H   H5        1.0  0.03914  0.51342  0.60695  1.0000
  H   H6        1.0  0.96086  0.48659  0.39305  1.0000
  H   H7        1.0  0.64750  0.32499  0.92144  1.0000
  H   H8        1.0  0.35249  0.67501  0.07855  1.0000
  H   H9        1.0  0.80633  0.23157  0.88386  1.0000
  H   H10       1.0  0.19367  0.76843  0.11613  1.0000
  H   H11       1.0  0.51158  0.31107  0.81796  1.0000
  H   H12       1.0  0.48842  0.68893  0.18203  1.0000
  H   H13       1.0  0.63570  0.35101  0.68380  1.0000
  H   H14       1.0  0.36430  0.64899  0.31620  1.0000
  H   H15       1.0  0.61358  0.32815  0.50223  1.0000
  H   H16       1.0  0.38642  0.67185  0.49777  1.0000
  H   H17       1.0  0.45496  0.08464  0.78043  1.0000
  H   H18       1.0  0.54504  0.91536  0.21956  1.0000
  H   H19       1.0  0.40131  0.04899  0.58635  1.0000
  H   H20       1.0  0.59869  0.95101  0.41365  1.0000
  H   H21       1.0  0.87097  0.22409  0.60199  1.0000
  H   H22       1.0  0.12903  0.77591  0.39801  1.0000
  H   H23       1.0  0.91606  0.11310  0.69551  1.0000
  H   H24       1.0  0.08394  0.88689  0.30449  1.0000
  H   H25       1.0  0.83851  0.15283  0.42754  1.0000
  H   H26       1.0  0.16149  0.84717  0.57246  1.0000
  H   H27       1.0  0.82361  0.92824  0.36343  1.0000
  H   H28       1.0  0.17640  0.07176  0.63657  1.0000
  H   H29       1.0  0.84992  0.90069  0.70271  1.0000
  H   H30       1.0  0.15008  0.09930  0.29729  1.0000
  H   H31       1.0  0.62590  0.03449  0.81963  1.0000
  H   H32       1.0  0.37410  0.96551  0.18037  1.0000
  H   H33       1.0  0.75235  0.03407  0.86867  1.0000
  H   H34       1.0  0.24765  0.96593  0.13133  1.0000
  H   H35       1.0  0.38657  0.19244  0.95549  1.0000
  H   H36       1.0  0.61343  0.80755  0.04451  1.0000
  H   H37       1.0  0.29107  0.25808  0.19480  1.0000
  H   H38       1.0  0.70893  0.74192  0.80520  1.0000
  H   H39       1.0  0.69797  0.08783  0.07238  1.0000
  H   H40       1.0  0.30204  0.91217  0.92762  1.0000
  H   H41       1.0  0.80175  0.79268  0.18156  1.0000
  H   H42       1.0  0.19826  0.20732  0.81844  1.0000
  H   H43       1.0  0.89086  0.60228  0.85678  1.0000
  H   H44       1.0  0.10913  0.39772  0.14323  1.0000
  H   H45       1.0  0.84735  0.41529  0.97604  1.0000
  H   H46       1.0  0.15264  0.58472  0.02395  1.0000
  H   H47       1.0  0.77827  0.41985  0.20038  1.0000
  H   H48       1.0  0.22173  0.58015  0.79962  1.0000
  C   C1        1.0  0.73800  0.48416  0.74165  1.0000
  C   C2        1.0  0.26200  0.51584  0.25835  1.0000
  C   C3        1.0  0.93417  0.37671  0.72253  1.0000
  C   C4        1.0  0.06583  0.62329  0.27747  1.0000
  C   C5        1.0  0.94920  0.48071  0.65757  1.0000
  C   C6        1.0  0.05080  0.51929  0.34244  1.0000
  C   C7        1.0  0.73901  0.28407  0.84552  1.0000
  C   C8        1.0  0.26099  0.71593  0.15448  1.0000
  C   C9        1.0  0.70816  0.19796  0.77240  1.0000
  C   C10       1.0  0.29184  0.80204  0.22760  1.0000
  C   C11       1.0  0.59886  0.27418  0.73607  1.0000
  C   C12       1.0  0.40114  0.72582  0.26392  1.0000
  C   C13       1.0  0.56657  0.25431  0.54820  1.0000
  C   C14       1.0  0.43343  0.74569  0.45180  1.0000
  C   C15       1.0  0.48544  0.12563  0.69240  1.0000
  C   C16       1.0  0.51456  0.87436  0.30760  1.0000
  C   C17       1.0  0.45811  0.10908  0.59577  1.0000
  C   C18       1.0  0.54189  0.89092  0.40423  1.0000
  C   C19       1.0  0.83899  0.14995  0.66227  1.0000
  C   C20       1.0  0.16101  0.85005  0.33772  1.0000
  C   C21       1.0  0.83267  0.06885  0.47597  1.0000
  C   C22       1.0  0.16733  0.93115  0.52402  1.0000
  C   C23       1.0  0.82752  0.95748  0.44455  1.0000
  C   C24       1.0  0.17248  0.04252  0.55545  1.0000
  C   C25       1.0  0.83733  0.93839  0.62118  1.0000
  C   C26       1.0  0.16267  0.06161  0.37881  1.0000
  C   C27       1.0  0.66614  0.09182  0.85737  1.0000
  C   C28       1.0  0.33387  0.90817  0.14263  1.0000
  C   C29       1.0  0.43757  0.18452  0.01465  1.0000
  C   C30       1.0  0.56243  0.81547  0.98534  1.0000
  C   C31       1.0  0.39081  0.21670  0.13416  1.0000
  C   C32       1.0  0.60920  0.78330  0.86584  1.0000
  C   C33       1.0  0.60096  0.13171  0.07590  1.0000
  C   C34       1.0  0.39904  0.86829  0.92410  1.0000
  C   C35       1.0  0.75722  0.60481  0.33892  1.0000
  C   C36       1.0  0.24278  0.39519  0.66108  1.0000
  C   C37       1.0  0.78607  0.60589  0.20532  1.0000
  C   C38       1.0  0.21394  0.39411  0.79468  1.0000
  C   C39       1.0  0.81023  0.70994  0.13702  1.0000
  C   C40       1.0  0.18978  0.29006  0.86299  1.0000
  C   C41       1.0  0.84466  0.71030  0.01206  1.0000
  C   C42       1.0  0.15534  0.28971  0.98794  1.0000
  C   C43       1.0  0.85893  0.82698  0.94096  1.0000
  C   C44       1.0  0.14107  0.17302  0.05904  1.0000
  C   C45       1.0  0.85878  0.60268  0.95467  1.0000
  C   C46       1.0  0.14122  0.39732  0.04533  1.0000
  C   C47       1.0  0.83353  0.49910  0.02189  1.0000
  C   C48       1.0  0.16647  0.50090  0.97811  1.0000
  C   C49       1.0  0.79585  0.50054  0.14687  1.0000
  C   C50       1.0  0.20415  0.49946  0.85313  1.0000
  N   N1        1.0  0.82623  0.54599  0.66945  1.0000
  N   N2        1.0  0.17377  0.45401  0.33055  1.0000
  N   N3        1.0  0.80000  0.37988  0.77524  1.0000
  N   N4        1.0  0.20000  0.62012  0.22476  1.0000
  N   N5        1.0  0.55483  0.21732  0.66101  1.0000
  N   N6        1.0  0.44517  0.78268  0.33899  1.0000
  N   N7        1.0  0.50984  0.18893  0.50636  1.0000
  N   N8        1.0  0.49016  0.81107  0.49364  1.0000
  N   N9        1.0  0.83640  0.05602  0.58901  1.0000
  N   N10       1.0  0.16360  0.94398  0.41099  1.0000
  N   N11       1.0  0.83066  0.87746  0.53554  1.0000
  N   N12       1.0  0.16935  0.12254  0.46446  1.0000
  N   N13       1.0  0.56994  0.13114  0.97916  1.0000
  N   N14       1.0  0.43006  0.86886  0.02084  1.0000
  N   N15       1.0  0.49368  0.18358  0.17124  1.0000
  N   N16       1.0  0.50633  0.81642  0.82876  1.0000
  O   O1        1.0  0.72102  0.51632  0.40238  1.0000
  O   O2        1.0  0.27898  0.48368  0.59763  1.0000
  O   O3        1.0  0.77781  0.69863  0.37587  1.0000
  O   O4        1.0  0.22219  0.30137  0.62413  1.0000
  O   O5        1.0  0.81758  0.92420  0.00324  1.0000
  O   O6        1.0  0.18241  0.07581  0.99677  1.0000
  O   O7        1.0  0.90415  0.81885  0.82642  1.0000
  O   O8        1.0  0.09584  0.18116  0.17359  1.0000
