data_image0
_chemical_formula_structural       Cd2H52C48S2N16O14
_chemical_formula_sum              "Cd2 H52 C48 S2 N16 O14"
_cell_length_a       8.50476
_cell_length_b       12.7354
_cell_length_c       13.6248
_cell_angle_alpha    87.282
_cell_angle_beta     81.1361
_cell_angle_gamma    82.2603

_space_group_name_H-M_alt    "P 1"
_space_group_IT_number       1

loop_
  _space_group_symop_operation_xyz
  'x, y, z'

loop_
  _atom_site_type_symbol
  _atom_site_label
  _atom_site_symmetry_multiplicity
  _atom_site_fract_x
  _atom_site_fract_y
  _atom_site_fract_z
  _atom_site_occupancy
  Cd  Cd1       1.0  0.76576  0.26648  0.22309  1.0000
  Cd  Cd2       1.0  0.23423  0.73353  0.77691  1.0000
  H   H1        1.0  0.04653  0.38238  0.23358  1.0000
  H   H2        1.0  0.95347  0.61762  0.76642  1.0000
  H   H3        1.0  0.10917  0.27212  0.19167  1.0000
  H   H4        1.0  0.89083  0.72788  0.80832  1.0000
  H   H5        1.0  0.60513  0.79601  0.91437  1.0000
  H   H6        1.0  0.39487  0.20399  0.08563  1.0000
  H   H7        1.0  0.82345  0.76649  0.52905  1.0000
  H   H8        1.0  0.17656  0.23350  0.47095  1.0000
  H   H9        1.0  0.09006  0.75403  0.35840  1.0000
  H   H10       1.0  0.90995  0.24598  0.64160  1.0000
  H   H11       1.0  0.10773  0.81142  0.47132  1.0000
  H   H12       1.0  0.89228  0.18858  0.52867  1.0000
  H   H13       1.0  0.75915  0.61146  0.57276  1.0000
  H   H14       1.0  0.24086  0.38854  0.42724  1.0000
  H   H15       1.0  0.04557  0.19624  0.84000  1.0000
  H   H16       1.0  0.95443  0.80376  0.16000  1.0000
  H   H17       1.0  0.73439  0.92015  0.88567  1.0000
  H   H18       1.0  0.26562  0.07985  0.11434  1.0000
  H   H19       1.0  0.37900  0.72952  0.00841  1.0000
  H   H20       1.0  0.62100  0.27048  0.99158  1.0000
  H   H21       1.0  0.42547  0.78256  0.11680  1.0000
  H   H22       1.0  0.57451  0.21744  0.88319  1.0000
  H   H23       1.0  0.15596  0.98591  0.40367  1.0000
  H   H24       1.0  0.84405  0.01409  0.59633  1.0000
  H   H25       1.0  0.03850  0.15813  0.33985  1.0000
  H   H26       1.0  0.96150  0.84187  0.66014  1.0000
  H   H27       1.0  0.62773  0.03858  0.29152  1.0000
  H   H28       1.0  0.37227  0.96141  0.70848  1.0000
  H   H29       1.0  0.82933  0.47614  0.32838  1.0000
  H   H30       1.0  0.17068  0.52385  0.67162  1.0000
  H   H31       1.0  0.32503  0.59147  0.16260  1.0000
  H   H32       1.0  0.67496  0.40853  0.83739  1.0000
  H   H33       1.0  0.99732  0.27934  0.00780  1.0000
  H   H34       1.0  0.00268  0.72066  0.99220  1.0000
  H   H35       1.0  0.89407  0.45629  0.06745  1.0000
  H   H36       1.0  0.10592  0.54372  0.93255  1.0000
  H   H37       1.0  0.57678  0.22734  0.43953  1.0000
  H   H38       1.0  0.42322  0.77266  0.56047  1.0000
  H   H39       1.0  0.69431  0.05994  0.12516  1.0000
  H   H40       1.0  0.30569  0.94007  0.87484  1.0000
  H   H41       1.0  0.79125  0.63675  0.00298  1.0000
  H   H42       1.0  0.20874  0.36325  0.99702  1.0000
  H   H43       1.0  0.44276  0.41271  0.21555  1.0000
  H   H44       1.0  0.55724  0.58729  0.78445  1.0000
  H   H45       1.0  0.91008  0.03817  0.81769  1.0000
  H   H46       1.0  0.08992  0.96182  0.18231  1.0000
  H   H47       1.0  0.52441  0.30169  0.61122  1.0000
  H   H48       1.0  0.47559  0.69831  0.38878  1.0000
  H   H49       1.0  0.63296  0.46915  0.63923  1.0000
  H   H50       1.0  0.36704  0.53085  0.36077  1.0000
  H   H51       1.0  0.72706  0.85900  0.35670  1.0000
  H   H52       1.0  0.27294  0.14100  0.64330  1.0000
  C   C1        1.0  0.02158  0.79960  0.42140  1.0000
  C   C2        1.0  0.97842  0.20040  0.57860  1.0000
  C   C3        1.0  0.96662  0.16428  0.90156  1.0000
  C   C4        1.0  0.03339  0.83572  0.09845  1.0000
  C   C5        1.0  0.47801  0.73902  0.04918  1.0000
  C   C6        1.0  0.52198  0.26098  0.95082  1.0000
  C   C7        1.0  0.03828  0.99270  0.37977  1.0000
  C   C8        1.0  0.96173  0.00730  0.62023  1.0000
  C   C9        1.0  0.97282  0.09015  0.34409  1.0000
  C   C10       1.0  0.02718  0.90985  0.65590  1.0000
  C   C11       1.0  0.74446  0.02286  0.31667  1.0000
  C   C12       1.0  0.25554  0.97714  0.68333  1.0000
  C   C13       1.0  0.76391  0.43886  0.39254  1.0000
  C   C14       1.0  0.23609  0.56114  0.60746  1.0000
  C   C15       1.0  0.45223  0.56474  0.13903  1.0000
  C   C16       1.0  0.54776  0.43526  0.86097  1.0000
  C   C17       1.0  0.94094  0.21068  0.99421  1.0000
  C   C18       1.0  0.05906  0.78932  0.00579  1.0000
  C   C19       1.0  0.76813  0.48918  0.08533  1.0000
  C   C20       1.0  0.23187  0.51083  0.91467  1.0000
  C   C21       1.0  0.62277  0.29962  0.45556  1.0000
  C   C22       1.0  0.37724  0.70038  0.54445  1.0000
  C   C23       1.0  0.77274  0.08729  0.06138  1.0000
  C   C24       1.0  0.22726  0.91271  0.93862  1.0000
  C   C25       1.0  0.89374  0.63749  0.43602  1.0000
  C   C26       1.0  0.10627  0.36250  0.56398  1.0000
  C   C27       1.0  0.71132  0.58989  0.05138  1.0000
  C   C28       1.0  0.28867  0.41012  0.94862  1.0000
  C   C29       1.0  0.74032  0.48647  0.48580  1.0000
  C   C30       1.0  0.25968  0.51352  0.51420  1.0000
  C   C31       1.0  0.63659  0.88681  0.02949  1.0000
  C   C32       1.0  0.36340  0.11319  0.97052  1.0000
  C   C33       1.0  0.51720  0.46477  0.16899  1.0000
  C   C34       1.0  0.48279  0.53524  0.83101  1.0000
  C   C35       1.0  0.79345  0.03487  0.97054  1.0000
  C   C36       1.0  0.20655  0.96513  0.02946  1.0000
  C   C37       1.0  0.55043  0.63008  0.07967  1.0000
  C   C38       1.0  0.44956  0.36993  0.92033  1.0000
  C   C39       1.0  0.89212  0.07614  0.88938  1.0000
  C   C40       1.0  0.10789  0.92386  0.11062  1.0000
  C   C41       1.0  0.59397  0.34175  0.55029  1.0000
  C   C42       1.0  0.40604  0.65825  0.44971  1.0000
  C   C43       1.0  0.65375  0.43469  0.56596  1.0000
  C   C44       1.0  0.34625  0.56531  0.43404  1.0000
  C   C45       1.0  0.95141  0.90627  0.38428  1.0000
  C   C46       1.0  0.04860  0.09373  0.61571  1.0000
  C   C47       1.0  0.80067  0.92315  0.35304  1.0000
  C   C48       1.0  0.19933  0.07686  0.64696  1.0000
  S   S1        1.0  0.34514  0.22020  0.28395  1.0000
  S   S2        1.0  0.65486  0.77979  0.71605  1.0000
  N   N1        1.0  0.82964  0.10542  0.31145  1.0000
  N   N2        1.0  0.17036  0.89458  0.68854  1.0000
  N   N3        1.0  0.58573  0.80275  0.98989  1.0000
  N   N4        1.0  0.41426  0.19725  0.01011  1.0000
  N   N5        1.0  0.90406  0.73535  0.47008  1.0000
  N   N6        1.0  0.09595  0.26465  0.52992  1.0000
  N   N7        1.0  0.67358  0.42733  0.14350  1.0000
  N   N8        1.0  0.32641  0.57268  0.85650  1.0000
  N   N9        1.0  0.70701  0.34805  0.37905  1.0000
  N   N10       1.0  0.29300  0.65195  0.62095  1.0000
  N   N11       1.0  0.84480  0.17277  0.07191  1.0000
  N   N12       1.0  0.15520  0.82723  0.92809  1.0000
  N   N13       1.0  0.79221  0.58143  0.50209  1.0000
  N   N14       1.0  0.20780  0.41857  0.49791  1.0000
  N   N15       1.0  0.72035  0.94729  0.95685  1.0000
  N   N16       1.0  0.27964  0.05271  0.04315  1.0000
  O   O1        1.0  0.27892  0.33274  0.30619  1.0000
  O   O2        1.0  0.72109  0.66725  0.69380  1.0000
  O   O3        1.0  0.51224  0.21376  0.22911  1.0000
  O   O4        1.0  0.48776  0.78623  0.77088  1.0000
  O   O5        1.0  0.24665  0.18081  0.21277  1.0000
  O   O6        1.0  0.75335  0.81919  0.78723  1.0000
  O   O7        1.0  0.61120  0.90569  0.11945  1.0000
  O   O8        1.0  0.38877  0.09432  0.88055  1.0000
  O   O9        1.0  0.02115  0.33364  0.18672  1.0000
  O   O10       1.0  0.97885  0.66636  0.81328  1.0000
  O   O11       1.0  0.33671  0.15444  0.37623  1.0000
  O   O12       1.0  0.66329  0.84555  0.62377  1.0000
  O   O13       1.0  0.96838  0.60272  0.35585  1.0000
  O   O14       1.0  0.03163  0.39727  0.64415  1.0000
