data_image0
_chemical_formula_structural       H28Pb2C36S2N4O16
_chemical_formula_sum              "H28 Pb2 C36 S2 N4 O16"
_cell_length_a       7.68571
_cell_length_b       9.7679
_cell_length_c       12.3299
_cell_angle_alpha    76.1267
_cell_angle_beta     86.0644
_cell_angle_gamma    89.5747

_space_group_name_H-M_alt    "P 1"
_space_group_IT_number       1

loop_
  _space_group_symop_operation_xyz
  'x, y, z'

loop_
  _atom_site_type_symbol
  _atom_site_label
  _atom_site_symmetry_multiplicity
  _atom_site_fract_x
  _atom_site_fract_y
  _atom_site_fract_z
  _atom_site_occupancy
  H   H1        1.0  0.21685  0.32462  0.45812  1.0000
  H   H2        1.0  0.78314  0.67540  0.54189  1.0000
  H   H3        1.0  0.90120  0.97532  0.11078  1.0000
  H   H4        1.0  0.09881  0.02469  0.88922  1.0000
  H   H5        1.0  0.80640  0.98941  0.99972  1.0000
  H   H6        1.0  0.19362  0.01062  0.00028  1.0000
  H   H7        1.0  0.88606  0.46281  0.33049  1.0000
  H   H8        1.0  0.11395  0.53716  0.66950  1.0000
  H   H9        1.0  0.02201  0.24125  0.30224  1.0000
  H   H10       1.0  0.97799  0.75871  0.69773  1.0000
  H   H11       1.0  0.99924  0.17926  0.11683  1.0000
  H   H12       1.0  0.00073  0.82074  0.88313  1.0000
  H   H13       1.0  0.83974  0.33997  0.96901  1.0000
  H   H14       1.0  0.16020  0.66001  0.03097  1.0000
  H   H15       1.0  0.70445  0.47790  0.85592  1.0000
  H   H16       1.0  0.29550  0.52210  0.14408  1.0000
  H   H17       1.0  0.56790  0.66496  0.72041  1.0000
  H   H18       1.0  0.43200  0.33503  0.27960  1.0000
  H   H19       1.0  0.46816  0.88866  0.77909  1.0000
  H   H20       1.0  0.53180  0.11133  0.22093  1.0000
  H   H21       1.0  0.50825  0.90237  0.97351  1.0000
  H   H22       1.0  0.49179  0.09766  0.02648  1.0000
  H   H23       1.0  0.16135  0.05255  0.31694  1.0000
  H   H24       1.0  0.83875  0.94747  0.68306  1.0000
  H   H25       1.0  0.36279  0.87401  0.63620  1.0000
  H   H26       1.0  0.63725  0.12599  0.36380  1.0000
  H   H27       1.0  0.39708  0.64269  0.58489  1.0000
  H   H28       1.0  0.60290  0.35732  0.41510  1.0000
  Pb  Pb1       1.0  0.65956  0.73448  0.21831  1.0000
  Pb  Pb2       1.0  0.34050  0.26556  0.78175  1.0000
  C   C1        1.0  0.87566  0.43044  0.25228  1.0000
  C   C2        1.0  0.12433  0.56954  0.74770  1.0000
  C   C3        1.0  0.95141  0.30675  0.23569  1.0000
  C   C4        1.0  0.04857  0.69321  0.76428  1.0000
  C   C5        1.0  0.93815  0.27384  0.13273  1.0000
  C   C6        1.0  0.06180  0.72613  0.86725  1.0000
  C   C7        1.0  0.84983  0.36427  0.04998  1.0000
  C   C8        1.0  0.15017  0.63576  0.94999  1.0000
  C   C9        1.0  0.77585  0.48670  0.07247  1.0000
  C   C10       1.0  0.22413  0.51331  0.92752  1.0000
  C   C11       1.0  0.68659  0.59183  0.98764  1.0000
  C   C12       1.0  0.31337  0.40816  0.01238  1.0000
  C   C13       1.0  0.66313  0.57370  0.88036  1.0000
  C   C14       1.0  0.33678  0.42630  0.11967  1.0000
  C   C15       1.0  0.58492  0.68027  0.80348  1.0000
  C   C16       1.0  0.41505  0.31973  0.19651  1.0000
  C   C17       1.0  0.53080  0.80218  0.83525  1.0000
  C   C18       1.0  0.46919  0.19782  0.16475  1.0000
  C   C19       1.0  0.55448  0.81138  0.94399  1.0000
  C   C20       1.0  0.44554  0.18862  0.05601  1.0000
  C   C21       1.0  0.31591  0.56680  0.40654  1.0000
  C   C22       1.0  0.68406  0.43318  0.59348  1.0000
  C   C23       1.0  0.29170  0.71459  0.42473  1.0000
  C   C24       1.0  0.70831  0.28541  0.57528  1.0000
  C   C25       1.0  0.22790  0.83353  0.34913  1.0000
  C   C26       1.0  0.77219  0.16647  0.65084  1.0000
  C   C27       1.0  0.21111  0.96361  0.37741  1.0000
  C   C28       1.0  0.78888  0.03637  0.62259  1.0000
  C   C29       1.0  0.25839  0.97861  0.48170  1.0000
  C   C30       1.0  0.74161  0.02138  0.51831  1.0000
  C   C31       1.0  0.24606  0.11477  0.51747  1.0000
  C   C32       1.0  0.75399  0.88523  0.48253  1.0000
  C   C33       1.0  0.32502  0.86161  0.55571  1.0000
  C   C34       1.0  0.67502  0.13839  0.44429  1.0000
  C   C35       1.0  0.34211  0.73271  0.52750  1.0000
  C   C36       1.0  0.65783  0.26730  0.47251  1.0000
  S   S1        1.0  0.17075  0.82353  0.21295  1.0000
  S   S2        1.0  0.82930  0.17648  0.78703  1.0000
  N   N1        1.0  0.78900  0.51671  0.17305  1.0000
  N   N2        1.0  0.21097  0.48326  0.82697  1.0000
  N   N3        1.0  0.63049  0.70961  0.01798  1.0000
  N   N4        1.0  0.36953  0.29042  0.98202  1.0000
  O   O1        1.0  0.43735  0.54599  0.33715  1.0000
  O   O2        1.0  0.56257  0.45401  0.66285  1.0000
  O   O3        1.0  0.21800  0.47209  0.46963  1.0000
  O   O4        1.0  0.78196  0.52788  0.53041  1.0000
  O   O5        1.0  0.11382  0.96684  0.15596  1.0000
  O   O6        1.0  0.88615  0.03316  0.84404  1.0000
  O   O7        1.0  0.33136  0.78500  0.15533  1.0000
  O   O8        1.0  0.66878  0.21509  0.84469  1.0000
  O   O9        1.0  0.03180  0.71738  0.22772  1.0000
  O   O10       1.0  0.96826  0.28263  0.77222  1.0000
  O   O11       1.0  0.27274  0.11916  0.61461  1.0000
  O   O12       1.0  0.72732  0.88084  0.38540  1.0000
  O   O13       1.0  0.20853  0.22531  0.43734  1.0000
  O   O14       1.0  0.79151  0.77470  0.56268  1.0000
  O   O15       1.0  0.78447  0.97429  0.08144  1.0000
  O   O16       1.0  0.21554  0.02571  0.91856  1.0000
