data_image0
_chemical_formula_structural       CoH24C24N6O4
_chemical_formula_sum              "Co1 H24 C24 N6 O4"
_cell_length_a       5.03152
_cell_length_b       9.19735
_cell_length_c       11.5646
_cell_angle_alpha    89.6068
_cell_angle_beta     91.6354
_cell_angle_gamma    80.6784

_space_group_name_H-M_alt    "P 1"
_space_group_IT_number       1

loop_
  _space_group_symop_operation_xyz
  'x, y, z'

loop_
  _atom_site_type_symbol
  _atom_site_label
  _atom_site_symmetry_multiplicity
  _atom_site_fract_x
  _atom_site_fract_y
  _atom_site_fract_z
  _atom_site_occupancy
  Co  Co1       1.0  1.00000  0.50000  0.00000  1.0000
  H   H1        1.0  0.89378  0.08621  0.09395  1.0000
  H   H2        1.0  0.10620  0.91380  0.90605  1.0000
  H   H3        1.0  0.18276  0.17233  0.87521  1.0000
  H   H4        1.0  0.81723  0.82769  0.12479  1.0000
  H   H5        1.0  0.45044  0.51729  0.20169  1.0000
  H   H6        1.0  0.54958  0.48270  0.79830  1.0000
  H   H7        1.0  0.79655  0.28583  0.18723  1.0000
  H   H8        1.0  0.20344  0.71417  0.81277  1.0000
  H   H9        1.0  0.88034  0.14919  0.37837  1.0000
  H   H10       1.0  0.11967  0.85081  0.62163  1.0000
  H   H11       1.0  0.94612  0.27917  0.48131  1.0000
  H   H12       1.0  0.05388  0.72083  0.51868  1.0000
  H   H13       1.0  0.30500  0.28380  0.69736  1.0000
  H   H14       1.0  0.69500  0.71620  0.30264  1.0000
  H   H15       1.0  0.23106  0.36713  0.55841  1.0000
  H   H16       1.0  0.76895  0.63286  0.44158  1.0000
  H   H17       1.0  0.56121  0.33915  0.61457  1.0000
  H   H18       1.0  0.43881  0.66084  0.38543  1.0000
  H   H19       1.0  0.18778  0.01398  0.22962  1.0000
  H   H20       1.0  0.81223  0.98602  0.77039  1.0000
  H   H21       1.0  0.97068  0.93260  0.31875  1.0000
  H   H22       1.0  0.02933  0.06739  0.68125  1.0000
  H   H23       1.0  0.25869  0.82440  0.26142  1.0000
  H   H24       1.0  0.74131  0.17559  0.73858  1.0000
  C   C1        1.0  0.58499  0.30147  0.96079  1.0000
  C   C2        1.0  0.41500  0.69855  0.03921  1.0000
  C   C3        1.0  0.54288  0.14593  0.98261  1.0000
  C   C4        1.0  0.45710  0.85408  0.01739  1.0000
  C   C5        1.0  0.71890  0.04865  0.05438  1.0000
  C   C6        1.0  0.28109  0.95136  0.94563  1.0000
  C   C7        1.0  0.32281  0.09554  0.92833  1.0000
  C   C8        1.0  0.67717  0.90447  0.07167  1.0000
  C   C9        1.0  0.30435  0.44941  0.22774  1.0000
  C   C10       1.0  0.69566  0.55058  0.77226  1.0000
  C   C11       1.0  0.97263  0.33099  0.21506  1.0000
  C   C12       1.0  0.02736  0.66901  0.78494  1.0000
  C   C13       1.0  0.03763  0.20796  0.41269  1.0000
  C   C14       1.0  0.96238  0.79204  0.58731  1.0000
  C   C15       1.0  0.28131  0.10200  0.45784  1.0000
  C   C16       1.0  0.71871  0.89799  0.54217  1.0000
  C   C17       1.0  0.43476  0.13949  0.55380  1.0000
  C   C18       1.0  0.56524  0.86051  0.44620  1.0000
  C   C19       1.0  0.37740  0.28920  0.60877  1.0000
  C   C20       1.0  0.62260  0.71079  0.39123  1.0000
  C   C21       1.0  0.34716  0.96481  0.40307  1.0000
  C   C22       1.0  0.65284  0.03519  0.59693  1.0000
  C   C23       1.0  0.18329  0.93156  0.29839  1.0000
  C   C24       1.0  0.81671  0.06844  0.70161  1.0000
  N   N1        1.0  0.09800  0.42360  0.15469  1.0000
  N   N2        1.0  0.90199  0.57640  0.84531  1.0000
  N   N3        1.0  0.31380  0.37694  0.32783  1.0000
  N   N4        1.0  0.68622  0.62304  0.67216  1.0000
  N   N5        1.0  0.10143  0.30248  0.31816  1.0000
  N   N6        1.0  0.89858  0.69752  0.68184  1.0000
  O   O1        1.0  0.38831  0.39314  0.92150  1.0000
  O   O2        1.0  0.61168  0.60688  0.07851  1.0000
  O   O3        1.0  0.82770  0.32615  0.98093  1.0000
  O   O4        1.0  0.17230  0.67385  0.01908  1.0000
