data_image0
_chemical_formula_structural       K4Fe2H40C48S8
_chemical_formula_sum              "K4 Fe2 H40 C48 S8"
_cell_length_a       12.0418
_cell_length_b       12.0062
_cell_length_c       12.0531
_cell_angle_alpha    63.3005
_cell_angle_beta     84.2528
_cell_angle_gamma    116.726

_space_group_name_H-M_alt    "P 1"
_space_group_IT_number       1

loop_
  _space_group_symop_operation_xyz
  'x, y, z'

loop_
  _atom_site_type_symbol
  _atom_site_label
  _atom_site_symmetry_multiplicity
  _atom_site_fract_x
  _atom_site_fract_y
  _atom_site_fract_z
  _atom_site_occupancy
  K   K1        1.0  0.20442  0.32936  0.62502  1.0000
  K   K2        1.0  0.04546  0.67028  0.12506  1.0000
  K   K3        1.0  0.62500  0.82935  0.04550  1.0000
  K   K4        1.0  0.12509  0.17040  0.20442  1.0000
  Fe  Fe1       1.0  0.24997  0.50011  0.24993  1.0000
  Fe  Fe2       1.0  0.00005  0.00005  0.00009  1.0000
  H   H1        1.0  0.89192  0.21780  0.26770  1.0000
  H   H2        1.0  0.51406  0.78199  0.32641  1.0000
  H   H3        1.0  0.26812  0.16004  0.51380  1.0000
  H   H4        1.0  0.32634  0.84087  0.89155  1.0000
  H   H5        1.0  0.35876  0.34138  0.92322  1.0000
  H   H6        1.0  0.73589  0.65950  0.98221  1.0000
  H   H7        1.0  0.98260  0.71789  0.35833  1.0000
  H   H8        1.0  0.92338  0.28182  0.73600  1.0000
  H   H9        1.0  0.70502  0.24778  0.23526  1.0000
  H   H10       1.0  0.51688  0.75218  0.54290  1.0000
  H   H11       1.0  0.23532  0.93982  0.51668  1.0000
  H   H12       1.0  0.54289  0.06046  0.70468  1.0000
  H   H13       1.0  0.54559  0.56088  0.70667  1.0000
  H   H14       1.0  0.73320  0.43939  0.01489  1.0000
  H   H15       1.0  0.01487  0.74788  0.54513  1.0000
  H   H16       1.0  0.70662  0.25189  0.73346  1.0000
  H   H17       1.0  0.63128  0.35373  0.33941  1.0000
  H   H18       1.0  0.30718  0.64646  0.72206  1.0000
  H   H19       1.0  0.33908  0.96975  0.30720  1.0000
  H   H20       1.0  0.72212  0.02950  0.63137  1.0000
  H   H21       1.0  0.61874  0.52954  0.52777  1.0000
  H   H22       1.0  0.94298  0.46974  0.91078  1.0000
  H   H23       1.0  0.91045  0.85373  0.61875  1.0000
  H   H24       1.0  0.52751  0.14635  0.94307  1.0000
  H   H25       1.0  0.74495  0.42411  0.48190  1.0000
  H   H26       1.0  0.09442  0.57613  0.67862  1.0000
  H   H27       1.0  0.48148  0.22637  0.09464  1.0000
  H   H28       1.0  0.67868  0.77263  0.74534  1.0000
  H   H29       1.0  0.50468  0.27244  0.57152  1.0000
  H   H30       1.0  0.15558  0.72661  0.76815  1.0000
  H   H31       1.0  0.76777  0.92393  0.50512  1.0000
  H   H32       1.0  0.57135  0.07637  0.15545  1.0000
  H   H33       1.0  0.92658  0.38555  0.52088  1.0000
  H   H34       1.0  0.09366  0.61448  0.45884  1.0000
  H   H35       1.0  0.52082  0.44787  0.09382  1.0000
  H   H36       1.0  0.45882  0.55175  0.92697  1.0000
  H   H37       1.0  0.32299  0.05178  0.79131  1.0000
  H   H38       1.0  0.15614  0.94786  0.72917  1.0000
  H   H39       1.0  0.72916  0.88552  0.32346  1.0000
  H   H40       1.0  0.79136  0.11469  0.15591  1.0000
  C   C1        1.0  0.92294  0.29864  0.39748  1.0000
  C   C2        1.0  0.30370  0.70134  0.37594  1.0000
  C   C3        1.0  0.39771  0.32087  0.30365  1.0000
  C   C4        1.0  0.37594  0.67948  0.92297  1.0000
  C   C5        1.0  0.32723  0.17979  0.87390  1.0000
  C   C6        1.0  0.94612  0.82054  0.85248  1.0000
  C   C7        1.0  0.85273  0.79870  0.32720  1.0000
  C   C8        1.0  0.87413  0.20143  0.94607  1.0000
  C   C9        1.0  0.85802  0.26007  0.31718  1.0000
  C   C10       1.0  0.42251  0.73982  0.40237  1.0000
  C   C11       1.0  0.31742  0.17541  0.42234  1.0000
  C   C12       1.0  0.40234  0.82510  0.85782  1.0000
  C   C13       1.0  0.39245  0.32555  0.84730  1.0000
  C   C14       1.0  0.82742  0.67494  0.93283  1.0000
  C   C15       1.0  0.93306  0.76017  0.39216  1.0000
  C   C16       1.0  0.84744  0.23970  0.82751  1.0000
  C   C17       1.0  0.75314  0.27803  0.29815  1.0000
  C   C18       1.0  0.42377  0.72195  0.52499  1.0000
  C   C19       1.0  0.29816  0.05098  0.42364  1.0000
  C   C20       1.0  0.52498  0.94913  0.75297  1.0000
  C   C21       1.0  0.49725  0.44946  0.72467  1.0000
  C   C22       1.0  0.82630  0.55064  0.95199  1.0000
  C   C23       1.0  0.95195  0.77812  0.49700  1.0000
  C   C24       1.0  0.72465  0.22173  0.82644  1.0000
  C   C25       1.0  0.71112  0.33687  0.35703  1.0000
  C   C26       1.0  0.30629  0.66323  0.62554  1.0000
  C   C27       1.0  0.35680  0.06759  0.30628  1.0000
  C   C28       1.0  0.62556  0.93196  0.71120  1.0000
  C   C29       1.0  0.53893  0.43206  0.62430  1.0000
  C   C30       1.0  0.94380  0.56750  0.89312  1.0000
  C   C31       1.0  0.89288  0.83687  0.53896  1.0000
  C   C32       1.0  0.62416  0.16318  0.94385  1.0000
  C   C33       1.0  0.77462  0.37571  0.43699  1.0000
  C   C34       1.0  0.18753  0.62440  0.60080  1.0000
  C   C35       1.0  0.43674  0.21131  0.18766  1.0000
  C   C36       1.0  0.60081  0.78808  0.77489  1.0000
  C   C37       1.0  0.47520  0.28804  0.64926  1.0000
  C   C38       1.0  0.06242  0.71137  0.81304  1.0000
  C   C39       1.0  0.81282  0.87558  0.47548  1.0000
  C   C40       1.0  0.64915  0.12459  0.06236  1.0000
  C   C41       1.0  0.87796  0.35540  0.45822  1.0000
  C   C42       1.0  0.18641  0.64459  0.47741  1.0000
  C   C43       1.0  0.45821  0.33640  0.18651  1.0000
  C   C44       1.0  0.47738  0.66338  0.87821  1.0000
  C   C45       1.0  0.37185  0.16348  0.77266  1.0000
  C   C46       1.0  0.06340  0.83631  0.79176  1.0000
  C   C47       1.0  0.79181  0.85536  0.37213  1.0000
  C   C48       1.0  0.77270  0.14478  0.06330  1.0000
  S   S1        1.0  0.05733  0.27891  0.42024  1.0000
  S   S2        1.0  0.30053  0.72146  0.22194  1.0000
  S   S3        1.0  0.42058  0.47848  0.30055  1.0000
  S   S4        1.0  0.22202  0.52227  0.05729  1.0000
  S   S5        1.0  0.19300  0.02266  0.02784  1.0000
  S   S6        1.0  0.94907  0.97801  0.82984  1.0000
  S   S7        1.0  0.83003  0.77892  0.19290  1.0000
  S   S8        1.0  0.02835  0.22165  0.94904  1.0000
