data_image0
_chemical_formula_structural       Cu2H36C20N12O12
_chemical_formula_sum              "Cu2 H36 C20 N12 O12"
_cell_length_a       8.24358
_cell_length_b       10.4884
_cell_length_c       11.0682
_cell_angle_alpha    116.693
_cell_angle_beta     111.896
_cell_angle_gamma    89.9909

_space_group_name_H-M_alt    "P 1"
_space_group_IT_number       1

loop_
  _space_group_symop_operation_xyz
  'x, y, z'

loop_
  _atom_site_type_symbol
  _atom_site_label
  _atom_site_symmetry_multiplicity
  _atom_site_fract_x
  _atom_site_fract_y
  _atom_site_fract_z
  _atom_site_occupancy
  Cu  Cu1       1.0  0.20454  0.25000  0.99992  1.0000
  Cu  Cu2       1.0  0.79546  0.75001  0.00008  1.0000
  H   H1        1.0  0.16952  0.60749  0.63228  1.0000
  H   H2        1.0  0.53732  0.89257  0.36781  1.0000
  H   H3        1.0  0.83048  0.39251  0.36772  1.0000
  H   H4        1.0  0.46268  0.10743  0.63219  1.0000
  H   H5        1.0  0.06629  0.60356  0.45708  1.0000
  H   H6        1.0  0.60937  0.89651  0.54300  1.0000
  H   H7        1.0  0.93371  0.39645  0.54292  1.0000
  H   H8        1.0  0.39062  0.10349  0.45699  1.0000
  H   H9        1.0  0.78699  0.65093  0.49810  1.0000
  H   H10       1.0  0.28898  0.84894  0.50176  1.0000
  H   H11       1.0  0.21301  0.34907  0.50191  1.0000
  H   H12       1.0  0.71102  0.15106  0.49823  1.0000
  H   H13       1.0  0.89384  0.66033  0.67517  1.0000
  H   H14       1.0  0.21859  0.83951  0.32468  1.0000
  H   H15       1.0  0.10617  0.33967  0.32484  1.0000
  H   H16       1.0  0.78141  0.16049  0.67532  1.0000
  H   H17       1.0  0.12025  0.10649  0.64858  1.0000
  H   H18       1.0  0.47203  0.39343  0.35128  1.0000
  H   H19       1.0  0.87974  0.89350  0.35142  1.0000
  H   H20       1.0  0.52797  0.60657  0.64872  1.0000
  H   H21       1.0  0.04086  0.91081  0.88809  1.0000
  H   H22       1.0  0.15257  0.58914  0.11187  1.0000
  H   H23       1.0  0.95914  0.08919  0.11191  1.0000
  H   H24       1.0  0.84743  0.41086  0.88813  1.0000
  H   H25       1.0  0.50779  0.13149  0.15189  1.0000
  H   H26       1.0  0.35575  0.36859  0.84811  1.0000
  H   H27       1.0  0.49221  0.86852  0.84812  1.0000
  H   H28       1.0  0.64424  0.63141  0.15188  1.0000
  H   H29       1.0  0.87320  0.33265  0.06599  1.0000
  H   H30       1.0  0.80706  0.16722  0.93384  1.0000
  H   H31       1.0  0.12680  0.66735  0.93401  1.0000
  H   H32       1.0  0.19294  0.83278  0.06616  1.0000
  H   H33       1.0  0.59531  0.33216  0.06686  1.0000
  H   H34       1.0  0.52832  0.16773  0.93301  1.0000
  H   H35       1.0  0.40469  0.66785  0.93314  1.0000
  H   H36       1.0  0.47169  0.83227  0.06699  1.0000
  C   C1        1.0  0.04127  0.58041  0.53687  1.0000
  C   C2        1.0  0.50447  0.91960  0.46315  1.0000
  C   C3        1.0  0.95873  0.41959  0.46314  1.0000
  C   C4        1.0  0.49553  0.08040  0.53685  1.0000
  C   C5        1.0  0.91691  0.67556  0.59063  1.0000
  C   C6        1.0  0.32632  0.82432  0.40927  1.0000
  C   C7        1.0  0.08309  0.32444  0.40938  1.0000
  C   C8        1.0  0.67367  0.17568  0.59073  1.0000
  C   C9        1.0  0.08820  0.02705  0.67784  1.0000
  C   C10       1.0  0.41063  0.47287  0.32202  1.0000
  C   C11       1.0  0.91180  0.97295  0.32215  1.0000
  C   C12       1.0  0.58936  0.52713  0.67798  1.0000
  C   C13       1.0  0.04940  0.93158  0.80289  1.0000
  C   C14       1.0  0.24646  0.56836  0.19704  1.0000
  C   C15       1.0  0.95060  0.06842  0.19712  1.0000
  C   C16       1.0  0.75354  0.43165  0.80295  1.0000
  C   C17       1.0  0.38494  0.08300  0.14816  1.0000
  C   C18       1.0  0.23672  0.41714  0.85188  1.0000
  C   C19       1.0  0.61506  0.91700  0.85184  1.0000
  C   C20       1.0  0.76328  0.58286  0.14812  1.0000
  N   N1        1.0  0.99164  0.82993  0.65967  1.0000
  N   N2        1.0  0.33207  0.66998  0.34027  1.0000
  N   N3        1.0  0.00835  0.17007  0.34034  1.0000
  N   N4        1.0  0.66793  0.33002  0.65973  1.0000
  N   N5        1.0  0.01551  0.88815  0.57801  1.0000
  N   N6        1.0  0.43779  0.61175  0.42189  1.0000
  N   N7        1.0  0.98449  0.11184  0.42199  1.0000
  N   N8        1.0  0.56221  0.38825  0.57810  1.0000
  N   N9        1.0  0.11137  0.05849  0.81773  1.0000
  N   N10       1.0  0.29370  0.44145  0.18215  1.0000
  N   N11       1.0  0.88863  0.94151  0.18227  1.0000
  N   N12       1.0  0.70630  0.55855  0.81785  1.0000
  O   O1        1.0  0.91071  0.24993  0.99991  1.0000
  O   O2        1.0  0.08929  0.75007  0.00009  1.0000
  O   O3        1.0  0.49136  0.24994  0.99995  1.0000
  O   O4        1.0  0.50865  0.75006  0.00006  1.0000
  O   O5        1.0  0.24918  0.14114  0.12057  1.0000
  O   O6        1.0  0.12846  0.35895  0.87933  1.0000
  O   O7        1.0  0.75082  0.85886  0.87943  1.0000
  O   O8        1.0  0.87154  0.64105  0.12067  1.0000
  O   O9        1.0  0.38704  0.97443  0.16997  1.0000
  O   O10       1.0  0.21706  0.52578  0.83016  1.0000
  O   O11       1.0  0.61296  0.02557  0.83003  1.0000
  O   O12       1.0  0.78294  0.47422  0.16984  1.0000
