data_image0
_chemical_formula_structural       Cu2H32C32N12O8
_chemical_formula_sum              "Cu2 H32 C32 N12 O8"
_cell_length_a       8.60418
_cell_length_b       9.00583
_cell_length_c       13.5555
_cell_angle_alpha    109.379
_cell_angle_beta     90.0504
_cell_angle_gamma    118.438

_space_group_name_H-M_alt    "P 1"
_space_group_IT_number       1

loop_
  _space_group_symop_operation_xyz
  'x, y, z'

loop_
  _atom_site_type_symbol
  _atom_site_label
  _atom_site_symmetry_multiplicity
  _atom_site_fract_x
  _atom_site_fract_y
  _atom_site_fract_z
  _atom_site_occupancy
  Cu  Cu1       1.0  0.50000  1.00000  1.00000  1.0000
  Cu  Cu2       1.0  0.50000  0.00000  0.50000  1.0000
  H   H1        1.0  0.14529  0.69206  0.57477  1.0000
  H   H2        1.0  0.45363  0.30804  0.92511  1.0000
  H   H3        1.0  0.85471  0.30795  0.42523  1.0000
  H   H4        1.0  0.54637  0.69196  0.07489  1.0000
  H   H5        1.0  0.92230  0.57269  0.59451  1.0000
  H   H6        1.0  0.35005  0.42771  0.90536  1.0000
  H   H7        1.0  0.07770  0.42731  0.40549  1.0000
  H   H8        1.0  0.64995  0.57229  0.09465  1.0000
  H   H9        1.0  0.97807  0.32674  0.60608  1.0000
  H   H10       1.0  0.65151  0.67363  0.89423  1.0000
  H   H11       1.0  0.02193  0.67326  0.39392  1.0000
  H   H12       1.0  0.34850  0.32637  0.10576  1.0000
  H   H13       1.0  0.20260  0.45143  0.58699  1.0000
  H   H14       1.0  0.75117  0.54835  0.91324  1.0000
  H   H15       1.0  0.79740  0.54857  0.41301  1.0000
  H   H16       1.0  0.24883  0.45166  0.08676  1.0000
  H   H17       1.0  0.08753  0.66671  0.96911  1.0000
  H   H18       1.0  0.42064  0.33410  0.53118  1.0000
  H   H19       1.0  0.91247  0.33328  0.03089  1.0000
  H   H20       1.0  0.57935  0.66590  0.46882  1.0000
  H   H21       1.0  0.42312  0.76716  0.74361  1.0000
  H   H22       1.0  0.65678  0.23320  0.75626  1.0000
  H   H23       1.0  0.57687  0.23285  0.25639  1.0000
  H   H24       1.0  0.34322  0.76680  0.24374  1.0000
  H   H25       1.0  0.97902  0.96865  0.06113  1.0000
  H   H26       1.0  0.01016  0.03127  0.43850  1.0000
  H   H27       1.0  0.02097  0.03135  0.93887  1.0000
  H   H28       1.0  0.98984  0.96873  0.56150  1.0000
  H   H29       1.0  0.73829  0.98636  0.15485  1.0000
  H   H30       1.0  0.75122  0.01266  0.34437  1.0000
  H   H31       1.0  0.26171  0.01365  0.84516  1.0000
  H   H32       1.0  0.24878  0.98735  0.65563  1.0000
  C   C1        1.0  0.03110  0.55512  0.55991  1.0000
  C   C2        1.0  0.47624  0.44508  0.94008  1.0000
  C   C3        1.0  0.96890  0.44488  0.44009  1.0000
  C   C4        1.0  0.52376  0.55493  0.05993  1.0000
  C   C5        1.0  0.08879  0.46330  0.61686  1.0000
  C   C6        1.0  0.62573  0.53692  0.88334  1.0000
  C   C7        1.0  0.91120  0.53670  0.38314  1.0000
  C   C8        1.0  0.37428  0.46309  0.11666  1.0000
  C   C9        1.0  0.13497  0.65721  0.89447  1.0000
  C   C10       1.0  0.47783  0.34349  0.60573  1.0000
  C   C11       1.0  0.86503  0.34278  0.10553  1.0000
  C   C12       1.0  0.52217  0.65651  0.39427  1.0000
  C   C13       1.0  0.31122  0.71121  0.78330  1.0000
  C   C14       1.0  0.60058  0.28916  0.71664  1.0000
  C   C15       1.0  0.68878  0.28879  0.21670  1.0000
  C   C16       1.0  0.39943  0.71085  0.28336  1.0000
  C   C17       1.0  0.13217  0.99127  0.19623  1.0000
  C   C18       1.0  0.14104  0.00911  0.30374  1.0000
  C   C19       1.0  0.86782  0.00873  0.80377  1.0000
  C   C20       1.0  0.85895  0.99089  0.69626  1.0000
  C   C21       1.0  0.98673  0.98430  0.14441  1.0000
  C   C22       1.0  0.00228  0.01564  0.35526  1.0000
  C   C23       1.0  0.01327  0.01570  0.85559  1.0000
  C   C24       1.0  0.99771  0.98436  0.64474  1.0000
  C   C25       1.0  0.85023  0.99247  0.19691  1.0000
  C   C26       1.0  0.85726  0.00683  0.30251  1.0000
  C   C27       1.0  0.14977  0.00753  0.80309  1.0000
  C   C28       1.0  0.14273  0.99317  0.69749  1.0000
  C   C29       1.0  0.26666  0.96716  0.13249  1.0000
  C   C30       1.0  0.29979  0.03329  0.36754  1.0000
  C   C31       1.0  0.73333  0.03284  0.86751  1.0000
  C   C32       1.0  0.70021  0.96671  0.63246  1.0000
  N   N1        1.0  0.14835  0.56792  0.73159  1.0000
  N   N2        1.0  0.58092  0.43252  0.76853  1.0000
  N   N3        1.0  0.85165  0.43208  0.26841  1.0000
  N   N4        1.0  0.41909  0.56748  0.23147  1.0000
  N   N5        1.0  0.03383  0.53081  0.80103  1.0000
  N   N6        1.0  0.50315  0.46980  0.69923  1.0000
  N   N7        1.0  0.96617  0.46918  0.19897  1.0000
  N   N8        1.0  0.49686  0.53020  0.30077  1.0000
  N   N9        1.0  0.30710  0.77196  0.88750  1.0000
  N   N10       1.0  0.53540  0.22853  0.61247  1.0000
  N   N11       1.0  0.69290  0.22803  0.11250  1.0000
  N   N12       1.0  0.46460  0.77147  0.38753  1.0000
  O   O1        1.0  0.31450  0.05255  0.06759  1.0000
  O   O2        1.0  0.26247  0.94813  0.43256  1.0000
  O   O3        1.0  0.68550  0.94745  0.93241  1.0000
  O   O4        1.0  0.73753  0.05186  0.56744  1.0000
  O   O5        1.0  0.32230  0.86423  0.13923  1.0000
  O   O6        1.0  0.45794  0.13588  0.36053  1.0000
  O   O7        1.0  0.67769  0.13577  0.86077  1.0000
  O   O8        1.0  0.54205  0.86412  0.63947  1.0000
