data_image0
_chemical_formula_structural       Zn2H64C68N8O8
_chemical_formula_sum              "Zn2 H64 C68 N8 O8"
_cell_length_a       8.66001
_cell_length_b       11.7713
_cell_length_c       16.2863
_cell_angle_alpha    99.8811
_cell_angle_beta     90
_cell_angle_gamma    111.583

_space_group_name_H-M_alt    "P 1"
_space_group_IT_number       1

loop_
  _space_group_symop_operation_xyz
  'x, y, z'

loop_
  _atom_site_type_symbol
  _atom_site_label
  _atom_site_symmetry_multiplicity
  _atom_site_fract_x
  _atom_site_fract_y
  _atom_site_fract_z
  _atom_site_occupancy
  Zn  Zn1       1.0  0.33545  0.99982  0.74999  1.0000
  Zn  Zn2       1.0  0.66454  0.00018  0.25001  1.0000
  H   H1        1.0  0.48727  0.83499  0.77086  1.0000
  H   H2        1.0  0.65247  0.16431  0.72907  1.0000
  H   H3        1.0  0.51273  0.16500  0.22915  1.0000
  H   H4        1.0  0.34752  0.83568  0.27094  1.0000
  H   H5        1.0  0.48489  0.78685  0.86844  1.0000
  H   H6        1.0  0.69805  0.21249  0.63147  1.0000
  H   H7        1.0  0.51512  0.21314  0.13156  1.0000
  H   H8        1.0  0.30195  0.78751  0.36853  1.0000
  H   H9        1.0  0.67556  0.84479  0.82087  1.0000
  H   H10       1.0  0.83070  0.15431  0.67889  1.0000
  H   H11       1.0  0.32444  0.15521  0.17914  1.0000
  H   H12       1.0  0.16929  0.84569  0.32112  1.0000
  H   H13       1.0  0.82449  0.23803  0.08779  1.0000
  H   H14       1.0  0.58550  0.76092  0.41216  1.0000
  H   H15       1.0  0.17549  0.76197  0.91222  1.0000
  H   H16       1.0  0.41451  0.23908  0.58784  1.0000
  H   H17       1.0  0.47444  0.29336  0.86132  1.0000
  H   H18       1.0  0.17992  0.70646  0.63850  1.0000
  H   H19       1.0  0.52555  0.70664  0.13868  1.0000
  H   H20       1.0  0.82008  0.29354  0.36149  1.0000
  H   H21       1.0  0.78406  0.43892  0.09268  1.0000
  H   H22       1.0  0.34373  0.56032  0.40725  1.0000
  H   H23       1.0  0.21593  0.56108  0.90732  1.0000
  H   H24       1.0  0.65629  0.43969  0.59275  1.0000
  H   H25       1.0  0.61081  0.46486  0.98276  1.0000
  H   H26       1.0  0.14439  0.53476  0.51713  1.0000
  H   H27       1.0  0.38918  0.53513  0.01724  1.0000
  H   H28       1.0  0.85562  0.46523  0.48287  1.0000
  H   H29       1.0  0.70819  0.88354  0.97955  1.0000
  H   H30       1.0  0.82380  0.11561  0.52019  1.0000
  H   H31       1.0  0.29182  0.11647  0.02045  1.0000
  H   H32       1.0  0.17620  0.88440  0.47982  1.0000
  H   H33       1.0  0.75944  0.01394  0.06107  1.0000
  H   H34       1.0  0.74496  0.98503  0.43877  1.0000
  H   H35       1.0  0.24056  0.98606  0.93894  1.0000
  H   H36       1.0  0.25505  0.01498  0.56123  1.0000
  H   H37       1.0  0.00918  0.12876  0.98750  1.0000
  H   H38       1.0  0.88101  0.87095  0.51238  1.0000
  H   H39       1.0  0.99082  0.87125  0.01250  1.0000
  H   H40       1.0  0.11900  0.12905  0.48762  1.0000
  H   H41       1.0  0.96304  0.99862  0.90717  1.0000
  H   H42       1.0  0.96421  0.00111  0.59278  1.0000
  H   H43       1.0  0.03696  0.00139  0.09283  1.0000
  H   H44       1.0  0.03579  0.99890  0.40722  1.0000
  H   H45       1.0  0.92607  0.70578  0.86667  1.0000
  H   H46       1.0  0.22148  0.29474  0.63349  1.0000
  H   H47       1.0  0.07392  0.29421  0.13333  1.0000
  H   H48       1.0  0.77852  0.70525  0.36650  1.0000
  H   H49       1.0  0.64014  0.55466  0.87775  1.0000
  H   H50       1.0  0.08660  0.44579  0.62242  1.0000
  H   H51       1.0  0.35986  0.44532  0.12225  1.0000
  H   H52       1.0  0.91340  0.55421  0.37758  1.0000
  H   H53       1.0  0.42290  0.49790  0.76170  1.0000
  H   H54       1.0  0.92528  0.50200  0.73829  1.0000
  H   H55       1.0  0.57709  0.50209  0.23829  1.0000
  H   H56       1.0  0.07473  0.49801  0.26171  1.0000
  H   H57       1.0  0.49202  0.59386  0.63477  1.0000
  H   H58       1.0  0.89806  0.40577  0.86508  1.0000
  H   H59       1.0  0.50798  0.40614  0.36523  1.0000
  H   H60       1.0  0.10194  0.59423  0.13491  1.0000
  H   H61       1.0  0.77973  0.74622  0.62492  1.0000
  H   H62       1.0  0.03362  0.25359  0.87498  1.0000
  H   H63       1.0  0.22027  0.25379  0.37509  1.0000
  H   H64       1.0  0.96638  0.74642  0.12502  1.0000
  C   C1        1.0  0.55611  0.85566  0.83119  1.0000
  C   C2        1.0  0.70043  0.14359  0.66867  1.0000
  C   C3        1.0  0.44389  0.14434  0.16881  1.0000
  C   C4        1.0  0.29956  0.85640  0.33134  1.0000
  C   C5        1.0  0.58208  0.98309  0.87416  1.0000
  C   C6        1.0  0.59868  0.01619  0.62574  1.0000
  C   C7        1.0  0.41792  0.01691  0.12584  1.0000
  C   C8        1.0  0.40132  0.98381  0.37426  1.0000
  C   C9        1.0  0.67822  0.15770  0.96897  1.0000
  C   C10       1.0  0.51976  0.84149  0.53098  1.0000
  C   C11       1.0  0.32178  0.84230  0.03103  1.0000
  C   C12       1.0  0.48024  0.15851  0.46902  1.0000
  C   C13       1.0  0.57696  0.17043  0.90562  1.0000
  C   C14       1.0  0.40575  0.82901  0.59431  1.0000
  C   C15       1.0  0.42304  0.82957  0.09438  1.0000
  C   C16       1.0  0.59425  0.17099  0.40569  1.0000
  C   C17       1.0  0.75459  0.25216  0.03735  1.0000
  C   C18       1.0  0.50144  0.74695  0.46262  1.0000
  C   C19       1.0  0.24541  0.74784  0.96266  1.0000
  C   C20       1.0  0.49857  0.25305  0.53738  1.0000
  C   C21       1.0  0.55152  0.28191  0.90948  1.0000
  C   C22       1.0  0.26854  0.71767  0.59040  1.0000
  C   C23       1.0  0.44847  0.71809  0.09052  1.0000
  C   C24       1.0  0.73147  0.28233  0.40960  1.0000
  C   C25       1.0  0.72792  0.36260  0.04029  1.0000
  C   C26       1.0  0.36404  0.63666  0.45963  1.0000
  C   C27       1.0  0.27208  0.63740  0.95971  1.0000
  C   C28       1.0  0.63596  0.36334  0.54037  1.0000
  C   C29       1.0  0.62842  0.37687  0.97744  1.0000
  C   C30       1.0  0.25023  0.62265  0.52244  1.0000
  C   C31       1.0  0.37158  0.62314  0.02256  1.0000
  C   C32       1.0  0.74979  0.37735  0.47756  1.0000
  C   C33       1.0  0.76989  0.98515  0.99418  1.0000
  C   C34       1.0  0.78418  0.01399  0.50566  1.0000
  C   C35       1.0  0.23011  0.01485  0.00583  1.0000
  C   C36       1.0  0.21582  0.98601  0.49434  1.0000
  C   C37       1.0  0.95237  0.02641  0.97426  1.0000
  C   C38       1.0  0.92591  0.97329  0.52567  1.0000
  C   C39       1.0  0.04764  0.97360  0.02574  1.0000
  C   C40       1.0  0.07409  0.02672  0.47433  1.0000
  C   C41       1.0  0.04045  0.82777  0.73651  1.0000
  C   C42       1.0  0.21315  0.17224  0.76356  1.0000
  C   C43       1.0  0.95954  0.17223  0.26349  1.0000
  C   C44       1.0  0.78685  0.82776  0.23644  1.0000
  C   C45       1.0  0.87051  0.73440  0.74458  1.0000
  C   C46       1.0  0.13663  0.26564  0.75543  1.0000
  C   C47       1.0  0.12948  0.26560  0.25542  1.0000
  C   C48       1.0  0.86338  0.73436  0.24457  1.0000
  C   C49       1.0  0.83066  0.68030  0.81597  1.0000
  C   C50       1.0  0.15118  0.31994  0.68411  1.0000
  C   C51       1.0  0.16934  0.31969  0.18403  1.0000
  C   C52       1.0  0.84882  0.68006  0.31589  1.0000
  C   C53       1.0  0.67026  0.59557  0.82189  1.0000
  C   C54       1.0  0.07544  0.40461  0.67817  1.0000
  C   C55       1.0  0.32974  0.40442  0.17810  1.0000
  C   C56       1.0  0.92456  0.59539  0.32182  1.0000
  C   C57       1.0  0.54829  0.56371  0.75678  1.0000
  C   C58       1.0  0.98489  0.43620  0.74317  1.0000
  C   C59       1.0  0.45171  0.43628  0.24322  1.0000
  C   C60       1.0  0.01511  0.56381  0.25683  1.0000
  C   C61       1.0  0.58711  0.61720  0.68541  1.0000
  C   C62       1.0  0.96998  0.38258  0.81448  1.0000
  C   C63       1.0  0.41289  0.38280  0.31459  1.0000
  C   C64       1.0  0.03003  0.61743  0.18552  1.0000
  C   C65       1.0  0.74724  0.70217  0.67947  1.0000
  C   C66       1.0  0.04524  0.29768  0.82044  1.0000
  C   C67       1.0  0.25275  0.29784  0.32053  1.0000
  C   C68       1.0  0.95476  0.70232  0.17955  1.0000
  N   N1        1.0  0.67762  0.03824  0.94745  1.0000
  N   N2        1.0  0.63890  0.96086  0.55247  1.0000
  N   N3        1.0  0.32238  0.96176  0.05255  1.0000
  N   N4        1.0  0.36110  0.03914  0.44754  1.0000
  N   N5        1.0  0.51809  0.05940  0.84772  1.0000
  N   N6        1.0  0.45818  0.94010  0.65217  1.0000
  N   N7        1.0  0.48191  0.94060  0.15228  1.0000
  N   N8        1.0  0.54182  0.05990  0.34783  1.0000
  O   O1        1.0  0.15886  0.84704  0.79186  1.0000
  O   O2        1.0  0.31228  0.15288  0.70824  1.0000
  O   O3        1.0  0.84113  0.15297  0.20814  1.0000
  O   O4        1.0  0.68771  0.84711  0.29176  1.0000
  O   O5        1.0  0.06426  0.88444  0.67581  1.0000
  O   O6        1.0  0.17994  0.11544  0.82420  1.0000
  O   O7        1.0  0.93574  0.11555  0.32419  1.0000
  O   O8        1.0  0.82005  0.88456  0.17581  1.0000
