data_image0
_chemical_formula_structural       Zn4H60C56N8O20
_chemical_formula_sum              "Zn4 H60 C56 N8 O20"
_cell_length_a       8.30314
_cell_length_b       10.7489
_cell_length_c       16.3185
_cell_angle_alpha    90
_cell_angle_beta     90
_cell_angle_gamma    90.0868

_space_group_name_H-M_alt    "P 1"
_space_group_IT_number       1

loop_
  _space_group_symop_operation_xyz
  'x, y, z'

loop_
  _atom_site_type_symbol
  _atom_site_label
  _atom_site_symmetry_multiplicity
  _atom_site_fract_x
  _atom_site_fract_y
  _atom_site_fract_z
  _atom_site_occupancy
  Zn  Zn1       1.0  0.53476  0.39793  0.08175  1.0000
  Zn  Zn2       1.0  0.96524  0.60207  0.58175  1.0000
  Zn  Zn3       1.0  0.46524  0.60207  0.91825  1.0000
  Zn  Zn4       1.0  0.03476  0.39793  0.41825  1.0000
  H   H1        1.0  0.15166  0.29681  0.94869  1.0000
  H   H2        1.0  0.34835  0.70319  0.44870  1.0000
  H   H3        1.0  0.84834  0.70319  0.05130  1.0000
  H   H4        1.0  0.65166  0.29681  0.55131  1.0000
  H   H5        1.0  0.27763  0.21098  0.88075  1.0000
  H   H6        1.0  0.22237  0.78902  0.38075  1.0000
  H   H7        1.0  0.72237  0.78902  0.11925  1.0000
  H   H8        1.0  0.77764  0.21098  0.61925  1.0000
  H   H9        1.0  0.35234  0.34631  0.92902  1.0000
  H   H10       1.0  0.14765  0.65369  0.42902  1.0000
  H   H11       1.0  0.64766  0.65369  0.07098  1.0000
  H   H12       1.0  0.85235  0.34631  0.57098  1.0000
  H   H13       1.0  0.31707  0.82699  0.09788  1.0000
  H   H14       1.0  0.18293  0.17301  0.59787  1.0000
  H   H15       1.0  0.68293  0.17301  0.90213  1.0000
  H   H16       1.0  0.81707  0.82699  0.40213  1.0000
  H   H17       1.0  0.45986  0.80977  0.23194  1.0000
  H   H18       1.0  0.04014  0.19023  0.73194  1.0000
  H   H19       1.0  0.54014  0.19023  0.76806  1.0000
  H   H20       1.0  0.95986  0.80977  0.26806  1.0000
  H   H21       1.0  0.58591  0.99492  0.29645  1.0000
  H   H22       1.0  0.91409  0.00508  0.79645  1.0000
  H   H23       1.0  0.41409  0.00508  0.70355  1.0000
  H   H24       1.0  0.08591  0.99492  0.20355  1.0000
  H   H25       1.0  0.57369  0.20248  0.23000  1.0000
  H   H26       1.0  0.92631  0.79752  0.73000  1.0000
  H   H27       1.0  0.42631  0.79752  0.77000  1.0000
  H   H28       1.0  0.07369  0.20248  0.27000  1.0000
  H   H29       1.0  0.29367  0.90130  0.94802  1.0000
  H   H30       1.0  0.20633  0.09869  0.44802  1.0000
  H   H31       1.0  0.70633  0.09869  0.05198  1.0000
  H   H32       1.0  0.79367  0.90131  0.55198  1.0000
  H   H33       1.0  0.20796  0.03207  0.90013  1.0000
  H   H34       1.0  0.29204  0.96793  0.40013  1.0000
  H   H35       1.0  0.79204  0.96793  0.09987  1.0000
  H   H36       1.0  0.70796  0.03207  0.59987  1.0000
  H   H37       1.0  0.99946  0.88449  0.94382  1.0000
  H   H38       1.0  0.50053  0.11551  0.44383  1.0000
  H   H39       1.0  0.00053  0.11551  0.05617  1.0000
  H   H40       1.0  0.49946  0.88449  0.55618  1.0000
  H   H41       1.0  0.06796  0.88617  0.04559  1.0000
  H   H42       1.0  0.43203  0.11383  0.54559  1.0000
  H   H43       1.0  0.93203  0.11382  0.95441  1.0000
  H   H44       1.0  0.56796  0.88617  0.45441  1.0000
  H   H45       1.0  0.79080  0.59534  0.86245  1.0000
  H   H46       1.0  0.70919  0.40466  0.36244  1.0000
  H   H47       1.0  0.20919  0.40466  0.13756  1.0000
  H   H48       1.0  0.29081  0.59534  0.63755  1.0000
  H   H49       1.0  0.98639  0.35785  0.82637  1.0000
  H   H50       1.0  0.51361  0.64215  0.32637  1.0000
  H   H51       1.0  0.01362  0.64216  0.17363  1.0000
  H   H52       1.0  0.48638  0.35785  0.67363  1.0000
  H   H53       1.0  0.80964  0.31183  0.06272  1.0000
  H   H54       1.0  0.69036  0.68817  0.56272  1.0000
  H   H55       1.0  0.19036  0.68817  0.93728  1.0000
  H   H56       1.0  0.30964  0.31183  0.43728  1.0000
  H   H57       1.0  0.81799  0.34157  0.16142  1.0000
  H   H58       1.0  0.68201  0.65843  0.66142  1.0000
  H   H59       1.0  0.18201  0.65843  0.83858  1.0000
  H   H60       1.0  0.31799  0.34157  0.33858  1.0000
  C   C1        1.0  0.27587  0.26474  0.93781  1.0000
  C   C2        1.0  0.22413  0.73526  0.43781  1.0000
  C   C3        1.0  0.72413  0.73526  0.06219  1.0000
  C   C4        1.0  0.77587  0.26474  0.56219  1.0000
  C   C5        1.0  0.33312  0.18934  0.00792  1.0000
  C   C6        1.0  0.16688  0.81065  0.50792  1.0000
  C   C7        1.0  0.66687  0.81065  0.99209  1.0000
  C   C8        1.0  0.83313  0.18934  0.49209  1.0000
  C   C9        1.0  0.43759  0.13240  0.12630  1.0000
  C   C10       1.0  0.06240  0.86760  0.62630  1.0000
  C   C11       1.0  0.56241  0.86760  0.87370  1.0000
  C   C12       1.0  0.93760  0.13240  0.37370  1.0000
  C   C13       1.0  0.36656  0.02589  0.09045  1.0000
  C   C14       1.0  0.13344  0.97411  0.59045  1.0000
  C   C15       1.0  0.63344  0.97411  0.90955  1.0000
  C   C16       1.0  0.86656  0.02589  0.40955  1.0000
  C   C17       1.0  0.37173  0.90815  0.12673  1.0000
  C   C18       1.0  0.12826  0.09185  0.62673  1.0000
  C   C19       1.0  0.62827  0.09185  0.87327  1.0000
  C   C20       1.0  0.87173  0.90815  0.37327  1.0000
  C   C21       1.0  0.45130  0.90001  0.20176  1.0000
  C   C22       1.0  0.04870  0.09999  0.70175  1.0000
  C   C23       1.0  0.54870  0.09999  0.79825  1.0000
  C   C24       1.0  0.95130  0.90001  0.29824  1.0000
  C   C25       1.0  0.52231  0.00534  0.23842  1.0000
  C   C26       1.0  0.97769  0.99466  0.73842  1.0000
  C   C27       1.0  0.47769  0.99466  0.76158  1.0000
  C   C28       1.0  0.02231  0.00534  0.26158  1.0000
  C   C29       1.0  0.51717  0.12227  0.20165  1.0000
  C   C30       1.0  0.98283  0.87773  0.70165  1.0000
  C   C31       1.0  0.48283  0.87773  0.79835  1.0000
  C   C32       1.0  0.01717  0.12227  0.29835  1.0000
  C   C33       1.0  0.21859  0.98335  0.95888  1.0000
  C   C34       1.0  0.28141  0.01665  0.45888  1.0000
  C   C35       1.0  0.78141  0.01665  0.04112  1.0000
  C   C36       1.0  0.71859  0.98335  0.54112  1.0000
  C   C37       1.0  0.05392  0.94470  0.99085  1.0000
  C   C38       1.0  0.44608  0.05530  0.49085  1.0000
  C   C39       1.0  0.94608  0.05530  0.00915  1.0000
  C   C40       1.0  0.55392  0.94470  0.50915  1.0000
  C   C41       1.0  0.77631  0.42935  0.94196  1.0000
  C   C42       1.0  0.72369  0.57065  0.44196  1.0000
  C   C43       1.0  0.22369  0.57065  0.05804  1.0000
  C   C44       1.0  0.27631  0.42935  0.55804  1.0000
  C   C45       1.0  0.83919  0.50218  0.87190  1.0000
  C   C46       1.0  0.66081  0.49782  0.37190  1.0000
  C   C47       1.0  0.16081  0.49782  0.12810  1.0000
  C   C48       1.0  0.33919  0.50218  0.62810  1.0000
  C   C49       1.0  0.94459  0.45345  0.81864  1.0000
  C   C50       1.0  0.55541  0.54655  0.31864  1.0000
  C   C51       1.0  0.05541  0.54655  0.18136  1.0000
  C   C52       1.0  0.44459  0.45345  0.68135  1.0000
  C   C53       1.0  0.00045  0.52429  0.74531  1.0000
  C   C54       1.0  0.49955  0.47571  0.24531  1.0000
  C   C55       1.0  0.99955  0.47572  0.25469  1.0000
  C   C56       1.0  0.50045  0.52429  0.75468  1.0000
  N   N1        1.0  0.30286  0.06505  0.01608  1.0000
  N   N2        1.0  0.19714  0.93495  0.51608  1.0000
  N   N3        1.0  0.69714  0.93495  0.98392  1.0000
  N   N4        1.0  0.80286  0.06505  0.48392  1.0000
  N   N5        1.0  0.41572  0.23290  0.07274  1.0000
  N   N6        1.0  0.08428  0.76710  0.57274  1.0000
  N   N7        1.0  0.58428  0.76710  0.92726  1.0000
  N   N8        1.0  0.91572  0.23290  0.42726  1.0000
  O   O1        1.0  0.64504  0.47125  0.97646  1.0000
  O   O2        1.0  0.85496  0.52875  0.47646  1.0000
  O   O3        1.0  0.35496  0.52875  0.02354  1.0000
  O   O4        1.0  0.14504  0.47125  0.52354  1.0000
  O   O5        1.0  0.84905  0.33299  0.96533  1.0000
  O   O6        1.0  0.65095  0.66701  0.46533  1.0000
  O   O7        1.0  0.15095  0.66702  0.03467  1.0000
  O   O8        1.0  0.34905  0.33299  0.53467  1.0000
  O   O9        1.0  0.08627  0.61974  0.75430  1.0000
  O   O10       1.0  0.41373  0.38026  0.25430  1.0000
  O   O11       1.0  0.91373  0.38027  0.24570  1.0000
  O   O12       1.0  0.58628  0.61973  0.74570  1.0000
  O   O13       1.0  0.95146  0.48202  0.67582  1.0000
  O   O14       1.0  0.54854  0.51798  0.17582  1.0000
  O   O15       1.0  0.04854  0.51799  0.32418  1.0000
  O   O16       1.0  0.45146  0.48202  0.82418  1.0000
  O   O17       1.0  0.74935  0.30769  0.11578  1.0000
  O   O18       1.0  0.75066  0.69231  0.61578  1.0000
  O   O19       1.0  0.25065  0.69231  0.88422  1.0000
  O   O20       1.0  0.24934  0.30769  0.38422  1.0000
