data_image0
_chemical_formula_structural       Zn2H34C36N4O10
_chemical_formula_sum              "Zn2 H34 C36 N4 O10"
_cell_length_a       8.47789
_cell_length_b       9.77187
_cell_length_c       11.4982
_cell_angle_alpha    69.2387
_cell_angle_beta     69.6196
_cell_angle_gamma    65.4888

_space_group_name_H-M_alt    "P 1"
_space_group_IT_number       1

loop_
  _space_group_symop_operation_xyz
  'x, y, z'

loop_
  _atom_site_type_symbol
  _atom_site_label
  _atom_site_symmetry_multiplicity
  _atom_site_fract_x
  _atom_site_fract_y
  _atom_site_fract_z
  _atom_site_occupancy
  Zn  Zn1       1.0  0.66114  0.09149  0.56006  1.0000
  Zn  Zn2       1.0  0.33886  0.90851  0.43994  1.0000
  H   H1        1.0  0.87410  0.63251  0.77622  1.0000
  H   H2        1.0  0.12589  0.36749  0.22378  1.0000
  H   H3        1.0  0.75864  0.42240  0.80384  1.0000
  H   H4        1.0  0.24136  0.57760  0.19616  1.0000
  H   H5        1.0  0.93899  0.21833  0.68554  1.0000
  H   H6        1.0  0.06100  0.78167  0.31446  1.0000
  H   H7        1.0  0.35034  0.42900  0.51465  1.0000
  H   H8        1.0  0.64966  0.57100  0.48536  1.0000
  H   H9        1.0  0.58341  0.36853  0.66218  1.0000
  H   H10       1.0  0.41659  0.63146  0.33782  1.0000
  H   H11       1.0  0.14666  0.26168  0.08547  1.0000
  H   H12       1.0  0.85334  0.73832  0.91453  1.0000
  H   H13       1.0  0.24076  0.96678  0.13154  1.0000
  H   H14       1.0  0.75924  0.03323  0.86846  1.0000
  H   H15       1.0  0.27553  0.82995  0.05028  1.0000
  H   H16       1.0  0.72447  0.17005  0.94972  1.0000
  H   H17       1.0  0.55024  0.80877  0.72258  1.0000
  H   H18       1.0  0.44977  0.19123  0.27742  1.0000
  H   H19       1.0  0.32240  0.83683  0.79285  1.0000
  H   H20       1.0  0.67760  0.16316  0.20715  1.0000
  H   H21       1.0  0.47826  0.73879  0.89179  1.0000
  H   H22       1.0  0.52175  0.26121  0.10821  1.0000
  H   H23       1.0  0.22090  0.50632  0.00595  1.0000
  H   H24       1.0  0.77909  0.49368  0.99404  1.0000
  H   H25       1.0  0.43757  0.55697  0.80002  1.0000
  H   H26       1.0  0.56243  0.44303  0.19998  1.0000
  H   H27       1.0  0.95350  0.96101  0.14727  1.0000
  H   H28       1.0  0.04650  0.03899  0.85274  1.0000
  H   H29       1.0  0.96861  0.14149  0.04593  1.0000
  H   H30       1.0  0.03138  0.85851  0.95407  1.0000
  H   H31       1.0  0.95956  0.92625  0.66859  1.0000
  H   H32       1.0  0.04044  0.07374  0.33141  1.0000
  H   H33       1.0  0.98213  0.08204  0.58045  1.0000
  H   H34       1.0  0.01788  0.91796  0.41955  1.0000
  C   C1        1.0  0.17636  0.67769  0.62606  1.0000
  C   C2        1.0  0.82364  0.32230  0.37394  1.0000
  C   C3        1.0  0.11763  0.54475  0.64363  1.0000
  C   C4        1.0  0.88237  0.45525  0.35637  1.0000
  C   C5        1.0  0.95242  0.54057  0.72630  1.0000
  C   C6        1.0  0.04757  0.45944  0.27370  1.0000
  C   C7        1.0  0.88898  0.42337  0.74128  1.0000
  C   C8        1.0  0.11101  0.57663  0.25873  1.0000
  C   C9        1.0  0.99067  0.30830  0.67457  1.0000
  C   C10       1.0  0.00933  0.69170  0.32544  1.0000
  C   C11       1.0  0.15860  0.30860  0.59385  1.0000
  C   C12       1.0  0.84140  0.69140  0.40615  1.0000
  C   C13       1.0  0.22037  0.42833  0.57784  1.0000
  C   C14       1.0  0.77963  0.57166  0.42217  1.0000
  C   C15       1.0  0.27510  0.18371  0.52427  1.0000
  C   C16       1.0  0.72490  0.81629  0.47573  1.0000
  C   C17       1.0  0.49181  0.34477  0.75460  1.0000
  C   C18       1.0  0.50819  0.65523  0.24540  1.0000
  C   C19       1.0  0.44774  0.20929  0.79782  1.0000
  C   C20       1.0  0.55226  0.79072  0.20218  1.0000
  C   C21       1.0  0.24378  0.28351  0.99539  1.0000
  C   C22       1.0  0.75622  0.71649  0.00460  1.0000
  C   C23       1.0  0.42522  0.98321  0.82567  1.0000
  C   C24       1.0  0.57479  0.01679  0.17433  1.0000
  C   C25       1.0  0.32894  0.17891  0.91773  1.0000
  C   C26       1.0  0.67106  0.82109  0.08226  1.0000
  C   C27       1.0  0.21894  0.95405  0.04784  1.0000
  C   C28       1.0  0.78106  0.04595  0.95216  1.0000
  C   C29       1.0  0.44540  0.83355  0.80784  1.0000
  C   C30       1.0  0.55460  0.16645  0.19216  1.0000
  C   C31       1.0  0.28667  0.41948  0.95006  1.0000
  C   C32       1.0  0.71332  0.58052  0.04994  1.0000
  C   C33       1.0  0.41015  0.44825  0.83283  1.0000
  C   C34       1.0  0.58985  0.55175  0.16717  1.0000
  C   C35       1.0  0.02046  0.01601  0.05234  1.0000
  C   C36       1.0  0.97954  0.98399  0.94766  1.0000
  N   N1        1.0  0.50365  0.08594  0.74222  1.0000
  N   N2        1.0  0.49635  0.91406  0.25779  1.0000
  N   N3        1.0  0.32029  0.03452  0.93325  1.0000
  N   N4        1.0  0.67971  0.96548  0.06675  1.0000
  O   O1        1.0  0.09987  0.75836  0.70769  1.0000
  O   O2        1.0  0.90014  0.24163  0.29231  1.0000
  O   O3        1.0  0.29946  0.70241  0.52554  1.0000
  O   O4        1.0  0.70053  0.29759  0.47445  1.0000
  O   O5        1.0  0.43809  0.16814  0.47714  1.0000
  O   O6        1.0  0.56191  0.83187  0.52286  1.0000
  O   O7        1.0  0.20119  0.09821  0.51264  1.0000
  O   O8        1.0  0.79881  0.90179  0.48736  1.0000
  O   O9        1.0  0.88739  0.03754  0.63679  1.0000
  O   O10       1.0  0.11261  0.96246  0.36320  1.0000
