data_image0
_chemical_formula_structural       ZnH34C32N6O6
_chemical_formula_sum              "Zn1 H34 C32 N6 O6"
_cell_length_a       8.61329
_cell_length_b       9.34724
_cell_length_c       9.48113
_cell_angle_alpha    86.4547
_cell_angle_beta     86.8486
_cell_angle_gamma    78.4966

_space_group_name_H-M_alt    "P 1"
_space_group_IT_number       1

loop_
  _space_group_symop_operation_xyz
  'x, y, z'

loop_
  _atom_site_type_symbol
  _atom_site_label
  _atom_site_symmetry_multiplicity
  _atom_site_fract_x
  _atom_site_fract_y
  _atom_site_fract_z
  _atom_site_occupancy
  Zn  Zn1       1.0  0.00000  0.00000  1.00000  1.0000
  H   H1        1.0  0.01689  0.30190  0.13745  1.0000
  H   H2        1.0  0.98310  0.69811  0.86255  1.0000
  H   H3        1.0  0.96850  0.50656  0.30125  1.0000
  H   H4        1.0  0.03150  0.49344  0.69875  1.0000
  H   H5        1.0  0.83031  0.48327  0.53572  1.0000
  H   H6        1.0  0.16969  0.51673  0.46428  1.0000
  H   H7        1.0  0.74565  0.24969  0.61741  1.0000
  H   H8        1.0  0.25436  0.75031  0.38260  1.0000
  H   H9        1.0  0.71064  0.79747  0.24668  1.0000
  H   H10       1.0  0.28937  0.20254  0.75332  1.0000
  H   H11       1.0  0.85225  0.72186  0.37523  1.0000
  H   H12       1.0  0.14775  0.27815  0.62476  1.0000
  H   H13       1.0  0.91514  0.75205  0.19459  1.0000
  H   H14       1.0  0.08485  0.24795  0.80540  1.0000
  H   H15       1.0  0.77567  0.97499  0.65115  1.0000
  H   H16       1.0  0.22433  0.02501  0.34885  1.0000
  H   H17       1.0  0.74042  0.83192  0.55113  1.0000
  H   H18       1.0  0.25958  0.16807  0.44886  1.0000
  H   H19       1.0  0.49285  0.97879  0.66263  1.0000
  H   H20       1.0  0.50715  0.02120  0.33736  1.0000
  H   H21       1.0  0.52811  0.13751  0.56817  1.0000
  H   H22       1.0  0.47188  0.86248  0.43182  1.0000
  H   H23       1.0  0.13660  0.51144  0.03023  1.0000
  H   H24       1.0  0.86341  0.48856  0.96978  1.0000
  H   H25       1.0  0.64384  0.34044  0.25770  1.0000
  H   H26       1.0  0.35617  0.65956  0.74230  1.0000
  H   H27       1.0  0.49810  0.16978  0.15094  1.0000
  H   H28       1.0  0.50190  0.83022  0.84906  1.0000
  H   H29       1.0  0.52846  0.61093  0.23961  1.0000
  H   H30       1.0  0.47154  0.38907  0.76039  1.0000
  H   H31       1.0  0.27722  0.99416  0.08375  1.0000
  H   H32       1.0  0.72279  0.00583  0.91623  1.0000
  H   H33       1.0  0.23945  0.17282  0.04753  1.0000
  H   H34       1.0  0.76055  0.82718  0.95247  1.0000
  C   C1        1.0  0.83710  0.14790  0.42202  1.0000
  C   C2        1.0  0.16289  0.85210  0.57798  1.0000
  C   C3        1.0  0.91197  0.16077  0.28648  1.0000
  C   C4        1.0  0.08803  0.83923  0.71352  1.0000
  C   C5        1.0  0.96081  0.29079  0.24172  1.0000
  C   C6        1.0  0.03918  0.70922  0.75828  1.0000
  C   C7        1.0  0.93154  0.40434  0.33398  1.0000
  C   C8        1.0  0.06846  0.59566  0.66602  1.0000
  C   C9        1.0  0.85388  0.39093  0.46757  1.0000
  C   C10       1.0  0.14611  0.60907  0.53243  1.0000
  C   C11       1.0  0.80578  0.26163  0.51460  1.0000
  C   C12       1.0  0.19422  0.73837  0.48540  1.0000
  C   C13       1.0  0.85347  0.94345  0.30815  1.0000
  C   C14       1.0  0.14652  0.05655  0.69185  1.0000
  C   C15       1.0  0.83153  0.79476  0.28009  1.0000
  C   C16       1.0  0.16846  0.20524  0.71990  1.0000
  C   C17       1.0  0.72042  0.95128  0.55589  1.0000
  C   C18       1.0  0.27958  0.04872  0.44410  1.0000
  C   C19       1.0  0.54352  0.01827  0.56221  1.0000
  C   C20       1.0  0.45648  0.98172  0.43779  1.0000
  C   C21       1.0  0.25819  0.74318  0.11321  1.0000
  C   C22       1.0  0.74182  0.25682  0.88679  1.0000
  C   C23       1.0  0.32402  0.58113  0.13335  1.0000
  C   C24       1.0  0.67599  0.41887  0.86665  1.0000
  C   C25       1.0  0.24899  0.47628  0.08191  1.0000
  C   C26       1.0  0.75101  0.52372  0.91809  1.0000
  C   C27       1.0  0.53092  0.38214  0.20940  1.0000
  C   C28       1.0  0.46908  0.61785  0.79061  1.0000
  C   C29       1.0  0.44933  0.28705  0.15124  1.0000
  C   C30       1.0  0.55067  0.71295  0.84876  1.0000
  C   C31       1.0  0.46735  0.53134  0.19962  1.0000
  C   C32       1.0  0.53265  0.46866  0.80038  1.0000
  N   N1        1.0  0.80322  0.00869  0.43326  1.0000
  N   N2        1.0  0.19678  0.99132  0.56673  1.0000
  N   N3        1.0  0.92071  0.03162  0.21857  1.0000
  N   N4        1.0  0.07929  0.96839  0.78143  1.0000
  N   N5        1.0  0.30962  0.33231  0.09004  1.0000
  N   N6        1.0  0.69039  0.66769  0.90997  1.0000
  O   O1        1.0  0.12589  0.77978  0.05336  1.0000
  O   O2        1.0  0.87411  0.22022  0.94665  1.0000
  O   O3        1.0  0.34031  0.82895  0.15637  1.0000
  O   O4        1.0  0.65970  0.17105  0.84362  1.0000
  O   O5        1.0  0.21645  0.07652  0.02373  1.0000
  O   O6        1.0  0.78354  0.92348  0.97627  1.0000
