data_image0
_chemical_formula_structural       Cd2H44C40N8O8
_chemical_formula_sum              "Cd2 H44 C40 N8 O8"
_cell_length_a       9.17293
_cell_length_b       10.0763
_cell_length_c       14.4659
_cell_angle_alpha    107.256
_cell_angle_beta     91.2789
_cell_angle_gamma    116.211

_space_group_name_H-M_alt    "P 1"
_space_group_IT_number       1

loop_
  _space_group_symop_operation_xyz
  'x, y, z'

loop_
  _atom_site_type_symbol
  _atom_site_label
  _atom_site_symmetry_multiplicity
  _atom_site_fract_x
  _atom_site_fract_y
  _atom_site_fract_z
  _atom_site_occupancy
  Cd  Cd1       1.0  0.82441  0.43997  0.10373  1.0000
  Cd  Cd2       1.0  0.17559  0.56003  0.89627  1.0000
  H   H1        1.0  0.82764  0.23603  0.37399  1.0000
  H   H2        1.0  0.17236  0.76397  0.62601  1.0000
  H   H3        1.0  0.10671  0.73578  0.44856  1.0000
  H   H4        1.0  0.89329  0.26422  0.55144  1.0000
  H   H5        1.0  0.93934  0.18503  0.12983  1.0000
  H   H6        1.0  0.06065  0.81497  0.87017  1.0000
  H   H7        1.0  0.11527  0.07832  0.85956  1.0000
  H   H8        1.0  0.88473  0.92167  0.14044  1.0000
  H   H9        1.0  0.51543  0.28630  0.23173  1.0000
  H   H10       1.0  0.48458  0.71370  0.76827  1.0000
  H   H11       1.0  0.57639  0.62539  0.10169  1.0000
  H   H12       1.0  0.42361  0.37461  0.89831  1.0000
  H   H13       1.0  0.29655  0.56118  0.19045  1.0000
  H   H14       1.0  0.70344  0.43882  0.80954  1.0000
  H   H15       1.0  0.22436  0.22824  0.28084  1.0000
  H   H16       1.0  0.77564  0.77176  0.71915  1.0000
  H   H17       1.0  0.13985  0.34977  0.26660  1.0000
  H   H18       1.0  0.86015  0.65023  0.73339  1.0000
  H   H19       1.0  0.22010  0.41381  0.44169  1.0000
  H   H20       1.0  0.77990  0.58619  0.55831  1.0000
  H   H21       1.0  0.35149  0.57521  0.40817  1.0000
  H   H22       1.0  0.64850  0.42479  0.59183  1.0000
  H   H23       1.0  0.57285  0.48860  0.40529  1.0000
  H   H24       1.0  0.42715  0.51140  0.59471  1.0000
  H   H25       1.0  0.43791  0.32662  0.43779  1.0000
  H   H26       1.0  0.56209  0.67338  0.56221  1.0000
  H   H27       1.0  0.82485  0.24554  0.85947  1.0000
  H   H28       1.0  0.17515  0.75446  0.14053  1.0000
  H   H29       1.0  0.42527  0.14836  0.01372  1.0000
  H   H30       1.0  0.57473  0.85164  0.98628  1.0000
  H   H31       1.0  0.31961  0.92318  0.82493  1.0000
  H   H32       1.0  0.68039  0.07682  0.17508  1.0000
  H   H33       1.0  0.47505  0.85987  0.69107  1.0000
  H   H34       1.0  0.52495  0.14013  0.30893  1.0000
  H   H35       1.0  0.69111  0.98484  0.70652  1.0000
  H   H36       1.0  0.30889  0.01516  0.29348  1.0000
  H   H37       1.0  0.63518  0.18137  0.66300  1.0000
  H   H38       1.0  0.36482  0.81864  0.33700  1.0000
  H   H39       1.0  0.42039  0.06487  0.65426  1.0000
  H   H40       1.0  0.57961  0.93513  0.34574  1.0000
  H   H41       1.0  0.64234  0.96769  0.52434  1.0000
  H   H42       1.0  0.35766  0.03231  0.47567  1.0000
  H   H43       1.0  0.43145  0.84272  0.51830  1.0000
  H   H44       1.0  0.56855  0.15728  0.48170  1.0000
  C   C1        1.0  0.92673  0.46888  0.29567  1.0000
  C   C2        1.0  0.07327  0.53112  0.70433  1.0000
  C   C3        1.0  0.96313  0.48460  0.40138  1.0000
  C   C4        1.0  0.03688  0.51540  0.59862  1.0000
  C   C5        1.0  0.90225  0.35125  0.43005  1.0000
  C   C6        1.0  0.09775  0.64875  0.56995  1.0000
  C   C7        1.0  0.06102  0.63356  0.47226  1.0000
  C   C8        1.0  0.93898  0.36644  0.52774  1.0000
  C   C9        1.0  0.06488  0.30231  0.98775  1.0000
  C   C10       1.0  0.93512  0.69769  0.01225  1.0000
  C   C11       1.0  0.03159  0.14618  0.99453  1.0000
  C   C12       1.0  0.96841  0.85382  0.00547  1.0000
  C   C13       1.0  0.96654  0.10331  0.07396  1.0000
  C   C14       1.0  0.03345  0.89668  0.92604  1.0000
  C   C15       1.0  0.06466  0.04203  0.92054  1.0000
  C   C16       1.0  0.93533  0.95796  0.07945  1.0000
  C   C17       1.0  0.49545  0.37011  0.20792  1.0000
  C   C18       1.0  0.50455  0.62989  0.79208  1.0000
  C   C19       1.0  0.52287  0.54646  0.14274  1.0000
  C   C20       1.0  0.47713  0.45354  0.85726  1.0000
  C   C21       1.0  0.38694  0.51893  0.18775  1.0000
  C   C22       1.0  0.61306  0.48107  0.81225  1.0000
  C   C23       1.0  0.25395  0.35096  0.29222  1.0000
  C   C24       1.0  0.74605  0.64904  0.70778  1.0000
  C   C25       1.0  0.32100  0.45333  0.40051  1.0000
  C   C26       1.0  0.67900  0.54667  0.59949  1.0000
  C   C27       1.0  0.47026  0.44922  0.44561  1.0000
  C   C28       1.0  0.52974  0.55078  0.55439  1.0000
  C   C29       1.0  0.70339  0.19061  0.87821  1.0000
  C   C30       1.0  0.29661  0.80939  0.12179  1.0000
  C   C31       1.0  0.49265  0.13626  0.95394  1.0000
  C   C32       1.0  0.50736  0.86374  0.04606  1.0000
  C   C33       1.0  0.43708  0.02623  0.86090  1.0000
  C   C34       1.0  0.56293  0.97378  0.13911  1.0000
  C   C35       1.0  0.57090  0.98320  0.71172  1.0000
  C   C36       1.0  0.42910  0.01680  0.28829  1.0000
  C   C37       1.0  0.53622  0.05916  0.64302  1.0000
  C   C38       1.0  0.46378  0.94084  0.35699  1.0000
  C   C39       1.0  0.52348  0.96713  0.53567  1.0000
  C   C40       1.0  0.47652  0.03288  0.46433  1.0000
  N   N1        1.0  0.58940  0.45303  0.15623  1.0000
  N   N2        1.0  0.41061  0.54697  0.84377  1.0000
  N   N3        1.0  0.37075  0.40618  0.22848  1.0000
  N   N4        1.0  0.62924  0.59382  0.77152  1.0000
  N   N5        1.0  0.65852  0.23742  0.96389  1.0000
  N   N6        1.0  0.34149  0.76258  0.03612  1.0000
  N   N7        1.0  0.57245  0.06187  0.81428  1.0000
  N   N8        1.0  0.42755  0.93813  0.18572  1.0000
  O   O1        1.0  0.81945  0.33365  0.23607  1.0000
  O   O2        1.0  0.18055  0.66635  0.76393  1.0000
  O   O3        1.0  0.00232  0.58858  0.27023  1.0000
  O   O4        1.0  0.99768  0.41143  0.72977  1.0000
  O   O5        1.0  0.05019  0.40243  0.05919  1.0000
  O   O6        1.0  0.94982  0.59757  0.94081  1.0000
  O   O7        1.0  0.10718  0.32356  0.90766  1.0000
  O   O8        1.0  0.89282  0.67644  0.09234  1.0000
