data_image0
_chemical_formula_structural       Ag2H26C28N4O4
_chemical_formula_sum              "Ag2 H26 C28 N4 O4"
_cell_length_a       8.75837
_cell_length_b       8.45368
_cell_length_c       10.2353
_cell_angle_alpha    93.5788
_cell_angle_beta     114.73
_cell_angle_gamma    110.213

_space_group_name_H-M_alt    "P 1"
_space_group_IT_number       1

loop_
  _space_group_symop_operation_xyz
  'x, y, z'

loop_
  _atom_site_type_symbol
  _atom_site_label
  _atom_site_symmetry_multiplicity
  _atom_site_fract_x
  _atom_site_fract_y
  _atom_site_fract_z
  _atom_site_occupancy
  Ag  Ag1       1.0  0.23098  0.67387  0.56804  1.0000
  Ag  Ag2       1.0  0.76902  0.32611  0.43197  1.0000
  H   H1        1.0  0.94092  0.86500  0.30135  1.0000
  H   H2        1.0  0.05908  0.13501  0.69865  1.0000
  H   H3        1.0  0.09951  0.08410  0.38905  1.0000
  H   H4        1.0  0.90050  0.91591  0.61094  1.0000
  H   H5        1.0  0.09562  0.92109  0.49308  1.0000
  H   H6        1.0  0.90439  0.07893  0.50692  1.0000
  H   H7        1.0  0.48409  0.00383  0.09633  1.0000
  H   H8        1.0  0.51592  0.99617  0.90368  1.0000
  H   H9        1.0  0.66753  0.82715  0.12653  1.0000
  H   H10       1.0  0.33245  0.17284  0.87348  1.0000
  H   H11       1.0  0.68512  0.63457  0.30028  1.0000
  H   H12       1.0  0.31488  0.36540  0.69972  1.0000
  H   H13       1.0  0.51703  0.61171  0.44960  1.0000
  H   H14       1.0  0.48294  0.38827  0.55039  1.0000
  H   H15       1.0  0.37396  0.19870  0.19641  1.0000
  H   H16       1.0  0.62607  0.80130  0.80359  1.0000
  H   H17       1.0  0.19239  0.17509  0.23985  1.0000
  H   H18       1.0  0.80763  0.82492  0.76016  1.0000
  H   H19       1.0  0.12258  0.15166  0.96553  1.0000
  H   H20       1.0  0.87743  0.84836  0.03448  1.0000
  H   H21       1.0  0.12927  0.94471  0.96160  1.0000
  H   H22       1.0  0.87074  0.05528  0.03840  1.0000
  H   H23       1.0  0.26846  0.48793  0.97789  1.0000
  H   H24       1.0  0.73154  0.51205  0.02211  1.0000
  H   H25       1.0  0.20988  0.39996  0.18746  1.0000
  H   H26       1.0  0.79010  0.60002  0.81253  1.0000
  C   C1        1.0  0.08204  0.94883  0.38650  1.0000
  C   C2        1.0  0.91797  0.05119  0.61350  1.0000
  C   C3        1.0  0.21531  0.90808  0.35435  1.0000
  C   C4        1.0  0.78469  0.09193  0.64565  1.0000
  C   C5        1.0  0.39190  0.89818  0.25123  1.0000
  C   C6        1.0  0.60810  0.10183  0.74876  1.0000
  C   C7        1.0  0.48928  0.91721  0.17089  1.0000
  C   C8        1.0  0.51071  0.08278  0.82911  1.0000
  C   C9        1.0  0.59258  0.81868  0.18997  1.0000
  C   C10       1.0  0.40742  0.18131  0.81004  1.0000
  C   C11       1.0  0.60244  0.70922  0.28877  1.0000
  C   C12       1.0  0.39758  0.29077  0.71124  1.0000
  C   C13       1.0  0.50860  0.69488  0.37191  1.0000
  C   C14       1.0  0.49138  0.30511  0.62808  1.0000
  C   C15       1.0  0.40068  0.78927  0.35109  1.0000
  C   C16       1.0  0.59931  0.21073  0.64889  1.0000
  C   C17       1.0  0.23959  0.10605  0.18094  1.0000
  C   C18       1.0  0.76043  0.89395  0.81907  1.0000
  C   C19       1.0  0.10032  0.03966  0.01532  1.0000
  C   C20       1.0  0.89966  0.96033  0.98467  1.0000
  C   C21       1.0  0.06483  0.60744  0.75672  1.0000
  C   C22       1.0  0.93516  0.39253  0.24327  1.0000
  C   C23       1.0  0.03272  0.55088  0.88262  1.0000
  C   C24       1.0  0.96725  0.44909  0.11737  1.0000
  C   C25       1.0  0.15003  0.49114  0.98717  1.0000
  C   C26       1.0  0.84999  0.50890  0.01284  1.0000
  C   C27       1.0  0.11704  0.44155  0.10312  1.0000
  C   C28       1.0  0.88295  0.55845  0.89688  1.0000
  N   N1        1.0  0.28924  0.79872  0.41318  1.0000
  N   N2        1.0  0.71075  0.20130  0.58681  1.0000
  N   N3        1.0  0.27431  0.97149  0.25615  1.0000
  N   N4        1.0  0.72570  0.02853  0.74386  1.0000
  O   O1        1.0  0.97006  0.67873  0.67473  1.0000
  O   O2        1.0  0.02995  0.32126  0.32527  1.0000
  O   O3        1.0  0.19281  0.57663  0.74175  1.0000
  O   O4        1.0  0.80721  0.42337  0.25827  1.0000
