data_image0
_chemical_formula_structural       Zn2H24C30N4Cl6O8
_chemical_formula_sum              "Zn2 H24 C30 N4 Cl6 O8"
_cell_length_a       8.22275
_cell_length_b       10.4888
_cell_length_c       11.0908
_cell_angle_alpha    71.2846
_cell_angle_beta     78.4614
_cell_angle_gamma    73.4662

_space_group_name_H-M_alt    "P 1"
_space_group_IT_number       1

loop_
  _space_group_symop_operation_xyz
  'x, y, z'

loop_
  _atom_site_type_symbol
  _atom_site_label
  _atom_site_symmetry_multiplicity
  _atom_site_fract_x
  _atom_site_fract_y
  _atom_site_fract_z
  _atom_site_occupancy
  Zn  Zn1       1.0  0.37839  0.90157  0.90494  1.0000
  Zn  Zn2       1.0  0.62162  0.09843  0.09506  1.0000
  H   H1        1.0  0.88113  0.47009  0.64227  1.0000
  H   H2        1.0  0.11887  0.52990  0.35775  1.0000
  H   H3        1.0  0.42227  0.60135  0.03325  1.0000
  H   H4        1.0  0.57773  0.39865  0.96674  1.0000
  H   H5        1.0  0.27609  0.41392  0.07073  1.0000
  H   H6        1.0  0.72390  0.58608  0.92925  1.0000
  H   H7        1.0  0.84922  0.72947  0.90289  1.0000
  H   H8        1.0  0.15078  0.27055  0.09710  1.0000
  H   H9        1.0  0.01914  0.90204  0.86819  1.0000
  H   H10       1.0  0.98086  0.09797  0.13181  1.0000
  H   H11       1.0  0.65875  0.98611  0.68658  1.0000
  H   H12       1.0  0.34125  0.01390  0.31340  1.0000
  H   H13       1.0  0.81671  0.03697  0.50627  1.0000
  H   H14       1.0  0.18329  0.96302  0.49372  1.0000
  H   H15       1.0  0.74636  0.01687  0.37236  1.0000
  H   H16       1.0  0.25364  0.98311  0.62764  1.0000
  H   H17       1.0  0.92250  0.89220  0.44412  1.0000
  H   H18       1.0  0.07749  0.10779  0.55588  1.0000
  H   H19       1.0  0.53299  0.74182  0.57928  1.0000
  H   H20       1.0  0.46699  0.25817  0.42073  1.0000
  H   H21       1.0  0.74939  0.69083  0.50975  1.0000
  H   H22       1.0  0.25060  0.30917  0.49026  1.0000
  H   H23       1.0  0.60051  0.82321  0.41464  1.0000
  H   H24       1.0  0.39949  0.17678  0.58537  1.0000
  C   C1        1.0  0.29053  0.25773  0.80539  1.0000
  C   C2        1.0  0.70948  0.74227  0.19461  1.0000
  C   C3        1.0  0.16427  0.18693  0.80735  1.0000
  C   C4        1.0  0.83575  0.81307  0.19264  1.0000
  C   C5        1.0  0.01492  0.27037  0.74856  1.0000
  C   C6        1.0  0.98509  0.72962  0.25144  1.0000
  C   C7        1.0  0.99589  0.41083  0.68749  1.0000
  C   C8        1.0  0.00412  0.58916  0.31251  1.0000
  C   C9        1.0  0.12502  0.47589  0.68180  1.0000
  C   C10       1.0  0.87499  0.52411  0.31820  1.0000
  C   C11       1.0  0.27217  0.39905  0.74089  1.0000
  C   C12       1.0  0.72784  0.60095  0.25911  1.0000
  C   C13       1.0  0.43745  0.17461  0.88027  1.0000
  C   C14       1.0  0.56257  0.82539  0.11972  1.0000
  C   C15       1.0  0.29658  0.62370  0.00305  1.0000
  C   C16       1.0  0.70340  0.37631  0.99695  1.0000
  C   C17       1.0  0.21157  0.52008  0.02594  1.0000
  C   C18       1.0  0.78842  0.47992  0.97407  1.0000
  C   C19       1.0  0.04754  0.55360  0.98877  1.0000
  C   C20       1.0  0.95244  0.44641  0.01123  1.0000
  C   C21       1.0  0.97765  0.69408  0.93077  1.0000
  C   C22       1.0  0.02235  0.30593  0.06922  1.0000
  C   C23       1.0  0.07104  0.79198  0.91062  1.0000
  C   C24       1.0  0.92896  0.20802  0.08937  1.0000
  C   C25       1.0  0.61846  0.90450  0.66574  1.0000
  C   C26       1.0  0.38154  0.09550  0.33427  1.0000
  C   C27       1.0  0.79872  0.96159  0.46382  1.0000
  C   C28       1.0  0.20128  0.03840  0.53618  1.0000
  C   C29       1.0  0.63801  0.77833  0.51188  1.0000
  C   C30       1.0  0.36198  0.22167  0.48813  1.0000
  N   N1        1.0  0.22918  0.75751  0.94526  1.0000
  N   N2        1.0  0.77081  0.24250  0.05475  1.0000
  N   N3        1.0  0.68211  0.88244  0.55195  1.0000
  N   N4        1.0  0.31788  0.11756  0.44806  1.0000
  Cl  Cl1       1.0  0.85418  0.19098  0.75545  1.0000
  Cl  Cl2       1.0  0.14583  0.80901  0.24457  1.0000
  Cl  Cl3       1.0  0.09892  0.65052  0.60241  1.0000
  Cl  Cl4       1.0  0.90107  0.34948  0.39760  1.0000
  Cl  Cl5       1.0  0.43473  0.47873  0.72855  1.0000
  Cl  Cl6       1.0  0.56529  0.52127  0.27143  1.0000
  O   O1        1.0  0.52612  0.06256  0.85748  1.0000
  O   O2        1.0  0.47390  0.93743  0.14252  1.0000
  O   O3        1.0  0.17722  0.05496  0.86106  1.0000
  O   O4        1.0  0.82279  0.94504  0.13893  1.0000
  O   O5        1.0  0.45872  0.21991  0.96878  1.0000
  O   O6        1.0  0.54128  0.78009  0.03121  1.0000
  O   O7        1.0  0.51634  0.83961  0.74530  1.0000
  O   O8        1.0  0.48364  0.16040  0.25470  1.0000
