data_image0
_chemical_formula_structural       Zn2H32C50N6Cl6O6
_chemical_formula_sum              "Zn2 H32 C50 N6 Cl6 O6"
_cell_length_a       9.18706
_cell_length_b       10.5484
_cell_length_c       13.8477
_cell_angle_alpha    80.4678
_cell_angle_beta     78.5294
_cell_angle_gamma    65.839

_space_group_name_H-M_alt    "P 1"
_space_group_IT_number       1

loop_
  _space_group_symop_operation_xyz
  'x, y, z'

loop_
  _atom_site_type_symbol
  _atom_site_label
  _atom_site_symmetry_multiplicity
  _atom_site_fract_x
  _atom_site_fract_y
  _atom_site_fract_z
  _atom_site_occupancy
  Zn  Zn1       1.0  0.30149  0.11492  0.40291  1.0000
  Zn  Zn2       1.0  0.69851  0.88508  0.59709  1.0000
  H   H1        1.0  0.46090  0.58120  0.18885  1.0000
  H   H2        1.0  0.53910  0.41880  0.81115  1.0000
  H   H3        1.0  0.59019  0.12190  0.26128  1.0000
  H   H4        1.0  0.40981  0.87810  0.73872  1.0000
  H   H5        1.0  0.65549  0.26497  0.10957  1.0000
  H   H6        1.0  0.34451  0.73503  0.89044  1.0000
  H   H7        1.0  0.14073  0.50627  0.12174  1.0000
  H   H8        1.0  0.85927  0.49373  0.87826  1.0000
  H   H9        1.0  0.09937  0.35022  0.26961  1.0000
  H   H10       1.0  0.90063  0.64978  0.73039  1.0000
  H   H11       1.0  0.31730  0.58126  0.99666  1.0000
  H   H12       1.0  0.68270  0.41873  0.00334  1.0000
  H   H13       1.0  0.46826  0.38404  0.46333  1.0000
  H   H14       1.0  0.53174  0.61596  0.53667  1.0000
  H   H15       1.0  0.77477  0.51348  0.51783  1.0000
  H   H16       1.0  0.22523  0.48653  0.48216  1.0000
  H   H17       1.0  0.06889  0.37139  0.48977  1.0000
  H   H18       1.0  0.93111  0.62861  0.51023  1.0000
  H   H19       1.0  0.00431  0.05669  0.38431  1.0000
  H   H20       1.0  0.99569  0.94331  0.61568  1.0000
  H   H21       1.0  0.70322  0.18172  0.41268  1.0000
  H   H22       1.0  0.29678  0.81828  0.58732  1.0000
  H   H23       1.0  0.97289  0.21028  0.89036  1.0000
  H   H24       1.0  0.02711  0.78972  0.10964  1.0000
  H   H25       1.0  0.26982  0.10467  0.87753  1.0000
  H   H26       1.0  0.73018  0.89533  0.12247  1.0000
  H   H27       1.0  0.21003  0.04667  0.19789  1.0000
  H   H28       1.0  0.78996  0.95333  0.80211  1.0000
  H   H29       1.0  0.91444  0.15601  0.19661  1.0000
  H   H30       1.0  0.08556  0.84398  0.80339  1.0000
  H   H31       1.0  0.47718  0.96003  0.11260  1.0000
  H   H32       1.0  0.52282  0.03997  0.88740  1.0000
  C   C1        1.0  0.57309  0.79255  0.34521  1.0000
  C   C2        1.0  0.42691  0.20745  0.65479  1.0000
  C   C3        1.0  0.69379  0.68427  0.29412  1.0000
  C   C4        1.0  0.30622  0.31573  0.70588  1.0000
  C   C5        1.0  0.65459  0.60848  0.23666  1.0000
  C   C6        1.0  0.34541  0.39152  0.76334  1.0000
  C   C7        1.0  0.49258  0.64081  0.23205  1.0000
  C   C8        1.0  0.50742  0.35919  0.76795  1.0000
  C   C9        1.0  0.37251  0.75023  0.28082  1.0000
  C   C10       1.0  0.62749  0.24977  0.71918  1.0000
  C   C11       1.0  0.40724  0.83510  0.33561  1.0000
  C   C12       1.0  0.59276  0.16490  0.66439  1.0000
  C   C13       1.0  0.61222  0.86490  0.41515  1.0000
  C   C14       1.0  0.38778  0.13510  0.58485  1.0000
  C   C15       1.0  0.49581  0.20875  0.22689  1.0000
  C   C16       1.0  0.50419  0.79125  0.77311  1.0000
  C   C17       1.0  0.53000  0.28996  0.14345  1.0000
  C   C18       1.0  0.47000  0.71004  0.85655  1.0000
  C   C19       1.0  0.40237  0.40285  0.10393  1.0000
  C   C20       1.0  0.59763  0.59715  0.89607  1.0000
  C   C21       1.0  0.24470  0.42237  0.14977  1.0000
  C   C22       1.0  0.75530  0.57763  0.85023  1.0000
  C   C23       1.0  0.22068  0.33559  0.23279  1.0000
  C   C24       1.0  0.77932  0.66441  0.76722  1.0000
  C   C25       1.0  0.42688  0.50066  0.02165  1.0000
  C   C26       1.0  0.57312  0.49934  0.97835  1.0000
  C   C27       1.0  0.53812  0.43679  0.48193  1.0000
  C   C28       1.0  0.46188  0.56321  0.51807  1.0000
  C   C29       1.0  0.71174  0.36099  0.46629  1.0000
  C   C30       1.0  0.28826  0.63901  0.53371  1.0000
  C   C31       1.0  0.81904  0.41262  0.48852  1.0000
  C   C32       1.0  0.18096  0.58738  0.51148  1.0000
  C   C33       1.0  0.98296  0.33538  0.47187  1.0000
  C   C34       1.0  0.01704  0.66462  0.52812  1.0000
  C   C35       1.0  0.94656  0.15872  0.41320  1.0000
  C   C36       1.0  0.05343  0.84128  0.58680  1.0000
  C   C37       1.0  0.78005  0.22957  0.42852  1.0000
  C   C38       1.0  0.21995  0.77043  0.57148  1.0000
  C   C39       1.0  0.02969  0.17410  0.95748  1.0000
  C   C40       1.0  0.97030  0.82590  0.04252  1.0000
  C   C41       1.0  0.19693  0.11452  0.95049  1.0000
  C   C42       1.0  0.80307  0.88548  0.04951  1.0000
  C   C43       1.0  0.26862  0.06718  0.03760  1.0000
  C   C44       1.0  0.73138  0.93282  0.96240  1.0000
  C   C45       1.0  0.16292  0.08249  0.12760  1.0000
  C   C46       1.0  0.83708  0.91751  0.87240  1.0000
  C   C47       1.0  0.99708  0.14345  0.12681  1.0000
  C   C48       1.0  0.00292  0.85655  0.87319  1.0000
  C   C49       1.0  0.44214  0.00392  0.03944  1.0000
  C   C50       1.0  0.55786  0.99608  0.96056  1.0000
  N   N1        1.0  0.34373  0.23141  0.27240  1.0000
  N   N2        1.0  0.65627  0.76859  0.72760  1.0000
  N   N3        1.0  0.04769  0.21063  0.43400  1.0000
  N   N4        1.0  0.95231  0.78937  0.56600  1.0000
  N   N5        1.0  0.92873  0.19028  0.04379  1.0000
  N   N6        1.0  0.07127  0.80972  0.95621  1.0000
  Cl  Cl1       1.0  0.17257  0.78526  0.27640  1.0000
  Cl  Cl2       1.0  0.82743  0.21473  0.72359  1.0000
  Cl  Cl3       1.0  0.80188  0.47580  0.17154  1.0000
  Cl  Cl4       1.0  0.19812  0.52420  0.82846  1.0000
  Cl  Cl5       1.0  0.89383  0.64862  0.29864  1.0000
  Cl  Cl6       1.0  0.10617  0.35138  0.70136  1.0000
  O   O1        1.0  0.58068  0.99392  0.39789  1.0000
  O   O2        1.0  0.41932  0.00608  0.60211  1.0000
  O   O3        1.0  0.67044  0.78878  0.49165  1.0000
  O   O4        1.0  0.32956  0.21122  0.50835  1.0000
  O   O5        1.0  0.29123  0.94148  0.37642  1.0000
  O   O6        1.0  0.70877  0.05852  0.62358  1.0000
