data_image0
_chemical_formula_structural       Zn2H18C34N4Cl6O6
_chemical_formula_sum              "Zn2 H18 C34 N4 Cl6 O6"
_cell_length_a       8.23444
_cell_length_b       10.6989
_cell_length_c       12.3974
_cell_angle_alpha    73.688
_cell_angle_beta     73.7254
_cell_angle_gamma    75.7982

_space_group_name_H-M_alt    "P 1"
_space_group_IT_number       1

loop_
  _space_group_symop_operation_xyz
  'x, y, z'

loop_
  _atom_site_type_symbol
  _atom_site_label
  _atom_site_symmetry_multiplicity
  _atom_site_fract_x
  _atom_site_fract_y
  _atom_site_fract_z
  _atom_site_occupancy
  Zn  Zn1       1.0  0.67113  0.64761  0.40435  1.0000
  Zn  Zn2       1.0  0.32887  0.35239  0.59565  1.0000
  H   H1        1.0  0.26567  0.22881  0.18532  1.0000
  H   H2        1.0  0.73433  0.77118  0.81468  1.0000
  H   H3        1.0  0.43075  0.67293  0.25440  1.0000
  H   H4        1.0  0.56925  0.32707  0.74560  1.0000
  H   H5        1.0  0.34194  0.82283  0.08072  1.0000
  H   H6        1.0  0.65807  0.17717  0.91928  1.0000
  H   H7        1.0  0.72259  0.05140  0.06023  1.0000
  H   H8        1.0  0.27742  0.94860  0.93976  1.0000
  H   H9        1.0  0.79285  0.89277  0.23319  1.0000
  H   H10       1.0  0.20715  0.10723  0.76681  1.0000
  H   H11       1.0  0.04316  0.67026  0.38800  1.0000
  H   H12       1.0  0.95684  0.32974  0.61199  1.0000
  H   H13       1.0  0.19525  0.82267  0.42465  1.0000
  H   H14       1.0  0.80474  0.17733  0.57535  1.0000
  H   H15       1.0  0.69486  0.04720  0.54912  1.0000
  H   H16       1.0  0.30513  0.95279  0.45088  1.0000
  H   H17       1.0  0.56701  0.88050  0.51253  1.0000
  H   H18       1.0  0.43299  0.11950  0.48747  1.0000
  C   C1        1.0  0.79039  0.34901  0.33278  1.0000
  C   C2        1.0  0.20961  0.65098  0.66722  1.0000
  C   C3        1.0  0.83202  0.24514  0.27633  1.0000
  C   C4        1.0  0.16798  0.75485  0.72367  1.0000
  C   C5        1.0  0.00255  0.20129  0.22313  1.0000
  C   C6        1.0  0.99745  0.79871  0.77687  1.0000
  C   C7        1.0  0.13236  0.26311  0.22552  1.0000
  C   C8        1.0  0.86764  0.73689  0.77449  1.0000
  C   C9        1.0  0.09120  0.36941  0.27761  1.0000
  C   C10       1.0  0.90880  0.63058  0.72239  1.0000
  C   C11       1.0  0.91852  0.41918  0.33125  1.0000
  C   C12       1.0  0.08148  0.58082  0.66876  1.0000
  C   C13       1.0  0.61249  0.38740  0.40158  1.0000
  C   C14       1.0  0.38751  0.61260  0.59842  1.0000
  C   C15       1.0  0.49057  0.75892  0.20805  1.0000
  C   C16       1.0  0.50944  0.24109  0.79195  1.0000
  C   C17       1.0  0.44300  0.84386  0.11010  1.0000
  C   C18       1.0  0.55700  0.15615  0.88990  1.0000
  C   C19       1.0  0.52394  0.95333  0.05214  1.0000
  C   C20       1.0  0.47607  0.04667  0.94785  1.0000
  C   C21       1.0  0.65270  0.96965  0.09832  1.0000
  C   C22       1.0  0.34731  0.03035  0.90168  1.0000
  C   C23       1.0  0.69369  0.88032  0.19649  1.0000
  C   C24       1.0  0.30632  0.11968  0.80351  1.0000
  C   C25       1.0  0.97245  0.75644  0.42252  1.0000
  C   C26       1.0  0.02755  0.24357  0.57748  1.0000
  C   C27       1.0  0.05532  0.84312  0.44324  1.0000
  C   C28       1.0  0.94468  0.15689  0.55675  1.0000
  C   C29       1.0  0.95885  0.95198  0.48919  1.0000
  C   C30       1.0  0.04115  0.04802  0.51081  1.0000
  C   C31       1.0  0.77905  0.96500  0.51450  1.0000
  C   C32       1.0  0.22094  0.03499  0.48550  1.0000
  C   C33       1.0  0.70583  0.87416  0.49209  1.0000
  C   C34       1.0  0.29417  0.12584  0.50791  1.0000
  N   N1        1.0  0.61425  0.77642  0.25135  1.0000
  N   N2        1.0  0.38576  0.22358  0.74865  1.0000
  N   N3        1.0  0.79971  0.77200  0.44559  1.0000
  N   N4        1.0  0.20029  0.22800  0.55441  1.0000
  Cl  Cl1       1.0  0.66969  0.17471  0.26685  1.0000
  Cl  Cl2       1.0  0.33031  0.82529  0.73316  1.0000
  Cl  Cl3       1.0  0.05583  0.07218  0.15361  1.0000
  Cl  Cl4       1.0  0.94417  0.92781  0.84639  1.0000
  Cl  Cl5       1.0  0.25268  0.44519  0.27967  1.0000
  Cl  Cl6       1.0  0.74731  0.55481  0.72034  1.0000
  O   O1        1.0  0.53608  0.50622  0.37916  1.0000
  O   O2        1.0  0.46392  0.49378  0.62084  1.0000
  O   O3        1.0  0.55075  0.29647  0.48411  1.0000
  O   O4        1.0  0.44925  0.70354  0.51589  1.0000
  O   O5        1.0  0.88641  0.51950  0.37870  1.0000
  O   O6        1.0  0.11359  0.48050  0.62130  1.0000
