data_image0
_chemical_formula_structural       Na4Zn6H32C16S4O40
_chemical_formula_sum              "Na4 Zn6 H32 C16 S4 O40"
_cell_length_a       6.1912
_cell_length_b       11.0137
_cell_length_c       15.089
_cell_angle_alpha    94.697
_cell_angle_beta     90
_cell_angle_gamma    90

_space_group_name_H-M_alt    "P 1"
_space_group_IT_number       1

loop_
  _space_group_symop_operation_xyz
  'x, y, z'

loop_
  _atom_site_type_symbol
  _atom_site_label
  _atom_site_symmetry_multiplicity
  _atom_site_fract_x
  _atom_site_fract_y
  _atom_site_fract_z
  _atom_site_occupancy
  Na  Na1       1.0  0.72838  0.48785  0.31238  1.0000
  Na  Na2       1.0  0.22838  0.01214  0.18762  1.0000
  Na  Na3       1.0  0.27162  0.51215  0.68762  1.0000
  Na  Na4       1.0  0.77163  0.98786  0.81238  1.0000
  Zn  Zn1       1.0  1.00000  0.50000  1.00000  1.0000
  Zn  Zn2       1.0  0.50000  0.00000  0.50000  1.0000
  Zn  Zn3       1.0  0.47680  0.29453  0.79768  1.0000
  Zn  Zn4       1.0  0.97680  0.20547  0.70232  1.0000
  Zn  Zn5       1.0  0.52320  0.70547  0.20232  1.0000
  Zn  Zn6       1.0  0.02320  0.79453  0.29768  1.0000
  H   H1        1.0  0.89837  0.64020  0.18537  1.0000
  H   H2        1.0  0.39837  0.85980  0.31463  1.0000
  H   H3        1.0  0.10164  0.35980  0.81463  1.0000
  H   H4        1.0  0.60164  0.14020  0.68537  1.0000
  H   H5        1.0  0.08157  0.57296  0.41308  1.0000
  H   H6        1.0  0.58157  0.92704  0.08692  1.0000
  H   H7        1.0  0.91844  0.42704  0.58692  1.0000
  H   H8        1.0  0.41844  0.07296  0.91308  1.0000
  H   H9        1.0  0.21632  0.45852  0.37745  1.0000
  H   H10       1.0  0.71631  0.04148  0.12255  1.0000
  H   H11       1.0  0.78369  0.54148  0.62255  1.0000
  H   H12       1.0  0.28369  0.95852  0.87745  1.0000
  H   H13       1.0  0.53625  0.61706  0.48598  1.0000
  H   H14       1.0  0.03625  0.88294  0.01402  1.0000
  H   H15       1.0  0.46375  0.38294  0.51402  1.0000
  H   H16       1.0  0.96375  0.11706  0.98598  1.0000
  H   H17       1.0  0.70130  0.68746  0.43517  1.0000
  H   H18       1.0  0.20130  0.81254  0.06483  1.0000
  H   H19       1.0  0.29871  0.31254  0.56483  1.0000
  H   H20       1.0  0.79871  0.18746  0.93517  1.0000
  H   H21       1.0  0.30985  0.31481  0.21011  1.0000
  H   H22       1.0  0.80985  0.18519  0.28989  1.0000
  H   H23       1.0  0.69015  0.68519  0.78989  1.0000
  H   H24       1.0  0.19015  0.81481  0.71011  1.0000
  H   H25       1.0  0.57385  0.32959  0.09257  1.0000
  H   H26       1.0  0.07386  0.17041  0.40743  1.0000
  H   H27       1.0  0.42614  0.67041  0.90743  1.0000
  H   H28       1.0  0.92614  0.82959  0.59257  1.0000
  H   H29       1.0  0.42164  0.19595  0.07934  1.0000
  H   H30       1.0  0.92164  0.30404  0.42066  1.0000
  H   H31       1.0  0.57835  0.80404  0.92067  1.0000
  H   H32       1.0  0.07835  0.69596  0.57934  1.0000
  C   C1        1.0  0.27244  0.48966  0.16100  1.0000
  C   C2        1.0  0.77244  0.01034  0.33900  1.0000
  C   C3        1.0  0.72756  0.51034  0.83900  1.0000
  C   C4        1.0  0.22755  0.98966  0.66100  1.0000
  C   C5        1.0  0.25872  0.35066  0.14759  1.0000
  C   C6        1.0  0.75871  0.14934  0.35241  1.0000
  C   C7        1.0  0.74128  0.64934  0.85241  1.0000
  C   C8        1.0  0.24128  0.85067  0.64759  1.0000
  C   C9        1.0  0.41127  0.29490  0.07572  1.0000
  C   C10       1.0  0.91127  0.20510  0.42428  1.0000
  C   C11       1.0  0.58873  0.70510  0.92428  1.0000
  C   C12       1.0  0.08873  0.79490  0.57572  1.0000
  C   C13       1.0  0.38296  0.32123  0.97992  1.0000
  C   C14       1.0  0.88296  0.17876  0.52008  1.0000
  C   C15       1.0  0.61704  0.67876  0.02008  1.0000
  C   C16       1.0  0.11704  0.82124  0.47992  1.0000
  S   S1        1.0  0.98728  0.29315  0.13355  1.0000
  S   S2        1.0  0.48728  0.20685  0.36645  1.0000
  S   S3        1.0  0.01271  0.70685  0.86645  1.0000
  S   S4        1.0  0.51272  0.79315  0.63355  1.0000
  O   O1        1.0  0.14556  0.55805  0.12168  1.0000
  O   O2        1.0  0.64556  0.94195  0.37832  1.0000
  O   O3        1.0  0.85444  0.44195  0.87832  1.0000
  O   O4        1.0  0.35444  0.05805  0.62168  1.0000
  O   O5        1.0  0.42379  0.53049  0.21242  1.0000
  O   O6        1.0  0.92379  0.96951  0.28758  1.0000
  O   O7        1.0  0.57621  0.46951  0.78758  1.0000
  O   O8        1.0  0.07621  0.03048  0.71242  1.0000
  O   O9        1.0  0.28263  0.41208  0.95505  1.0000
  O   O10       1.0  0.78263  0.08792  0.54495  1.0000
  O   O11       1.0  0.71737  0.58792  0.04495  1.0000
  O   O12       1.0  0.21737  0.91208  0.45506  1.0000
  O   O13       1.0  0.48428  0.24666  0.92371  1.0000
  O   O14       1.0  0.98427  0.25334  0.57629  1.0000
  O   O15       1.0  0.51573  0.75334  0.07629  1.0000
  O   O16       1.0  0.01573  0.74667  0.42371  1.0000
  O   O17       1.0  0.89998  0.33926  0.05106  1.0000
  O   O18       1.0  0.39998  0.16073  0.44894  1.0000
  O   O19       1.0  0.10002  0.66073  0.94894  1.0000
  O   O20       1.0  0.60002  0.83927  0.55106  1.0000
  O   O21       1.0  0.86691  0.33739  0.21289  1.0000
  O   O22       1.0  0.36691  0.16261  0.28711  1.0000
  O   O23       1.0  0.13308  0.66261  0.78711  1.0000
  O   O24       1.0  0.63309  0.83739  0.71289  1.0000
  O   O25       1.0  0.00539  0.15920  0.12230  1.0000
  O   O26       1.0  0.50539  0.34080  0.37770  1.0000
  O   O27       1.0  0.99461  0.84080  0.87770  1.0000
  O   O28       1.0  0.49461  0.65920  0.62230  1.0000
  O   O29       1.0  0.82444  0.67763  0.23833  1.0000
  O   O30       1.0  0.32444  0.82237  0.26168  1.0000
  O   O31       1.0  0.17556  0.32236  0.76167  1.0000
  O   O32       1.0  0.67556  0.17764  0.73832  1.0000
  O   O33       1.0  0.06924  0.48936  0.38562  1.0000
  O   O34       1.0  0.56924  0.01064  0.11438  1.0000
  O   O35       1.0  0.93076  0.51065  0.61438  1.0000
  O   O36       1.0  0.43076  0.98936  0.88562  1.0000
  O   O37       1.0  0.59309  0.62262  0.42598  1.0000
  O   O38       1.0  0.09309  0.87738  0.07402  1.0000
  O   O39       1.0  0.40691  0.37738  0.57402  1.0000
  O   O40       1.0  0.90692  0.12262  0.92598  1.0000
