data_image0
_chemical_formula_structural       Cd2H36C48S4N12Cl4
_chemical_formula_sum              "Cd2 H36 C48 S4 N12 Cl4"
_cell_length_a       8.07995
_cell_length_b       9.73134
_cell_length_c       15.7097
_cell_angle_alpha    90
_cell_angle_beta     104.639
_cell_angle_gamma    90

_space_group_name_H-M_alt    "P 1"
_space_group_IT_number       1

loop_
  _space_group_symop_operation_xyz
  'x, y, z'

loop_
  _atom_site_type_symbol
  _atom_site_label
  _atom_site_symmetry_multiplicity
  _atom_site_fract_x
  _atom_site_fract_y
  _atom_site_fract_z
  _atom_site_occupancy
  Cd  Cd1       1.0  1.00000  0.50000  0.00000  1.0000
  Cd  Cd2       1.0  0.00000  0.00000  0.50000  1.0000
  H   H1        1.0  0.65062  0.28411  0.00429  1.0000
  H   H2        1.0  0.34939  0.78411  0.49571  1.0000
  H   H3        1.0  0.34939  0.71589  0.99572  1.0000
  H   H4        1.0  0.65061  0.21589  0.50429  1.0000
  H   H5        1.0  0.85916  0.18199  0.27242  1.0000
  H   H6        1.0  0.14084  0.68199  0.22758  1.0000
  H   H7        1.0  0.14084  0.81801  0.72758  1.0000
  H   H8        1.0  0.85916  0.31801  0.77242  1.0000
  H   H9        1.0  0.08688  0.35474  0.21216  1.0000
  H   H10       1.0  0.91312  0.85474  0.28784  1.0000
  H   H11       1.0  0.91312  0.64525  0.78784  1.0000
  H   H12       1.0  0.08688  0.14526  0.71216  1.0000
  H   H13       1.0  0.40248  0.31048  0.16203  1.0000
  H   H14       1.0  0.59752  0.81048  0.33797  1.0000
  H   H15       1.0  0.59752  0.68952  0.83797  1.0000
  H   H16       1.0  0.40248  0.18953  0.66203  1.0000
  H   H17       1.0  0.33445  0.84526  0.14402  1.0000
  H   H18       1.0  0.66555  0.34526  0.35598  1.0000
  H   H19       1.0  0.66556  0.15473  0.85599  1.0000
  H   H20       1.0  0.33445  0.65474  0.64402  1.0000
  H   H21       1.0  0.52154  0.70889  0.14275  1.0000
  H   H22       1.0  0.47846  0.20889  0.35725  1.0000
  H   H23       1.0  0.47845  0.29111  0.85725  1.0000
  H   H24       1.0  0.52154  0.79111  0.64275  1.0000
  H   H25       1.0  0.69684  0.53981  0.09202  1.0000
  H   H26       1.0  0.30316  0.03981  0.40798  1.0000
  H   H27       1.0  0.30315  0.46018  0.90798  1.0000
  H   H28       1.0  0.69684  0.96019  0.59202  1.0000
  H   H29       1.0  0.01682  0.83807  0.03431  1.0000
  H   H30       1.0  0.98318  0.33807  0.46569  1.0000
  H   H31       1.0  0.98317  0.16193  0.96569  1.0000
  H   H32       1.0  0.01682  0.66194  0.53431  1.0000
  H   H33       1.0  0.84901  0.02524  0.07783  1.0000
  H   H34       1.0  0.15099  0.52524  0.42217  1.0000
  H   H35       1.0  0.15098  0.97476  0.92217  1.0000
  H   H36       1.0  0.84901  0.47476  0.57783  1.0000
  C   C1        1.0  0.74151  0.27935  0.06818  1.0000
  C   C2        1.0  0.25849  0.77935  0.43182  1.0000
  C   C3        1.0  0.25849  0.72065  0.93182  1.0000
  C   C4        1.0  0.74151  0.22065  0.56818  1.0000
  C   C5        1.0  0.85413  0.22972  0.20924  1.0000
  C   C6        1.0  0.14587  0.72972  0.29077  1.0000
  C   C7        1.0  0.14587  0.77028  0.79077  1.0000
  C   C8        1.0  0.85413  0.27028  0.70923  1.0000
  C   C9        1.0  0.96367  0.31250  0.17805  1.0000
  C   C10       1.0  0.03633  0.81250  0.32195  1.0000
  C   C11       1.0  0.03633  0.68749  0.82195  1.0000
  C   C12       1.0  0.96367  0.18750  0.67805  1.0000
  C   C13       1.0  0.56270  0.13450  0.14129  1.0000
  C   C14       1.0  0.43730  0.63450  0.35871  1.0000
  C   C15       1.0  0.43730  0.86549  0.85871  1.0000
  C   C16       1.0  0.56270  0.36550  0.64129  1.0000
  C   C17       1.0  0.42199  0.20023  0.15618  1.0000
  C   C18       1.0  0.57801  0.70023  0.34382  1.0000
  C   C19       1.0  0.57802  0.79977  0.84382  1.0000
  C   C20       1.0  0.42199  0.29977  0.65618  1.0000
  C   C21       1.0  0.38666  0.94854  0.14585  1.0000
  C   C22       1.0  0.61334  0.44854  0.35415  1.0000
  C   C23       1.0  0.61334  0.05146  0.85415  1.0000
  C   C24       1.0  0.38666  0.55147  0.64585  1.0000
  C   C25       1.0  0.54476  0.98744  0.13393  1.0000
  C   C26       1.0  0.45524  0.48743  0.36607  1.0000
  C   C27       1.0  0.45524  0.01256  0.86607  1.0000
  C   C28       1.0  0.54476  0.51257  0.63393  1.0000
  C   C29       1.0  0.66379  0.88667  0.11308  1.0000
  C   C30       1.0  0.33621  0.38667  0.38692  1.0000
  C   C31       1.0  0.33621  0.11333  0.88692  1.0000
  C   C32       1.0  0.66379  0.61333  0.61308  1.0000
  C   C33       1.0  0.62877  0.74577  0.11873  1.0000
  C   C34       1.0  0.37123  0.24577  0.38127  1.0000
  C   C35       1.0  0.37123  0.25422  0.88127  1.0000
  C   C36       1.0  0.62877  0.75423  0.61873  1.0000
  C   C37       1.0  0.72803  0.64852  0.09067  1.0000
  C   C38       1.0  0.27197  0.14852  0.40933  1.0000
  C   C39       1.0  0.27197  0.35148  0.90933  1.0000
  C   C40       1.0  0.72803  0.85148  0.59067  1.0000
  C   C41       1.0  0.90442  0.81464  0.05829  1.0000
  C   C42       1.0  0.09558  0.31463  0.44171  1.0000
  C   C43       1.0  0.09558  0.18536  0.94171  1.0000
  C   C44       1.0  0.90441  0.68537  0.55829  1.0000
  C   C45       1.0  0.80957  0.91960  0.08339  1.0000
  C   C46       1.0  0.19043  0.41960  0.41661  1.0000
  C   C47       1.0  0.19042  0.08040  0.91661  1.0000
  C   C48       1.0  0.80957  0.58041  0.58339  1.0000
  S   S1        1.0  0.26732  0.08435  0.16361  1.0000
  S   S2        1.0  0.73268  0.58435  0.33639  1.0000
  S   S3        1.0  0.73268  0.91565  0.83639  1.0000
  S   S4        1.0  0.26732  0.41565  0.66361  1.0000
  N   N1        1.0  0.89273  0.34174  0.09032  1.0000
  N   N2        1.0  0.10727  0.84174  0.40968  1.0000
  N   N3        1.0  0.10727  0.65826  0.90969  1.0000
  N   N4        1.0  0.89273  0.15826  0.59031  1.0000
  N   N5        1.0  0.71298  0.20982  0.13862  1.0000
  N   N6        1.0  0.28703  0.70982  0.36138  1.0000
  N   N7        1.0  0.28703  0.79018  0.86138  1.0000
  N   N8        1.0  0.71297  0.29018  0.63862  1.0000
  N   N9        1.0  0.86401  0.68103  0.06001  1.0000
  N   N10       1.0  0.13599  0.18103  0.43999  1.0000
  N   N11       1.0  0.13598  0.31897  0.93999  1.0000
  N   N12       1.0  0.86401  0.81898  0.56001  1.0000
  Cl  Cl1       1.0  0.27870  0.54471  0.12598  1.0000
  Cl  Cl2       1.0  0.72130  0.04471  0.37402  1.0000
  Cl  Cl3       1.0  0.72130  0.45529  0.87403  1.0000
  Cl  Cl4       1.0  0.27870  0.95529  0.62598  1.0000
