data_image0
_chemical_formula_structural       Zn2H36C36N4O8
_chemical_formula_sum              "Zn2 H36 C36 N4 O8"
_cell_length_a       8.0485
_cell_length_b       8.911
_cell_length_c       11.4964
_cell_angle_alpha    96.1842
_cell_angle_beta     95.5693
_cell_angle_gamma    100.54

_space_group_name_H-M_alt    "P 1"
_space_group_IT_number       1

loop_
  _space_group_symop_operation_xyz
  'x, y, z'

loop_
  _atom_site_type_symbol
  _atom_site_label
  _atom_site_symmetry_multiplicity
  _atom_site_fract_x
  _atom_site_fract_y
  _atom_site_fract_z
  _atom_site_occupancy
  Zn  Zn1       1.0  0.35008  0.04127  0.37759  1.0000
  Zn  Zn2       1.0  0.64992  0.95873  0.62241  1.0000
  H   H1        1.0  0.86838  0.08639  0.16625  1.0000
  H   H2        1.0  0.13161  0.91361  0.83376  1.0000
  H   H3        1.0  0.95534  0.27164  0.13067  1.0000
  H   H4        1.0  0.04465  0.72836  0.86933  1.0000
  H   H5        1.0  0.87265  0.09098  0.94765  1.0000
  H   H6        1.0  0.12733  0.90902  0.05236  1.0000
  H   H7        1.0  0.09589  0.15418  0.97082  1.0000
  H   H8        1.0  0.90410  0.84582  0.02918  1.0000
  H   H9        1.0  0.82690  0.35401  0.33142  1.0000
  H   H10       1.0  0.17311  0.64599  0.66858  1.0000
  H   H11       1.0  0.97022  0.24962  0.39775  1.0000
  H   H12       1.0  0.02978  0.75038  0.60225  1.0000
  H   H13       1.0  0.82059  0.50043  0.53350  1.0000
  H   H14       1.0  0.17941  0.49956  0.46650  1.0000
  H   H15       1.0  0.96364  0.39329  0.59447  1.0000
  H   H16       1.0  0.03636  0.60671  0.40554  1.0000
  H   H17       1.0  0.57704  0.02577  0.17802  1.0000
  H   H18       1.0  0.42296  0.97423  0.82197  1.0000
  H   H19       1.0  0.58957  0.85875  0.98851  1.0000
  H   H20       1.0  0.41044  0.14124  0.01149  1.0000
  H   H21       1.0  0.17581  0.53040  0.08355  1.0000
  H   H22       1.0  0.82419  0.46960  0.91645  1.0000
  H   H23       1.0  0.18470  0.70861  0.26728  1.0000
  H   H24       1.0  0.81530  0.29139  0.73272  1.0000
  H   H25       1.0  0.48828  0.64330  0.85605  1.0000
  H   H26       1.0  0.51172  0.35669  0.14395  1.0000
  H   H27       1.0  0.17697  0.40878  0.90522  1.0000
  H   H28       1.0  0.82303  0.59121  0.09478  1.0000
  H   H29       1.0  0.50939  0.53216  0.69541  1.0000
  H   H30       1.0  0.49061  0.46784  0.30459  1.0000
  H   H31       1.0  0.52190  0.36594  0.51068  1.0000
  H   H32       1.0  0.47811  0.63406  0.48932  1.0000
  H   H33       1.0  0.11473  0.03786  0.57170  1.0000
  H   H34       1.0  0.88528  0.96214  0.42830  1.0000
  H   H35       1.0  0.08229  0.18580  0.75719  1.0000
  H   H36       1.0  0.91771  0.81420  0.24281  1.0000
  C   C1        1.0  0.14036  0.15687  0.21061  1.0000
  C   C2        1.0  0.85964  0.84314  0.78939  1.0000
  C   C3        1.0  0.97633  0.15302  0.13070  1.0000
  C   C4        1.0  0.02366  0.84698  0.86931  1.0000
  C   C5        1.0  0.98815  0.08356  0.00447  1.0000
  C   C6        1.0  0.01184  0.91644  0.99554  1.0000
  C   C7        1.0  0.71867  0.19360  0.44221  1.0000
  C   C8        1.0  0.28133  0.80640  0.55779  1.0000
  C   C9        1.0  0.86530  0.31049  0.41355  1.0000
  C   C10       1.0  0.13470  0.68951  0.58645  1.0000
  C   C11       1.0  0.92584  0.44160  0.51422  1.0000
  C   C12       1.0  0.07415  0.55840  0.48578  1.0000
  C   C13       1.0  0.49066  0.91525  0.15228  1.0000
  C   C14       1.0  0.50935  0.08475  0.84772  1.0000
  C   C15       1.0  0.49578  0.82341  0.04756  1.0000
  C   C16       1.0  0.50422  0.17659  0.95245  1.0000
  C   C17       1.0  0.37904  0.68326  0.01676  1.0000
  C   C18       1.0  0.62096  0.31674  0.98324  1.0000
  C   C19       1.0  0.26526  0.64029  0.09852  1.0000
  C   C20       1.0  0.73474  0.35971  0.90148  1.0000
  C   C21       1.0  0.26999  0.73821  0.20163  1.0000
  C   C22       1.0  0.73001  0.26180  0.79837  1.0000
  C   C23       1.0  0.38543  0.59380  0.90431  1.0000
  C   C24       1.0  0.61456  0.40620  0.09569  1.0000
  C   C25       1.0  0.27968  0.46045  0.85765  1.0000
  C   C26       1.0  0.72032  0.53956  0.14235  1.0000
  C   C27       1.0  0.29470  0.37373  0.74560  1.0000
  C   C28       1.0  0.70531  0.62627  0.25439  1.0000
  C   C29       1.0  0.41874  0.42338  0.67202  1.0000
  C   C30       1.0  0.58127  0.57662  0.32798  1.0000
  C   C31       1.0  0.42678  0.33076  0.56864  1.0000
  C   C32       1.0  0.57322  0.66924  0.43135  1.0000
  C   C33       1.0  0.20041  0.14763  0.60154  1.0000
  C   C34       1.0  0.79960  0.85237  0.39846  1.0000
  C   C35       1.0  0.18290  0.23258  0.70656  1.0000
  C   C36       1.0  0.81710  0.76742  0.29344  1.0000
  N   N1        1.0  0.37886  0.87491  0.22837  1.0000
  N   N2        1.0  0.62114  0.12509  0.77162  1.0000
  N   N3        1.0  0.32206  0.19365  0.53346  1.0000
  N   N4        1.0  0.67794  0.80636  0.46653  1.0000
  O   O1        1.0  0.12786  0.06736  0.29249  1.0000
  O   O2        1.0  0.87214  0.93264  0.70752  1.0000
  O   O3        1.0  0.27586  0.24028  0.19193  1.0000
  O   O4        1.0  0.72413  0.75972  0.80806  1.0000
  O   O5        1.0  0.58776  0.15428  0.36567  1.0000
  O   O6        1.0  0.41224  0.84572  0.63433  1.0000
  O   O7        1.0  0.73692  0.14512  0.54169  1.0000
  O   O8        1.0  0.26309  0.85487  0.45831  1.0000
