data_image0
_chemical_formula_structural       Cu12H32C48I8N20
_chemical_formula_sum              "Cu12 H32 C48 I8 N20"
_cell_length_a       11.5356
_cell_length_b       11.5376
_cell_length_c       13.384
_cell_angle_alpha    68.6275
_cell_angle_beta     68.6236
_cell_angle_gamma    81.5739

_space_group_name_H-M_alt    "P 1"
_space_group_IT_number       1

loop_
  _space_group_symop_operation_xyz
  'x, y, z'

loop_
  _atom_site_type_symbol
  _atom_site_label
  _atom_site_symmetry_multiplicity
  _atom_site_fract_x
  _atom_site_fract_y
  _atom_site_fract_z
  _atom_site_occupancy
  Cu  Cu1       1.0  0.63740  0.36260  0.75000  1.0000
  Cu  Cu2       1.0  0.36260  0.63740  0.25000  1.0000
  Cu  Cu3       1.0  0.49554  0.98684  0.61552  1.0000
  Cu  Cu4       1.0  0.01316  0.50443  0.88457  1.0000
  Cu  Cu5       1.0  0.50446  0.01316  0.38448  1.0000
  Cu  Cu6       1.0  0.98684  0.49556  0.11543  1.0000
  Cu  Cu7       1.0  0.24726  0.19175  0.66308  1.0000
  Cu  Cu8       1.0  0.80827  0.75274  0.83685  1.0000
  Cu  Cu9       1.0  0.75274  0.80825  0.33692  1.0000
  Cu  Cu10      1.0  0.19173  0.24726  0.16315  1.0000
  Cu  Cu11      1.0  0.00000  0.50000  0.50000  1.0000
  Cu  Cu12      1.0  0.50000  1.00000  0.00000  1.0000
  H   H1        1.0  0.63175  0.94197  0.77476  1.0000
  H   H2        1.0  0.05804  0.36822  0.72524  1.0000
  H   H3        1.0  0.36825  0.05803  0.22524  1.0000
  H   H4        1.0  0.94196  0.63178  0.27476  1.0000
  H   H5        1.0  0.21607  0.33129  0.81980  1.0000
  H   H6        1.0  0.66874  0.78392  0.68019  1.0000
  H   H7        1.0  0.78393  0.66871  0.18020  1.0000
  H   H8        1.0  0.33126  0.21608  0.31981  1.0000
  H   H9        1.0  0.03324  0.15005  0.55206  1.0000
  H   H10       1.0  0.84990  0.96684  0.94794  1.0000
  H   H11       1.0  0.96676  0.84995  0.44794  1.0000
  H   H12       1.0  0.15011  0.03316  0.05206  1.0000
  H   H13       1.0  0.52669  0.55480  0.56229  1.0000
  H   H14       1.0  0.44518  0.47336  0.93768  1.0000
  H   H15       1.0  0.47331  0.44520  0.43771  1.0000
  H   H16       1.0  0.55482  0.52664  0.06232  1.0000
  H   H17       1.0  0.01833  0.92449  0.66647  1.0000
  H   H18       1.0  0.07551  0.98173  0.83352  1.0000
  H   H19       1.0  0.98167  0.07551  0.33354  1.0000
  H   H20       1.0  0.92450  0.01827  0.16648  1.0000
  H   H21       1.0  0.38848  0.74439  0.57085  1.0000
  H   H22       1.0  0.25555  0.61156  0.92916  1.0000
  H   H23       1.0  0.61152  0.25560  0.42915  1.0000
  H   H24       1.0  0.74446  0.38844  0.07084  1.0000
  H   H25       1.0  0.83606  0.27745  0.55060  1.0000
  H   H26       1.0  0.72249  0.16398  0.94943  1.0000
  H   H27       1.0  0.16395  0.72255  0.44940  1.0000
  H   H28       1.0  0.27751  0.83602  0.05057  1.0000
  H   H29       1.0  0.16863  0.71522  0.70236  1.0000
  H   H30       1.0  0.28474  0.83136  0.79767  1.0000
  H   H31       1.0  0.83136  0.28479  0.29764  1.0000
  H   H32       1.0  0.71526  0.16864  0.20233  1.0000
  C   C1        1.0  0.45021  0.31534  0.67633  1.0000
  C   C2        1.0  0.68467  0.54981  0.82364  1.0000
  C   C3        1.0  0.54979  0.68466  0.32368  1.0000
  C   C4        1.0  0.31533  0.45019  0.17636  1.0000
  C   C5        1.0  0.71942  0.99014  0.72281  1.0000
  C   C6        1.0  0.00986  0.28058  0.77720  1.0000
  C   C7        1.0  0.28058  0.00986  0.27719  1.0000
  C   C8        1.0  0.99014  0.71942  0.22280  1.0000
  C   C9        1.0  0.59978  0.18090  0.66245  1.0000
  C   C10       1.0  0.81908  0.40023  0.83758  1.0000
  C   C11       1.0  0.40023  0.81910  0.33755  1.0000
  C   C12       1.0  0.18092  0.59977  0.16242  1.0000
  C   C13       1.0  0.37844  0.42846  0.68545  1.0000
  C   C14       1.0  0.57154  0.62158  0.81453  1.0000
  C   C15       1.0  0.62156  0.57154  0.31455  1.0000
  C   C16       1.0  0.42847  0.37842  0.18547  1.0000
  C   C17       1.0  0.25596  0.42112  0.76045  1.0000
  C   C18       1.0  0.57890  0.74405  0.73954  1.0000
  C   C19       1.0  0.74404  0.57889  0.23956  1.0000
  C   C20       1.0  0.42110  0.25595  0.26046  1.0000
  C   C21       1.0  0.94201  0.10750  0.59954  1.0000
  C   C22       1.0  0.89247  0.05804  0.90047  1.0000
  C   C23       1.0  0.05799  0.89250  0.40046  1.0000
  C   C24       1.0  0.10754  0.94196  0.09953  1.0000
  C   C25       1.0  0.42966  0.54635  0.61793  1.0000
  C   C26       1.0  0.45363  0.57037  0.88204  1.0000
  C   C27       1.0  0.57033  0.45365  0.38207  1.0000
  C   C28       1.0  0.54637  0.42963  0.11796  1.0000
  C   C29       1.0  0.71902  0.11684  0.66026  1.0000
  C   C30       1.0  0.88314  0.28099  0.83977  1.0000
  C   C31       1.0  0.28098  0.88316  0.33974  1.0000
  C   C32       1.0  0.11686  0.71901  0.16023  1.0000
  C   C33       1.0  0.93439  0.98104  0.66344  1.0000
  C   C34       1.0  0.01894  0.06565  0.83656  1.0000
  C   C35       1.0  0.06561  0.01896  0.33656  1.0000
  C   C36       1.0  0.98106  0.93436  0.16344  1.0000
  C   C37       1.0  0.35343  0.65086  0.62254  1.0000
  C   C38       1.0  0.34910  0.64659  0.87745  1.0000
  C   C39       1.0  0.64657  0.34914  0.37746  1.0000
  C   C40       1.0  0.65090  0.35341  0.12255  1.0000
  C   C41       1.0  0.83320  0.17788  0.59891  1.0000
  C   C42       1.0  0.82207  0.16683  0.90113  1.0000
  C   C43       1.0  0.16680  0.82211  0.40109  1.0000
  C   C44       1.0  0.17793  0.83317  0.09887  1.0000
  C   C45       1.0  0.23068  0.63525  0.69606  1.0000
  C   C46       1.0  0.36472  0.76933  0.80395  1.0000
  C   C47       1.0  0.76932  0.36475  0.30394  1.0000
  C   C48       1.0  0.63528  0.23067  0.19605  1.0000
  I   I1        1.0  0.29155  0.02119  0.55832  1.0000
  I   I2        1.0  0.97881  0.70846  0.94168  1.0000
  I   I3        1.0  0.70845  0.97881  0.44168  1.0000
  I   I4        1.0  0.02119  0.29154  0.05832  1.0000
  I   I5        1.0  0.20464  0.40643  0.48260  1.0000
  I   I6        1.0  0.59354  0.79538  0.01739  1.0000
  I   I7        1.0  0.79536  0.59357  0.51740  1.0000
  I   I8        1.0  0.40646  0.20462  0.98261  1.0000
  N   N1        1.0  0.56877  0.29312  0.67790  1.0000
  N   N2        1.0  0.70687  0.43125  0.82209  1.0000
  N   N3        1.0  0.43123  0.70688  0.32210  1.0000
  N   N4        1.0  0.29313  0.56875  0.17791  1.0000
  N   N5        1.0  0.18308  0.52239  0.76723  1.0000
  N   N6        1.0  0.47760  0.81692  0.73278  1.0000
  N   N7        1.0  0.81692  0.47761  0.23277  1.0000
  N   N8        1.0  0.52241  0.18308  0.26722  1.0000
  N   N9        1.0  0.40993  0.22196  0.66068  1.0000
  N   N10       1.0  0.77807  0.59006  0.83929  1.0000
  N   N11       1.0  0.59007  0.77804  0.33932  1.0000
  N   N12       1.0  0.22193  0.40994  0.16071  1.0000
  N   N13       1.0  0.82440  0.92272  0.72713  1.0000
  N   N14       1.0  0.07728  0.17561  0.77286  1.0000
  N   N15       1.0  0.17559  0.07729  0.27287  1.0000
  N   N16       1.0  0.92272  0.82439  0.22714  1.0000
  N   N17       1.0  0.50583  0.13623  0.65115  1.0000
  N   N18       1.0  0.86378  0.49415  0.84887  1.0000
  N   N19       1.0  0.49417  0.86377  0.34885  1.0000
  N   N20       1.0  0.13622  0.50585  0.15113  1.0000
