data_image0
_chemical_formula_structural       Zn2H16C24N16
_chemical_formula_sum              "Zn2 H16 C24 N16"
_cell_length_a       7.07918
_cell_length_b       9.67651
_cell_length_c       10.4433
_cell_angle_alpha    110.048
_cell_angle_beta     104.133
_cell_angle_gamma    103.497

_space_group_name_H-M_alt    "P 1"
_space_group_IT_number       1

loop_
  _space_group_symop_operation_xyz
  'x, y, z'

loop_
  _atom_site_type_symbol
  _atom_site_label
  _atom_site_symmetry_multiplicity
  _atom_site_fract_x
  _atom_site_fract_y
  _atom_site_fract_z
  _atom_site_occupancy
  Zn  Zn1       1.0  0.89666  0.11223  0.10274  1.0000
  Zn  Zn2       1.0  0.10334  0.88777  0.89725  1.0000
  H   H1        1.0  0.86116  0.07211  0.38671  1.0000
  H   H2        1.0  0.13884  0.92789  0.61328  1.0000
  H   H3        1.0  0.08132  0.28421  0.91871  1.0000
  H   H4        1.0  0.91867  0.71580  0.08128  1.0000
  H   H5        1.0  0.32484  0.55047  0.97970  1.0000
  H   H6        1.0  0.67515  0.44955  0.02030  1.0000
  H   H7        1.0  0.01371  0.23982  0.65509  1.0000
  H   H8        1.0  0.98629  0.76017  0.34490  1.0000
  H   H9        1.0  0.44724  0.72874  0.68842  1.0000
  H   H10       1.0  0.55276  0.27124  0.31158  1.0000
  H   H11       1.0  0.52804  0.81469  0.50343  1.0000
  H   H12       1.0  0.47197  0.18531  0.49658  1.0000
  H   H13       1.0  0.25856  0.51989  0.74702  1.0000
  H   H14       1.0  0.74144  0.48011  0.25298  1.0000
  H   H15       1.0  0.49052  0.74788  0.24002  1.0000
  H   H16       1.0  0.50948  0.25213  0.75999  1.0000
  C   C1        1.0  0.97181  0.19109  0.43103  1.0000
  C   C2        1.0  0.02818  0.80891  0.56896  1.0000
  C   C3        1.0  0.15497  0.37257  0.03108  1.0000
  C   C4        1.0  0.84502  0.62744  0.96892  1.0000
  C   C5        1.0  0.14880  0.38835  0.38093  1.0000
  C   C6        1.0  0.85119  0.61165  0.61907  1.0000
  C   C7        1.0  0.19747  0.43704  0.27365  1.0000
  C   C8        1.0  0.80253  0.56296  0.72635  1.0000
  C   C9        1.0  0.29313  0.52158  0.06600  1.0000
  C   C10       1.0  0.70687  0.47843  0.93400  1.0000
  C   C11       1.0  0.05922  0.28708  0.58197  1.0000
  C   C12       1.0  0.94077  0.71291  0.41803  1.0000
  C   C13       1.0  0.33703  0.59076  0.31918  1.0000
  C   C14       1.0  0.66298  0.40925  0.68083  1.0000
  C   C15       1.0  0.24227  0.49397  0.53061  1.0000
  C   C16       1.0  0.75773  0.50603  0.46939  1.0000
  C   C17       1.0  0.38012  0.64890  0.57272  1.0000
  C   C18       1.0  0.61987  0.35110  0.42729  1.0000
  C   C19       1.0  0.42472  0.69584  0.47060  1.0000
  C   C20       1.0  0.57529  0.30416  0.52941  1.0000
  C   C21       1.0  0.19215  0.43903  0.63158  1.0000
  C   C22       1.0  0.80785  0.56097  0.36842  1.0000
  C   C23       1.0  0.38362  0.63119  0.20981  1.0000
  C   C24       1.0  0.61638  0.36882  0.79018  1.0000
  N   N1        1.0  0.84070  0.98556  0.87996  1.0000
  N   N2        1.0  0.15931  0.01445  0.12004  1.0000
  N   N3        1.0  0.10828  0.33163  0.13187  1.0000
  N   N4        1.0  0.89172  0.66838  0.86813  1.0000
  N   N5        1.0  0.63932  0.20948  0.06720  1.0000
  N   N6        1.0  0.36070  0.79051  0.93280  1.0000
  N   N7        1.0  0.01444  0.24074  0.33379  1.0000
  N   N8        1.0  0.98555  0.75926  0.66621  1.0000
  N   N9        1.0  0.47315  0.14361  0.97422  1.0000
  N   N10       1.0  0.52684  0.85638  0.02576  1.0000
  N   N11       1.0  0.30578  0.08156  0.88152  1.0000
  N   N12       1.0  0.69423  0.91844  0.11848  1.0000
  N   N13       1.0  0.79369  0.02823  0.78476  1.0000
  N   N14       1.0  0.20632  0.97176  0.21524  1.0000
  N   N15       1.0  0.74869  0.06617  0.69004  1.0000
  N   N16       1.0  0.25132  0.93382  0.30996  1.0000
