data_image0
_chemical_formula_structural       Zn4H32C40N32
_chemical_formula_sum              "Zn4 H32 C40 N32"
_cell_length_a       6.4693
_cell_length_b       10.7611
_cell_length_c       16.885
_cell_angle_alpha    96.3653
_cell_angle_beta     95.4353
_cell_angle_gamma    90.4787

_space_group_name_H-M_alt    "P 1"
_space_group_IT_number       1

loop_
  _space_group_symop_operation_xyz
  'x, y, z'

loop_
  _atom_site_type_symbol
  _atom_site_label
  _atom_site_symmetry_multiplicity
  _atom_site_fract_x
  _atom_site_fract_y
  _atom_site_fract_z
  _atom_site_occupancy
  Zn  Zn1       1.0  0.55125  0.14811  0.24388  1.0000
  Zn  Zn2       1.0  0.44875  0.85189  0.75612  1.0000
  Zn  Zn3       1.0  0.05608  0.26858  0.24574  1.0000
  Zn  Zn4       1.0  0.94392  0.73142  0.75426  1.0000
  H   H1        1.0  0.72548  0.15614  0.41915  1.0000
  H   H2        1.0  0.27453  0.84386  0.58085  1.0000
  H   H3        1.0  0.22656  0.30008  0.42239  1.0000
  H   H4        1.0  0.77344  0.69992  0.57761  1.0000
  H   H5        1.0  0.79197  0.00276  0.52172  1.0000
  H   H6        1.0  0.20804  0.99724  0.47828  1.0000
  H   H7        1.0  0.71910  0.77402  0.47555  1.0000
  H   H8        1.0  0.28090  0.22598  0.52445  1.0000
  H   H9        1.0  0.58327  0.70921  0.33512  1.0000
  H   H10       1.0  0.41673  0.29079  0.66488  1.0000
  H   H11       1.0  0.34385  0.03959  0.07289  1.0000
  H   H12       1.0  0.65615  0.96040  0.92711  1.0000
  H   H13       1.0  0.30550  0.82832  0.99440  1.0000
  H   H14       1.0  0.69450  0.17168  0.00560  1.0000
  H   H15       1.0  0.39156  0.63848  0.06636  1.0000
  H   H16       1.0  0.60843  0.36151  0.93364  1.0000
  H   H17       1.0  0.50979  0.66849  0.21132  1.0000
  H   H18       1.0  0.49020  0.33151  0.78868  1.0000
  H   H19       1.0  0.02956  0.74470  0.23976  1.0000
  H   H20       1.0  0.97044  0.25530  0.76024  1.0000
  H   H21       1.0  0.89166  0.74278  0.09740  1.0000
  H   H22       1.0  0.10834  0.25722  0.90260  1.0000
  H   H23       1.0  0.79270  0.53736  0.01615  1.0000
  H   H24       1.0  0.20730  0.46264  0.98385  1.0000
  H   H25       1.0  0.85223  0.33952  0.08190  1.0000
  H   H26       1.0  0.14778  0.66048  0.91810  1.0000
  H   H27       1.0  0.10723  0.73154  0.36132  1.0000
  H   H28       1.0  0.89277  0.26846  0.63868  1.0000
  H   H29       1.0  0.24463  0.69670  0.50003  1.0000
  H   H30       1.0  0.75537  0.30330  0.49997  1.0000
  H   H31       1.0  0.30557  0.47825  0.53364  1.0000
  H   H32       1.0  0.69444  0.52175  0.46636  1.0000
  C   C1        1.0  0.69541  0.05600  0.40466  1.0000
  C   C2        1.0  0.30459  0.94400  0.59534  1.0000
  C   C3        1.0  0.20203  0.39787  0.41342  1.0000
  C   C4        1.0  0.79797  0.60212  0.58658  1.0000
  C   C5        1.0  0.73255  0.97064  0.46022  1.0000
  C   C6        1.0  0.26745  0.02936  0.53978  1.0000
  C   C7        1.0  0.69155  0.84438  0.43433  1.0000
  C   C8        1.0  0.30845  0.15562  0.56567  1.0000
  C   C9        1.0  0.61502  0.80770  0.35535  1.0000
  C   C10       1.0  0.38498  0.19230  0.64465  1.0000
  C   C11       1.0  0.57998  0.89944  0.30325  1.0000
  C   C12       1.0  0.42002  0.10056  0.69675  1.0000
  C   C13       1.0  0.49832  0.87095  0.21811  1.0000
  C   C14       1.0  0.50168  0.12905  0.78189  1.0000
  C   C15       1.0  0.38206  0.95516  0.10104  1.0000
  C   C16       1.0  0.61794  0.04484  0.89896  1.0000
  C   C17       1.0  0.35884  0.83692  0.05791  1.0000
  C   C18       1.0  0.64116  0.16308  0.94209  1.0000
  C   C19       1.0  0.40544  0.73266  0.09785  1.0000
  C   C20       1.0  0.59456  0.26734  0.90215  1.0000
  C   C21       1.0  0.47342  0.74930  0.17928  1.0000
  C   C22       1.0  0.52658  0.25070  0.82072  1.0000
  C   C23       1.0  0.01343  0.54238  0.23578  1.0000
  C   C24       1.0  0.98657  0.45762  0.76422  1.0000
  C   C25       1.0  0.98905  0.65608  0.20350  1.0000
  C   C26       1.0  0.01095  0.34392  0.79650  1.0000
  C   C27       1.0  0.91144  0.65482  0.12349  1.0000
  C   C28       1.0  0.08856  0.34518  0.87651  1.0000
  C   C29       1.0  0.85862  0.54092  0.07813  1.0000
  C   C30       1.0  0.14138  0.45908  0.92187  1.0000
  C   C31       1.0  0.88956  0.43152  0.11431  1.0000
  C   C32       1.0  0.11044  0.56849  0.88569  1.0000
  C   C33       1.0  0.09347  0.53299  0.31987  1.0000
  C   C34       1.0  0.90653  0.46701  0.68013  1.0000
  C   C35       1.0  0.13412  0.63712  0.37702  1.0000
  C   C36       1.0  0.86588  0.36288  0.62298  1.0000
  C   C37       1.0  0.21138  0.61767  0.45431  1.0000
  C   C38       1.0  0.78862  0.38233  0.54569  1.0000
  C   C39       1.0  0.24622  0.49622  0.47348  1.0000
  C   C40       1.0  0.75378  0.50378  0.52652  1.0000
  N   N1        1.0  0.32497  0.24723  0.18076  1.0000
  N   N2        1.0  0.67503  0.75277  0.81924  1.0000
  N   N3        1.0  0.36686  0.31823  0.13346  1.0000
  N   N4        1.0  0.63313  0.68178  0.86655  1.0000
  N   N5        1.0  0.62089  0.02126  0.32864  1.0000
  N   N6        1.0  0.37911  0.97874  0.67136  1.0000
  N   N7        1.0  0.45219  0.97151  0.17869  1.0000
  N   N8        1.0  0.54781  0.02849  0.82130  1.0000
  N   N9        1.0  0.82402  0.15309  0.17950  1.0000
  N   N10       1.0  0.17598  0.84691  0.82050  1.0000
  N   N11       1.0  0.18516  0.13961  0.31756  1.0000
  N   N12       1.0  0.81484  0.86039  0.68244  1.0000
  N   N13       1.0  0.13640  0.03209  0.31866  1.0000
  N   N14       1.0  0.86360  0.96791  0.68135  1.0000
  N   N15       1.0  0.09697  0.92660  0.32215  1.0000
  N   N16       1.0  0.90304  0.07340  0.67785  1.0000
  N   N17       1.0  0.96567  0.43214  0.19079  1.0000
  N   N18       1.0  0.03433  0.56786  0.80921  1.0000
  N   N19       1.0  0.12711  0.41595  0.33901  1.0000
  N   N20       1.0  0.87289  0.58405  0.66099  1.0000
  N   N21       1.0  0.67591  0.29820  0.32146  1.0000
  N   N22       1.0  0.32409  0.70180  0.67854  1.0000
  N   N23       1.0  0.62625  0.40401  0.31447  1.0000
  N   N24       1.0  0.37375  0.59599  0.68553  1.0000
  N   N25       1.0  0.58315  0.50838  0.30942  1.0000
  N   N26       1.0  0.41685  0.49163  0.69058  1.0000
  N   N27       1.0  0.40419  0.38585  0.08741  1.0000
  N   N28       1.0  0.59581  0.61416  0.91260  1.0000
  N   N29       1.0  0.86275  0.06122  0.13501  1.0000
  N   N30       1.0  0.13725  0.93878  0.86499  1.0000
  N   N31       1.0  0.89292  0.97359  0.09131  1.0000
  N   N32       1.0  0.10707  0.02641  0.90868  1.0000
