data_image0
_chemical_formula_structural       CoH24C28S2N6
_chemical_formula_sum              "Co1 H24 C28 S2 N6"
_cell_length_a       7.65379
_cell_length_b       8.26699
_cell_length_c       11.0536
_cell_angle_alpha    108.293
_cell_angle_beta     97.3939
_cell_angle_gamma    107.416

_space_group_name_H-M_alt    "P 1"
_space_group_IT_number       1

loop_
  _space_group_symop_operation_xyz
  'x, y, z'

loop_
  _atom_site_type_symbol
  _atom_site_label
  _atom_site_symmetry_multiplicity
  _atom_site_fract_x
  _atom_site_fract_y
  _atom_site_fract_z
  _atom_site_occupancy
  Co  Co1       1.0  1.00000  1.00000  0.00000  1.0000
  H   H1        1.0  0.18183  0.32352  0.24701  1.0000
  H   H2        1.0  0.81818  0.67649  0.75299  1.0000
  H   H3        1.0  0.87170  0.68185  0.25053  1.0000
  H   H4        1.0  0.12831  0.31816  0.74947  1.0000
  H   H5        1.0  0.69283  0.47020  0.02250  1.0000
  H   H6        1.0  0.30717  0.52980  0.97750  1.0000
  H   H7        1.0  0.76062  0.19197  0.91900  1.0000
  H   H8        1.0  0.23937  0.80803  0.08100  1.0000
  H   H9        1.0  0.17610  0.84403  0.58569  1.0000
  H   H10       1.0  0.82390  0.15597  0.41431  1.0000
  H   H11       1.0  0.95653  0.65478  0.51577  1.0000
  H   H12       1.0  0.04347  0.34522  0.48422  1.0000
  H   H13       1.0  0.01401  0.82274  0.44674  1.0000
  H   H14       1.0  0.98599  0.17726  0.55326  1.0000
  H   H15       1.0  0.40432  0.58027  0.36014  1.0000
  H   H16       1.0  0.59568  0.41973  0.63986  1.0000
  H   H17       1.0  0.28752  0.66485  0.68513  1.0000
  H   H18       1.0  0.71248  0.33515  0.31487  1.0000
  H   H19       1.0  0.71062  0.85178  0.48699  1.0000
  H   H20       1.0  0.28938  0.14823  0.51301  1.0000
  H   H21       1.0  0.53651  0.82465  0.89416  1.0000
  H   H22       1.0  0.46348  0.17535  0.10584  1.0000
  H   H23       1.0  0.94401  0.00575  0.70680  1.0000
  H   H24       1.0  0.05599  0.99426  0.29320  1.0000
  C   C1        1.0  0.07675  0.36152  0.19933  1.0000
  C   C2        1.0  0.92326  0.63849  0.80067  1.0000
  C   C3        1.0  0.05007  0.52362  0.26706  1.0000
  C   C4        1.0  0.94993  0.47638  0.73294  1.0000
  C   C5        1.0  0.90634  0.56250  0.20321  1.0000
  C   C6        1.0  0.09366  0.43750  0.79679  1.0000
  C   C7        1.0  0.80380  0.44394  0.07652  1.0000
  C   C8        1.0  0.19619  0.55606  0.92348  1.0000
  C   C9        1.0  0.84081  0.28694  0.01706  1.0000
  C   C10       1.0  0.15919  0.71306  0.98294  1.0000
  C   C11       1.0  0.16497  0.63915  0.40255  1.0000
  C   C12       1.0  0.83503  0.36085  0.59744  1.0000
  C   C13       1.0  0.07470  0.74580  0.49349  1.0000
  C   C14       1.0  0.92530  0.25420  0.50651  1.0000
  C   C15       1.0  0.34469  0.64699  0.43725  1.0000
  C   C16       1.0  0.65532  0.35301  0.56275  1.0000
  C   C17       1.0  0.47747  0.74506  0.56653  1.0000
  C   C18       1.0  0.52253  0.25494  0.43347  1.0000
  C   C19       1.0  0.43032  0.74104  0.68451  1.0000
  C   C20       1.0  0.56969  0.25896  0.31549  1.0000
  C   C21       1.0  0.66696  0.84353  0.57569  1.0000
  C   C22       1.0  0.33305  0.15648  0.42431  1.0000
  C   C23       1.0  0.56944  0.82967  0.80200  1.0000
  C   C24       1.0  0.43055  0.17033  0.19800  1.0000
  C   C25       1.0  0.79586  0.93051  0.69729  1.0000
  C   C26       1.0  0.20414  0.06950  0.30271  1.0000
  C   C27       1.0  0.71185  0.85824  0.14219  1.0000
  C   C28       1.0  0.28815  0.14175  0.85781  1.0000
  S   S1        1.0  0.56776  0.79209  0.22735  1.0000
  S   S2        1.0  0.43224  0.20789  0.77265  1.0000
  N   N1        1.0  0.97408  0.24322  0.07858  1.0000
  N   N2        1.0  0.02592  0.75678  0.92142  1.0000
  N   N3        1.0  0.75076  0.92224  0.80968  1.0000
  N   N4        1.0  0.24924  0.07777  0.19032  1.0000
  N   N5        1.0  0.82029  0.90548  0.08143  1.0000
  N   N6        1.0  0.17971  0.09452  0.91857  1.0000
