data_image0
_chemical_formula_structural       Zn4H16C16N16O8
_chemical_formula_sum              "Zn4 H16 C16 N16 O8"
_cell_length_a       6.84659
_cell_length_b       8.93708
_cell_length_c       10.4327
_cell_angle_alpha    89.9999
_cell_angle_beta     90
_cell_angle_gamma    101.384

_space_group_name_H-M_alt    "P 1"
_space_group_IT_number       1

loop_
  _space_group_symop_operation_xyz
  'x, y, z'

loop_
  _atom_site_type_symbol
  _atom_site_label
  _atom_site_symmetry_multiplicity
  _atom_site_fract_x
  _atom_site_fract_y
  _atom_site_fract_z
  _atom_site_occupancy
  Zn  Zn1       1.0  0.73041  0.77601  0.75651  1.0000
  Zn  Zn2       1.0  0.26959  0.72399  0.25651  1.0000
  Zn  Zn3       1.0  0.26959  0.22399  0.24349  1.0000
  Zn  Zn4       1.0  0.73041  0.27601  0.74349  1.0000
  H   H1        1.0  0.38242  0.54747  0.65973  1.0000
  H   H2        1.0  0.61758  0.95254  0.15973  1.0000
  H   H3        1.0  0.61758  0.45254  0.34027  1.0000
  H   H4        1.0  0.38242  0.04746  0.84027  1.0000
  H   H5        1.0  0.26553  0.51022  0.50897  1.0000
  H   H6        1.0  0.73446  0.98978  0.00897  1.0000
  H   H7        1.0  0.73447  0.48978  0.49103  1.0000
  H   H8        1.0  0.26553  0.01022  0.99103  1.0000
  H   H9        1.0  0.18262  0.74473  0.70912  1.0000
  H   H10       1.0  0.81738  0.75527  0.20912  1.0000
  H   H11       1.0  0.81739  0.25527  0.29087  1.0000
  H   H12       1.0  0.18262  0.24473  0.79088  1.0000
  H   H13       1.0  0.07433  0.72550  0.55606  1.0000
  H   H14       1.0  0.92566  0.77450  0.05606  1.0000
  H   H15       1.0  0.92567  0.27450  0.44394  1.0000
  H   H16       1.0  0.07434  0.22549  0.94394  1.0000
  C   C1        1.0  0.46568  0.72316  0.52149  1.0000
  C   C2        1.0  0.53432  0.77684  0.02149  1.0000
  C   C3        1.0  0.53432  0.27684  0.47851  1.0000
  C   C4        1.0  0.46568  0.22316  0.97851  1.0000
  C   C5        1.0  0.31496  0.59977  0.58025  1.0000
  C   C6        1.0  0.68504  0.90023  0.08025  1.0000
  C   C7        1.0  0.68504  0.40023  0.41975  1.0000
  C   C8        1.0  0.31496  0.09977  0.91975  1.0000
  C   C9        1.0  0.13687  0.66229  0.63132  1.0000
  C   C10       1.0  0.86313  0.83771  0.13132  1.0000
  C   C11       1.0  0.86313  0.33771  0.36868  1.0000
  C   C12       1.0  0.13687  0.16229  0.86868  1.0000
  C   C13       1.0  0.97091  0.54011  0.68148  1.0000
  C   C14       1.0  0.02909  0.95989  0.18148  1.0000
  C   C15       1.0  0.02909  0.45989  0.31852  1.0000
  C   C16       1.0  0.97091  0.04011  0.81852  1.0000
  N   N1        1.0  0.62320  0.80639  0.58233  1.0000
  N   N2        1.0  0.37680  0.69361  0.08233  1.0000
  N   N3        1.0  0.37680  0.19361  0.41767  1.0000
  N   N4        1.0  0.62320  0.30639  0.91767  1.0000
  N   N5        1.0  0.71862  0.91174  0.49755  1.0000
  N   N6        1.0  0.28138  0.58827  0.99755  1.0000
  N   N7        1.0  0.28138  0.08826  0.50245  1.0000
  N   N8        1.0  0.71862  0.41173  0.00245  1.0000
  N   N9        1.0  0.62288  0.89368  0.38950  1.0000
  N   N10       1.0  0.37712  0.60632  0.88950  1.0000
  N   N11       1.0  0.37712  0.10632  0.61050  1.0000
  N   N12       1.0  0.62288  0.39368  0.11050  1.0000
  N   N13       1.0  0.46340  0.77584  0.40114  1.0000
  N   N14       1.0  0.53659  0.72416  0.90114  1.0000
  N   N15       1.0  0.53660  0.22416  0.59886  1.0000
  N   N16       1.0  0.46340  0.27584  0.09886  1.0000
  O   O1        1.0  0.81021  0.57405  0.72421  1.0000
  O   O2        1.0  0.18979  0.92596  0.22421  1.0000
  O   O3        1.0  0.18979  0.42595  0.27579  1.0000
  O   O4        1.0  0.81021  0.07404  0.77579  1.0000
  O   O5        1.0  0.98766  0.40033  0.67705  1.0000
  O   O6        1.0  0.01234  0.09968  0.17705  1.0000
  O   O7        1.0  0.01234  0.59967  0.32295  1.0000
  O   O8        1.0  0.98766  0.90033  0.82295  1.0000
