data_image0
_chemical_formula_structural       Zn4H32C36N20O8
_chemical_formula_sum              "Zn4 H32 C36 N20 O8"
_cell_length_a       7.64952
_cell_length_b       9.38246
_cell_length_c       14.9484
_cell_angle_alpha    105.254
_cell_angle_beta     90.0001
_cell_angle_gamma    89.9999

_space_group_name_H-M_alt    "P 1"
_space_group_IT_number       1

loop_
  _space_group_symop_operation_xyz
  'x, y, z'

loop_
  _atom_site_type_symbol
  _atom_site_label
  _atom_site_symmetry_multiplicity
  _atom_site_fract_x
  _atom_site_fract_y
  _atom_site_fract_z
  _atom_site_occupancy
  Zn  Zn1       1.0  0.48963  0.89655  0.21462  1.0000
  Zn  Zn2       1.0  0.98963  0.60345  0.78538  1.0000
  Zn  Zn3       1.0  0.51037  0.10345  0.78538  1.0000
  Zn  Zn4       1.0  0.01038  0.39655  0.21462  1.0000
  H   H1        1.0  0.52556  0.14038  0.09321  1.0000
  H   H2        1.0  0.02556  0.35962  0.90679  1.0000
  H   H3        1.0  0.47445  0.85962  0.90679  1.0000
  H   H4        1.0  0.97445  0.64038  0.09321  1.0000
  H   H5        1.0  0.67520  0.28472  0.09774  1.0000
  H   H6        1.0  0.17520  0.21528  0.90226  1.0000
  H   H7        1.0  0.32480  0.71528  0.90226  1.0000
  H   H8        1.0  0.82481  0.78472  0.09774  1.0000
  H   H9        1.0  0.77647  0.95596  0.02792  1.0000
  H   H10       1.0  0.27647  0.54404  0.97208  1.0000
  H   H11       1.0  0.22354  0.04404  0.97208  1.0000
  H   H12       1.0  0.72354  0.45596  0.02792  1.0000
  H   H13       1.0  0.90660  0.10929  0.02403  1.0000
  H   H14       1.0  0.40660  0.39071  0.97597  1.0000
  H   H15       1.0  0.09340  0.89071  0.97597  1.0000
  H   H16       1.0  0.59340  0.60929  0.02403  1.0000
  H   H17       1.0  0.14597  0.77393  0.24285  1.0000
  H   H18       1.0  0.64597  0.72607  0.75715  1.0000
  H   H19       1.0  0.85403  0.22606  0.75715  1.0000
  H   H20       1.0  0.35403  0.27393  0.24285  1.0000
  H   H21       1.0  0.91564  0.82118  0.36386  1.0000
  H   H22       1.0  0.41563  0.67882  0.63614  1.0000
  H   H23       1.0  0.08436  0.17882  0.63614  1.0000
  H   H24       1.0  0.58437  0.32118  0.36386  1.0000
  H   H25       1.0  0.26823  0.13493  0.53966  1.0000
  H   H26       1.0  0.76822  0.36507  0.46034  1.0000
  H   H27       1.0  0.73178  0.86508  0.46034  1.0000
  H   H28       1.0  0.23177  0.63492  0.53966  1.0000
  H   H29       1.0  0.47846  0.07881  0.41077  1.0000
  H   H30       1.0  0.97845  0.42118  0.58923  1.0000
  H   H31       1.0  0.52155  0.92119  0.58923  1.0000
  H   H32       1.0  0.02154  0.57881  0.41077  1.0000
  C   C1        1.0  0.72779  0.15639  0.19177  1.0000
  C   C2        1.0  0.22779  0.34361  0.80822  1.0000
  C   C3        1.0  0.27221  0.84361  0.80822  1.0000
  C   C4        1.0  0.77221  0.65639  0.19178  1.0000
  C   C5        1.0  0.66471  0.16904  0.10011  1.0000
  C   C6        1.0  0.16471  0.33096  0.89989  1.0000
  C   C7        1.0  0.33529  0.83096  0.89989  1.0000
  C   C8        1.0  0.83529  0.66904  0.10011  1.0000
  C   C9        1.0  0.77083  0.06949  0.02077  1.0000
  C   C10       1.0  0.27083  0.43051  0.97923  1.0000
  C   C11       1.0  0.22918  0.93051  0.97923  1.0000
  C   C12       1.0  0.72918  0.56950  0.02077  1.0000
  C   C13       1.0  0.70121  0.05875  0.92415  1.0000
  C   C14       1.0  0.20121  0.44125  0.07585  1.0000
  C   C15       1.0  0.29879  0.94125  0.07585  1.0000
  C   C16       1.0  0.79880  0.55875  0.92415  1.0000
  C   C17       1.0  0.16462  0.85539  0.30922  1.0000
  C   C18       1.0  0.66462  0.64461  0.69078  1.0000
  C   C19       1.0  0.83538  0.14461  0.69078  1.0000
  C   C20       1.0  0.33538  0.35539  0.30922  1.0000
  C   C21       1.0  0.03816  0.88099  0.37800  1.0000
  C   C22       1.0  0.53815  0.61901  0.62201  1.0000
  C   C23       1.0  0.96185  0.11900  0.62200  1.0000
  C   C24       1.0  0.46184  0.38099  0.37800  1.0000
  C   C25       1.0  0.06770  0.98419  0.46341  1.0000
  C   C26       1.0  0.56769  0.51581  0.53660  1.0000
  C   C27       1.0  0.93231  0.01580  0.53659  1.0000
  C   C28       1.0  0.43231  0.48419  0.46341  1.0000
  C   C29       1.0  0.23094  0.05539  0.47542  1.0000
  C   C30       1.0  0.73094  0.44461  0.52458  1.0000
  C   C31       1.0  0.76906  0.94461  0.52457  1.0000
  C   C32       1.0  0.26906  0.55539  0.47542  1.0000
  C   C33       1.0  0.35093  0.02498  0.40330  1.0000
  C   C34       1.0  0.85093  0.47502  0.59670  1.0000
  C   C35       1.0  0.64907  0.97502  0.59670  1.0000
  C   C36       1.0  0.14907  0.52497  0.40330  1.0000
  N   N1        1.0  0.66537  0.06488  0.23993  1.0000
  N   N2        1.0  0.16538  0.43512  0.76007  1.0000
  N   N3        1.0  0.33463  0.93512  0.76007  1.0000
  N   N4        1.0  0.83463  0.56488  0.23993  1.0000
  N   N5        1.0  0.76215  0.08826  0.31891  1.0000
  N   N6        1.0  0.26215  0.41174  0.68109  1.0000
  N   N7        1.0  0.23785  0.91174  0.68109  1.0000
  N   N8        1.0  0.73785  0.58826  0.31891  1.0000
  N   N9        1.0  0.87901  0.18934  0.31877  1.0000
  N   N10       1.0  0.37901  0.31066  0.68122  1.0000
  N   N11       1.0  0.12100  0.81066  0.68123  1.0000
  N   N12       1.0  0.62099  0.68934  0.31877  1.0000
  N   N13       1.0  0.86067  0.23339  0.23988  1.0000
  N   N14       1.0  0.36067  0.26661  0.76011  1.0000
  N   N15       1.0  0.13933  0.76661  0.76012  1.0000
  N   N16       1.0  0.63933  0.73339  0.23988  1.0000
  N   N17       1.0  0.31825  0.92797  0.32106  1.0000
  N   N18       1.0  0.81824  0.57203  0.67895  1.0000
  N   N19       1.0  0.68176  0.07203  0.67894  1.0000
  N   N20       1.0  0.18175  0.42797  0.32106  1.0000
  O   O1        1.0  0.58103  0.15346  0.91654  1.0000
  O   O2        1.0  0.08103  0.34655  0.08346  1.0000
  O   O3        1.0  0.41897  0.84654  0.08346  1.0000
  O   O4        1.0  0.91898  0.65346  0.91654  1.0000
  O   O5        1.0  0.75779  0.96036  0.85669  1.0000
  O   O6        1.0  0.25779  0.53964  0.14331  1.0000
  O   O7        1.0  0.24222  0.03964  0.14330  1.0000
  O   O8        1.0  0.74222  0.46036  0.85670  1.0000
