data_image0
_chemical_formula_structural       Ni2H36C44N4O12
_chemical_formula_sum              "Ni2 H36 C44 N4 O12"
_cell_length_a       9.41914
_cell_length_b       9.58543
_cell_length_c       11.1673
_cell_angle_alpha    90.0001
_cell_angle_beta     89.9998
_cell_angle_gamma    105.868

_space_group_name_H-M_alt    "P 1"
_space_group_IT_number       1

loop_
  _space_group_symop_operation_xyz
  'x, y, z'

loop_
  _atom_site_type_symbol
  _atom_site_label
  _atom_site_symmetry_multiplicity
  _atom_site_fract_x
  _atom_site_fract_y
  _atom_site_fract_z
  _atom_site_occupancy
  Ni  Ni1       1.0  0.25000  0.50000  0.91399  1.0000
  Ni  Ni2       1.0  0.75000  0.50000  0.08601  1.0000
  H   H1        1.0  0.19414  0.73056  0.88060  1.0000
  H   H2        1.0  0.69415  0.73057  0.11940  1.0000
  H   H3        1.0  0.80585  0.26943  0.11939  1.0000
  H   H4        1.0  0.30586  0.26944  0.88060  1.0000
  H   H5        1.0  0.06681  0.66069  0.98198  1.0000
  H   H6        1.0  0.56682  0.66070  0.01802  1.0000
  H   H7        1.0  0.93318  0.33930  0.01802  1.0000
  H   H8        1.0  0.43319  0.33931  0.98198  1.0000
  H   H9        1.0  0.10207  0.62462  0.71943  1.0000
  H   H10       1.0  0.60206  0.62463  0.28056  1.0000
  H   H11       1.0  0.89795  0.37537  0.28056  1.0000
  H   H12       1.0  0.39794  0.37538  0.71943  1.0000
  H   H13       1.0  0.10588  0.64024  0.49666  1.0000
  H   H14       1.0  0.60590  0.64024  0.50334  1.0000
  H   H15       1.0  0.89412  0.35976  0.50334  1.0000
  H   H16       1.0  0.39412  0.35975  0.49665  1.0000
  H   H17       1.0  0.19781  0.26588  0.32598  1.0000
  H   H18       1.0  0.69783  0.26589  0.67403  1.0000
  H   H19       1.0  0.80219  0.73411  0.67402  1.0000
  H   H20       1.0  0.30218  0.73411  0.32598  1.0000
  H   H21       1.0  0.19683  0.27538  0.10336  1.0000
  H   H22       1.0  0.69684  0.27538  0.89665  1.0000
  H   H23       1.0  0.80318  0.72463  0.89664  1.0000
  H   H24       1.0  0.30315  0.72461  0.10336  1.0000
  H   H25       1.0  0.62410  0.92020  0.04493  1.0000
  H   H26       1.0  0.12411  0.92020  0.95507  1.0000
  H   H27       1.0  0.37590  0.07980  0.95507  1.0000
  H   H28       1.0  0.87589  0.07978  0.04493  1.0000
  H   H29       1.0  0.48720  0.85132  0.63039  1.0000
  H   H30       1.0  0.98722  0.85134  0.36962  1.0000
  H   H31       1.0  0.51280  0.14867  0.36961  1.0000
  H   H32       1.0  0.01277  0.14866  0.63038  1.0000
  H   H33       1.0  0.61879  0.92748  0.43798  1.0000
  H   H34       1.0  0.11882  0.92749  0.56202  1.0000
  H   H35       1.0  0.38120  0.07252  0.56203  1.0000
  H   H36       1.0  0.88117  0.07253  0.43797  1.0000
  C   C1        1.0  0.16910  0.57138  0.66673  1.0000
  C   C2        1.0  0.66910  0.57139  0.33327  1.0000
  C   C3        1.0  0.83091  0.42861  0.33327  1.0000
  C   C4        1.0  0.33090  0.42862  0.66673  1.0000
  C   C5        1.0  0.16997  0.57760  0.54240  1.0000
  C   C6        1.0  0.66998  0.57760  0.45761  1.0000
  C   C7        1.0  0.83003  0.42241  0.45760  1.0000
  C   C8        1.0  0.33003  0.42240  0.54240  1.0000
  C   C9        1.0  0.24999  0.50000  0.47729  1.0000
  C   C10       1.0  0.75001  0.50000  0.52272  1.0000
  C   C11       1.0  0.24999  0.50000  0.34506  1.0000
  C   C12       1.0  0.75002  0.50000  0.65493  1.0000
  C   C13       1.0  0.22133  0.37017  0.28035  1.0000
  C   C14       1.0  0.72135  0.37017  0.71965  1.0000
  C   C15       1.0  0.77867  0.62983  0.71965  1.0000
  C   C16       1.0  0.27865  0.62984  0.28034  1.0000
  C   C17       1.0  0.22089  0.37471  0.15595  1.0000
  C   C18       1.0  0.72090  0.37471  0.84405  1.0000
  C   C19       1.0  0.77912  0.62529  0.84405  1.0000
  C   C20       1.0  0.27910  0.62529  0.15595  1.0000
  C   C21       1.0  0.45176  0.80592  0.86030  1.0000
  C   C22       1.0  0.95176  0.80593  0.13971  1.0000
  C   C23       1.0  0.54824  0.19407  0.13970  1.0000
  C   C24       1.0  0.04821  0.19406  0.86029  1.0000
  C   C25       1.0  0.60383  0.90901  0.85314  1.0000
  C   C26       1.0  0.10383  0.90900  0.14687  1.0000
  C   C27       1.0  0.39618  0.09101  0.14686  1.0000
  C   C28       1.0  0.89616  0.09098  0.85313  1.0000
  C   C29       1.0  0.67790  0.95378  0.95929  1.0000
  C   C30       1.0  0.17790  0.95379  0.04072  1.0000
  C   C31       1.0  0.32211  0.04621  0.04071  1.0000
  C   C32       1.0  0.82211  0.04621  0.95929  1.0000
  C   C33       1.0  0.67464  0.95569  0.74136  1.0000
  C   C34       1.0  0.17464  0.95570  0.25864  1.0000
  C   C35       1.0  0.32536  0.04431  0.25864  1.0000
  C   C36       1.0  0.82535  0.04431  0.74135  1.0000
  C   C37       1.0  0.60245  0.91515  0.62977  1.0000
  C   C38       1.0  0.10247  0.91517  0.37024  1.0000
  C   C39       1.0  0.39754  0.08484  0.37024  1.0000
  C   C40       1.0  0.89752  0.08484  0.62975  1.0000
  C   C41       1.0  0.67550  0.95789  0.52309  1.0000
  C   C42       1.0  0.17553  0.95789  0.47691  1.0000
  C   C43       1.0  0.32448  0.04211  0.47691  1.0000
  C   C44       1.0  0.82446  0.04212  0.52308  1.0000
  N   N1        1.0  0.25000  0.50000  0.72903  1.0000
  N   N2        1.0  0.75001  0.50000  0.27097  1.0000
  N   N3        1.0  0.24999  0.50000  0.09420  1.0000
  N   N4        1.0  0.75000  0.50000  0.90580  1.0000
  O   O1        1.0  0.44533  0.68581  0.91491  1.0000
  O   O2        1.0  0.94532  0.68582  0.08509  1.0000
  O   O3        1.0  0.55469  0.31419  0.08509  1.0000
  O   O4        1.0  0.05467  0.31417  0.91490  1.0000
  O   O5        1.0  0.34290  0.84092  0.81684  1.0000
  O   O6        1.0  0.84291  0.84091  0.18317  1.0000
  O   O7        1.0  0.65710  0.15910  0.18316  1.0000
  O   O8        1.0  0.15709  0.15910  0.81684  1.0000
  O   O9        1.0  0.11871  0.64017  0.90856  1.0000
  O   O10       1.0  0.61871  0.64019  0.09144  1.0000
  O   O11       1.0  0.88129  0.35982  0.09144  1.0000
  O   O12       1.0  0.38129  0.35982  0.90856  1.0000
