data_image0
_chemical_formula_structural       Zn2H8C8Br4N4
_chemical_formula_sum              "Zn2 H8 C8 Br4 N4"
_cell_length_a       5.92215
_cell_length_b       6.98377
_cell_length_c       9.85014
_cell_angle_alpha    90.0067
_cell_angle_beta     89.9983
_cell_angle_gamma    111.144

_space_group_name_H-M_alt    "P 1"
_space_group_IT_number       1

loop_
  _space_group_symop_operation_xyz
  'x, y, z'

loop_
  _atom_site_type_symbol
  _atom_site_label
  _atom_site_symmetry_multiplicity
  _atom_site_fract_x
  _atom_site_fract_y
  _atom_site_fract_z
  _atom_site_occupancy
  Zn  Zn1       1.0  0.40172  0.47950  0.75000  1.0000
  Zn  Zn2       1.0  0.59831  0.52052  0.25000  1.0000
  H   H1        1.0  0.96708  0.17740  0.89103  1.0000
  H   H2        1.0  0.96708  0.17735  0.60893  1.0000
  H   H3        1.0  0.03288  0.82262  0.10896  1.0000
  H   H4        1.0  0.03290  0.82263  0.39108  1.0000
  H   H5        1.0  0.34203  0.80620  0.93643  1.0000
  H   H6        1.0  0.34210  0.80619  0.56362  1.0000
  H   H7        1.0  0.65793  0.19383  0.06356  1.0000
  H   H8        1.0  0.65793  0.19381  0.43638  1.0000
  C   C1        1.0  0.98083  0.32150  0.93972  1.0000
  C   C2        1.0  0.98083  0.32147  0.56025  1.0000
  C   C3        1.0  0.01917  0.67855  0.06026  1.0000
  C   C4        1.0  0.01915  0.67853  0.43975  1.0000
  C   C5        1.0  0.18944  0.66969  0.96569  1.0000
  C   C6        1.0  0.18948  0.66966  0.53433  1.0000
  C   C7        1.0  0.81049  0.33034  0.03431  1.0000
  C   C8        1.0  0.81050  0.33035  0.46565  1.0000
  Br  Br1       1.0  0.75562  0.77342  0.75002  1.0000
  Br  Br2       1.0  0.24451  0.22653  0.24997  1.0000
  Br  Br3       1.0  0.41553  0.14656  0.75002  1.0000
  Br  Br4       1.0  0.58449  0.85343  0.25003  1.0000
  N   N1        1.0  0.16897  0.49124  0.90603  1.0000
  N   N2        1.0  0.16905  0.49123  0.59399  1.0000
  N   N3        1.0  0.83099  0.50872  0.09393  1.0000
  N   N4        1.0  0.83098  0.50874  0.40604  1.0000
