data_image0
_chemical_formula_structural       Zn2H22C22N2O10
_chemical_formula_sum              "Zn2 H22 C22 N2 O10"
_cell_length_a       5.93747
_cell_length_b       8.53332
_cell_length_c       11.6875
_cell_angle_alpha    104.325
_cell_angle_beta     89.9996
_cell_angle_gamma    90.0012

_space_group_name_H-M_alt    "P 1"
_space_group_IT_number       1

loop_
  _space_group_symop_operation_xyz
  'x, y, z'

loop_
  _atom_site_type_symbol
  _atom_site_label
  _atom_site_symmetry_multiplicity
  _atom_site_fract_x
  _atom_site_fract_y
  _atom_site_fract_z
  _atom_site_occupancy
  Zn  Zn1       1.0  0.22233  0.00713  0.17082  1.0000
  Zn  Zn2       1.0  0.72233  0.99287  0.82917  1.0000
  H   H1        1.0  0.04378  0.41839  0.81368  1.0000
  H   H2        1.0  0.54380  0.58161  0.18632  1.0000
  H   H3        1.0  0.83142  0.69767  0.76852  1.0000
  H   H4        1.0  0.33144  0.30233  0.23149  1.0000
  H   H5        1.0  0.71848  0.64477  0.37675  1.0000
  H   H6        1.0  0.21847  0.35524  0.62325  1.0000
  H   H7        1.0  0.75082  0.55960  0.56411  1.0000
  H   H8        1.0  0.25083  0.44041  0.43589  1.0000
  H   H9        1.0  0.15584  0.83668  0.69591  1.0000
  H   H10       1.0  0.65586  0.16332  0.30408  1.0000
  H   H11       1.0  0.11911  0.91405  0.50501  1.0000
  H   H12       1.0  0.61912  0.08593  0.49497  1.0000
  H   H13       1.0  0.51526  0.52743  0.75226  1.0000
  H   H14       1.0  0.01530  0.47257  0.24775  1.0000
  H   H15       1.0  0.34689  0.69609  0.82036  1.0000
  H   H16       1.0  0.84692  0.30394  0.17964  1.0000
  H   H17       1.0  0.59085  0.74216  0.99122  1.0000
  H   H18       1.0  0.09086  0.25784  0.00878  1.0000
  H   H19       1.0  0.88910  0.54662  0.01809  1.0000
  H   H20       1.0  0.38912  0.45338  0.98191  1.0000
  H   H21       1.0  0.71411  0.46261  0.89500  1.0000
  H   H22       1.0  0.21412  0.53739  0.10500  1.0000
  C   C1        1.0  0.40155  0.84346  0.31928  1.0000
  C   C2        1.0  0.90154  0.15654  0.68071  1.0000
  C   C3        1.0  0.41721  0.78557  0.42968  1.0000
  C   C4        1.0  0.91720  0.21444  0.57032  1.0000
  C   C5        1.0  0.59359  0.68412  0.44626  1.0000
  C   C6        1.0  0.09358  0.31589  0.55374  1.0000
  C   C7        1.0  0.61195  0.63804  0.55212  1.0000
  C   C8        1.0  0.11196  0.36196  0.44788  1.0000
  C   C9        1.0  0.45652  0.69415  0.64364  1.0000
  C   C10       1.0  0.95653  0.30586  0.35636  1.0000
  C   C11       1.0  0.27762  0.79207  0.62545  1.0000
  C   C12       1.0  0.77763  0.20793  0.37454  1.0000
  C   C13       1.0  0.25705  0.83701  0.51924  1.0000
  C   C14       1.0  0.75705  0.16298  0.48076  1.0000
  C   C15       1.0  0.49201  0.65832  0.76214  1.0000
  C   C16       1.0  0.99204  0.34169  0.23787  1.0000
  C   C17       1.0  0.91006  0.85640  0.00024  1.0000
  C   C18       1.0  0.41007  0.14359  0.99976  1.0000
  C   C19       1.0  0.74557  0.72394  0.93790  1.0000
  C   C20       1.0  0.24559  0.27606  0.06210  1.0000
  C   C21       1.0  0.84224  0.55602  0.92895  1.0000
  C   C22       1.0  0.34226  0.44398  0.07105  1.0000
  N   N1        1.0  0.69465  0.74759  0.81900  1.0000
  N   N2        1.0  0.19467  0.25241  0.18101  1.0000
  O   O1        1.0  0.50746  0.77529  0.22689  1.0000
  O   O2        1.0  0.00746  0.22471  0.77311  1.0000
  O   O3        1.0  0.27462  0.96874  0.32578  1.0000
  O   O4        1.0  0.77462  0.03125  0.67422  1.0000
  O   O5        1.0  0.94731  0.97710  0.95690  1.0000
  O   O6        1.0  0.44730  0.02289  0.04309  1.0000
  O   O7        1.0  0.00182  0.83920  0.09463  1.0000
  O   O8        1.0  0.50183  0.16080  0.90537  1.0000
  O   O9        1.0  0.03034  0.53739  0.85100  1.0000
  O   O10       1.0  0.53035  0.46262  0.14900  1.0000
