data_image0
_chemical_formula_structural       Ag4H36C24N20O8
_chemical_formula_sum              "Ag4 H36 C24 N20 O8"
_cell_length_a       9.23163
_cell_length_b       9.76087
_cell_length_c       11.2138
_cell_angle_alpha    89.9999
_cell_angle_beta     111.231
_cell_angle_gamma    90.0008

_space_group_name_H-M_alt    "P 1"
_space_group_IT_number       1

loop_
  _space_group_symop_operation_xyz
  'x, y, z'

loop_
  _atom_site_type_symbol
  _atom_site_label
  _atom_site_symmetry_multiplicity
  _atom_site_fract_x
  _atom_site_fract_y
  _atom_site_fract_z
  _atom_site_occupancy
  Ag  Ag1       1.0  0.25000  0.19634  0.25000  1.0000
  Ag  Ag2       1.0  0.75001  0.80366  0.75000  1.0000
  Ag  Ag3       1.0  0.75000  0.49694  0.75000  1.0000
  Ag  Ag4       1.0  0.25000  0.50306  0.25000  1.0000
  H   H1        1.0  0.07842  0.96994  0.23419  1.0000
  H   H2        1.0  0.42157  0.96994  0.26582  1.0000
  H   H3        1.0  0.92159  0.03005  0.76579  1.0000
  H   H4        1.0  0.57842  0.03005  0.73421  1.0000
  H   H5        1.0  0.93964  0.04318  0.29132  1.0000
  H   H6        1.0  0.56034  0.04318  0.20869  1.0000
  H   H7        1.0  0.06037  0.95681  0.70867  1.0000
  H   H8        1.0  0.43964  0.95681  0.79132  1.0000
  H   H9        1.0  0.88056  0.91236  0.17291  1.0000
  H   H10       1.0  0.61943  0.91236  0.32709  1.0000
  H   H11       1.0  0.11945  0.08763  0.82707  1.0000
  H   H12       1.0  0.38056  0.08764  0.67293  1.0000
  H   H13       1.0  0.78909  0.31600  0.36942  1.0000
  H   H14       1.0  0.71091  0.31601  0.13057  1.0000
  H   H15       1.0  0.21091  0.68398  0.63057  1.0000
  H   H16       1.0  0.28909  0.68399  0.86942  1.0000
  H   H17       1.0  0.79662  0.49716  0.37062  1.0000
  H   H18       1.0  0.70338  0.49717  0.12939  1.0000
  H   H19       1.0  0.20338  0.50283  0.62939  1.0000
  H   H20       1.0  0.29662  0.50283  0.87061  1.0000
  H   H21       1.0  0.07157  0.41579  0.89679  1.0000
  H   H22       1.0  0.42843  0.41579  0.60321  1.0000
  H   H23       1.0  0.92843  0.58422  0.10321  1.0000
  H   H24       1.0  0.57157  0.58422  0.39679  1.0000
  H   H25       1.0  0.21753  0.33207  0.02559  1.0000
  H   H26       1.0  0.28247  0.33207  0.47441  1.0000
  H   H27       1.0  0.78247  0.66794  0.97441  1.0000
  H   H28       1.0  0.71754  0.66793  0.52559  1.0000
  H   H29       1.0  0.55206  0.34293  0.83145  1.0000
  H   H30       1.0  0.94794  0.34293  0.66855  1.0000
  H   H31       1.0  0.44794  0.65707  0.16856  1.0000
  H   H32       1.0  0.05206  0.65707  0.33144  1.0000
  H   H33       1.0  0.50861  0.21868  0.92608  1.0000
  H   H34       1.0  0.99138  0.21868  0.57393  1.0000
  H   H35       1.0  0.49139  0.78132  0.07392  1.0000
  H   H36       1.0  0.00862  0.78131  0.42608  1.0000
  C   C1        1.0  0.98980  0.27665  0.99245  1.0000
  C   C2        1.0  0.51019  0.27666  0.50755  1.0000
  C   C3        1.0  0.01020  0.72335  0.00755  1.0000
  C   C4        1.0  0.48980  0.72335  0.49245  1.0000
  C   C5        1.0  0.73340  0.22548  0.94452  1.0000
  C   C6        1.0  0.76660  0.22549  0.55548  1.0000
  C   C7        1.0  0.26661  0.77452  0.05548  1.0000
  C   C8        1.0  0.23340  0.77452  0.44452  1.0000
  C   C9        1.0  0.91572  0.10759  0.10357  1.0000
  C   C10       1.0  0.58427  0.10759  0.39643  1.0000
  C   C11       1.0  0.08429  0.89240  0.89643  1.0000
  C   C12       1.0  0.41572  0.89241  0.60357  1.0000
  C   C13       1.0  0.95669  0.00154  0.20605  1.0000
  C   C14       1.0  0.54330  0.00154  0.29396  1.0000
  C   C15       1.0  0.04333  0.99845  0.79394  1.0000
  C   C16       1.0  0.45669  0.99845  0.70606  1.0000
  C   C17       1.0  0.97680  0.39957  0.32674  1.0000
  C   C18       1.0  0.52320  0.39957  0.17326  1.0000
  C   C19       1.0  0.02320  0.60043  0.67326  1.0000
  C   C20       1.0  0.47680  0.60043  0.82674  1.0000
  C   C21       1.0  0.80897  0.40499  0.31845  1.0000
  C   C22       1.0  0.69103  0.40499  0.18155  1.0000
  C   C23       1.0  0.19103  0.59500  0.68154  1.0000
  C   C24       1.0  0.30897  0.59501  0.81845  1.0000
  N   N1        1.0  0.10173  0.34592  0.97012  1.0000
  N   N2        1.0  0.39828  0.34593  0.52988  1.0000
  N   N3        1.0  0.89827  0.65409  0.02988  1.0000
  N   N4        1.0  0.60173  0.65409  0.47012  1.0000
  N   N5        1.0  0.58226  0.25520  0.88468  1.0000
  N   N6        1.0  0.91773  0.25521  0.61532  1.0000
  N   N7        1.0  0.41774  0.74480  0.11532  1.0000
  N   N8        1.0  0.08227  0.74480  0.38468  1.0000
  N   N9        1.0  0.84054  0.29918  0.91690  1.0000
  N   N10       1.0  0.65946  0.29919  0.58310  1.0000
  N   N11       1.0  0.15946  0.70083  0.08310  1.0000
  N   N12       1.0  0.34055  0.70083  0.41690  1.0000
  N   N13       1.0  0.03184  0.18556  0.09290  1.0000
  N   N14       1.0  0.46815  0.18556  0.40710  1.0000
  N   N15       1.0  0.96816  0.81444  0.90710  1.0000
  N   N16       1.0  0.53185  0.81445  0.59290  1.0000
  N   N17       1.0  0.76654  0.12127  0.03115  1.0000
  N   N18       1.0  0.73345  0.12128  0.46885  1.0000
  N   N19       1.0  0.23346  0.87872  0.96884  1.0000
  N   N20       1.0  0.26655  0.87872  0.53116  1.0000
  O   O1        1.0  0.01180  0.48222  0.25069  1.0000
  O   O2        1.0  0.48819  0.48222  0.24930  1.0000
  O   O3        1.0  0.98820  0.51778  0.74931  1.0000
  O   O4        1.0  0.51181  0.51779  0.75070  1.0000
  O   O5        1.0  0.07122  0.32027  0.40530  1.0000
  O   O6        1.0  0.42878  0.32027  0.09469  1.0000
  O   O7        1.0  0.92879  0.67973  0.59469  1.0000
  O   O8        1.0  0.57122  0.67973  0.90531  1.0000
