data_image0
_chemical_formula_structural       Ag4H40C26N20O8
_chemical_formula_sum              "Ag4 H40 C26 N20 O8"
_cell_length_a       7.15286
_cell_length_b       11.6368
_cell_length_c       12.6982
_cell_angle_alpha    62.8265
_cell_angle_beta     74.2545
_cell_angle_gamma    75.9313

_space_group_name_H-M_alt    "P 1"
_space_group_IT_number       1

loop_
  _space_group_symop_operation_xyz
  'x, y, z'

loop_
  _atom_site_type_symbol
  _atom_site_label
  _atom_site_symmetry_multiplicity
  _atom_site_fract_x
  _atom_site_fract_y
  _atom_site_fract_z
  _atom_site_occupancy
  Ag  Ag1       1.0  0.03286  0.45917  0.67359  1.0000
  Ag  Ag2       1.0  0.96714  0.54083  0.32641  1.0000
  Ag  Ag3       1.0  0.24874  0.59338  0.43923  1.0000
  Ag  Ag4       1.0  0.75126  0.40662  0.56077  1.0000
  H   H1        1.0  0.91760  0.28170  0.28715  1.0000
  H   H2        1.0  0.08240  0.71830  0.71286  1.0000
  H   H3        1.0  0.00055  0.11805  0.30053  1.0000
  H   H4        1.0  0.99944  0.88195  0.69948  1.0000
  H   H5        1.0  0.74672  0.18317  0.30821  1.0000
  H   H6        1.0  0.25328  0.81683  0.69179  1.0000
  H   H7        1.0  0.54416  0.80040  0.81798  1.0000
  H   H8        1.0  0.45584  0.19960  0.18202  1.0000
  H   H9        1.0  0.35761  0.93418  0.82035  1.0000
  H   H10       1.0  0.64239  0.06582  0.17965  1.0000
  H   H11       1.0  0.60381  0.93898  0.82076  1.0000
  H   H12       1.0  0.39619  0.06102  0.17924  1.0000
  H   H13       1.0  0.85901  0.96154  0.51065  1.0000
  H   H14       1.0  0.14099  0.03847  0.48935  1.0000
  H   H15       1.0  0.66651  0.87117  0.61131  1.0000
  H   H16       1.0  0.33349  0.12884  0.38869  1.0000
  H   H17       1.0  0.59467  0.02376  0.40335  1.0000
  H   H18       1.0  0.40533  0.97624  0.59665  1.0000
  H   H19       1.0  0.78790  0.93422  0.34095  1.0000
  H   H20       1.0  0.21210  0.06578  0.65905  1.0000
  H   H21       1.0  0.42776  0.81658  0.52488  1.0000
  H   H22       1.0  0.57224  0.18342  0.47512  1.0000
  H   H23       1.0  0.45055  0.88154  0.36717  1.0000
  H   H24       1.0  0.54945  0.11846  0.63283  1.0000
  H   H25       1.0  0.17979  0.19680  0.80766  1.0000
  H   H26       1.0  0.82021  0.80320  0.19234  1.0000
  H   H27       1.0  0.22053  0.06800  0.94965  1.0000
  H   H28       1.0  0.77947  0.93200  0.05035  1.0000
  H   H29       1.0  0.67445  0.59219  0.94899  1.0000
  H   H30       1.0  0.32555  0.40781  0.05101  1.0000
  H   H31       1.0  0.76824  0.58375  0.80686  1.0000
  H   H32       1.0  0.23175  0.41625  0.19314  1.0000
  H   H33       1.0  0.66244  0.46863  0.17338  1.0000
  H   H34       1.0  0.33755  0.53137  0.82662  1.0000
  H   H35       1.0  0.53667  0.46794  0.31587  1.0000
  H   H36       1.0  0.46333  0.53206  0.68413  1.0000
  H   H37       1.0  0.12052  0.99406  0.17034  1.0000
  H   H38       1.0  0.87948  0.00593  0.82966  1.0000
  H   H39       1.0  0.13438  0.85834  0.31315  1.0000
  H   H40       1.0  0.86562  0.14166  0.68685  1.0000
  C   C1        1.0  0.04778  0.23458  0.95542  1.0000
  C   C2        1.0  0.95222  0.76542  0.04458  1.0000
  C   C3        1.0  0.91819  0.25672  0.13138  1.0000
  C   C4        1.0  0.08181  0.74328  0.86862  1.0000
  C   C5        1.0  0.84975  0.42324  0.95448  1.0000
  C   C6        1.0  0.15025  0.57676  0.04553  1.0000
  C   C7        1.0  0.89633  0.20597  0.26478  1.0000
  C   C8        1.0  0.10367  0.79403  0.73522  1.0000
  C   C9        1.0  0.29483  0.82827  0.16459  1.0000
  C   C10       1.0  0.70518  0.17173  0.83541  1.0000
  C   C11       1.0  0.45074  0.81344  0.98814  1.0000
  C   C12       1.0  0.54926  0.18655  0.01186  1.0000
  C   C13       1.0  0.49011  0.63850  0.16657  1.0000
  C   C14       1.0  0.50989  0.36150  0.83343  1.0000
  C   C15       1.0  0.49119  0.87469  0.85346  1.0000
  C   C16       1.0  0.50881  0.12531  0.14654  1.0000
  C   C17       1.0  0.91502  0.75840  0.54854  1.0000
  C   C18       1.0  0.08498  0.24160  0.45146  1.0000
  C   C19       1.0  0.77602  0.88448  0.52872  1.0000
  C   C20       1.0  0.22398  0.11553  0.47128  1.0000
  C   C21       1.0  0.67578  0.92591  0.42172  1.0000
  C   C22       1.0  0.32423  0.07409  0.57828  1.0000
  C   C23       1.0  0.53487  0.83558  0.44063  1.0000
  C   C24       1.0  0.46513  0.16442  0.55937  1.0000
  C   C25       1.0  0.63901  0.70599  0.43947  1.0000
  C   C26       1.0  0.36100  0.29400  0.56053  1.0000
  N   N1        1.0  0.96406  0.35675  0.88998  1.0000
  N   N2        1.0  0.03594  0.64325  0.11002  1.0000
  N   N3        1.0  0.02639  0.18004  0.07819  1.0000
  N   N4        1.0  0.97361  0.81996  0.92181  1.0000
  N   N5        1.0  0.82468  0.37618  0.07648  1.0000
  N   N6        1.0  0.17531  0.62382  0.92352  1.0000
  N   N7        1.0  0.15907  0.16146  0.89940  1.0000
  N   N8        1.0  0.84093  0.83854  0.10060  1.0000
  N   N9        1.0  0.75483  0.54177  0.89826  1.0000
  N   N10       1.0  0.24516  0.45823  0.10174  1.0000
  N   N11       1.0  0.36595  0.70278  0.23051  1.0000
  N   N12       1.0  0.63405  0.29722  0.76949  1.0000
  N   N13       1.0  0.33491  0.88766  0.04229  1.0000
  N   N14       1.0  0.66509  0.11233  0.95771  1.0000
  N   N15       1.0  0.53319  0.69075  0.04383  1.0000
  N   N16       1.0  0.46681  0.30925  0.95617  1.0000
  N   N17       1.0  0.57666  0.51741  0.22453  1.0000
  N   N18       1.0  0.42334  0.48259  0.77547  1.0000
  N   N19       1.0  0.17883  0.90001  0.22140  1.0000
  N   N20       1.0  0.82117  0.09999  0.77860  1.0000
  O   O1        1.0  0.08000  0.76531  0.47766  1.0000
  O   O2        1.0  0.92001  0.23469  0.52234  1.0000
  O   O3        1.0  0.85399  0.65425  0.63334  1.0000
  O   O4        1.0  0.14601  0.34575  0.36665  1.0000
  O   O5        1.0  0.79135  0.71058  0.35810  1.0000
  O   O6        1.0  0.20865  0.28942  0.64190  1.0000
  O   O7        1.0  0.56781  0.60314  0.51760  1.0000
  O   O8        1.0  0.43219  0.39686  0.48240  1.0000
