data_image0
_chemical_formula_structural       Ag4H36C32N20O8
_chemical_formula_sum              "Ag4 H36 C32 N20 O8"
_cell_length_a       8.29966
_cell_length_b       10.6134
_cell_length_c       12.4605
_cell_angle_alpha    116.315
_cell_angle_beta     90
_cell_angle_gamma    90.0003

_space_group_name_H-M_alt    "P 1"
_space_group_IT_number       1

loop_
  _space_group_symop_operation_xyz
  'x, y, z'

loop_
  _atom_site_type_symbol
  _atom_site_label
  _atom_site_symmetry_multiplicity
  _atom_site_fract_x
  _atom_site_fract_y
  _atom_site_fract_z
  _atom_site_occupancy
  Ag  Ag1       1.0  0.30010  0.92577  0.37323  1.0000
  Ag  Ag2       1.0  0.80010  0.07422  0.12677  1.0000
  Ag  Ag3       1.0  0.69990  0.07422  0.62676  1.0000
  Ag  Ag4       1.0  0.19991  0.92578  0.87324  1.0000
  H   H1        1.0  0.57146  0.63554  0.79507  1.0000
  H   H2        1.0  0.07146  0.36445  0.70493  1.0000
  H   H3        1.0  0.42854  0.36445  0.20493  1.0000
  H   H4        1.0  0.92853  0.63555  0.29508  1.0000
  H   H5        1.0  0.44600  0.76315  0.77945  1.0000
  H   H6        1.0  0.94600  0.23684  0.72055  1.0000
  H   H7        1.0  0.55400  0.23684  0.22055  1.0000
  H   H8        1.0  0.05399  0.76316  0.27945  1.0000
  H   H9        1.0  0.36577  0.59791  0.75667  1.0000
  H   H10       1.0  0.86577  0.40209  0.74333  1.0000
  H   H11       1.0  0.63423  0.40209  0.24333  1.0000
  H   H12       1.0  0.13422  0.59791  0.25667  1.0000
  H   H13       1.0  0.65101  0.39379  0.61093  1.0000
  H   H14       1.0  0.15100  0.60621  0.88907  1.0000
  H   H15       1.0  0.34899  0.60621  0.38907  1.0000
  H   H16       1.0  0.84899  0.39379  0.11093  1.0000
  H   H17       1.0  0.24514  0.38951  0.39728  1.0000
  H   H18       1.0  0.74514  0.61049  0.10272  1.0000
  H   H19       1.0  0.75486  0.61049  0.60272  1.0000
  H   H20       1.0  0.25485  0.38951  0.89728  1.0000
  H   H21       1.0  0.49644  0.53503  0.11489  1.0000
  H   H22       1.0  0.99644  0.46496  0.38510  1.0000
  H   H23       1.0  0.50355  0.46497  0.88510  1.0000
  H   H24       1.0  0.00355  0.53503  0.61490  1.0000
  H   H25       1.0  0.47990  0.68145  0.26092  1.0000
  H   H26       1.0  0.97990  0.31855  0.23908  1.0000
  H   H27       1.0  0.52010  0.31855  0.73908  1.0000
  H   H28       1.0  0.02010  0.68145  0.76092  1.0000
  H   H29       1.0  0.25692  0.09757  0.26636  1.0000
  H   H30       1.0  0.75691  0.90243  0.23363  1.0000
  H   H31       1.0  0.74308  0.90243  0.73363  1.0000
  H   H32       1.0  0.24309  0.09757  0.76636  1.0000
  H   H33       1.0  0.20751  0.09771  0.12783  1.0000
  H   H34       1.0  0.70751  0.90229  0.37216  1.0000
  H   H35       1.0  0.79249  0.90229  0.87217  1.0000
  H   H36       1.0  0.29250  0.09771  0.62784  1.0000
  C   C1        1.0  0.42804  0.71795  0.11513  1.0000
  C   C2        1.0  0.92804  0.28205  0.38487  1.0000
  C   C3        1.0  0.57197  0.28206  0.88487  1.0000
  C   C4        1.0  0.07197  0.71795  0.61513  1.0000
  C   C5        1.0  0.41240  0.73927  0.94106  1.0000
  C   C6        1.0  0.91241  0.26072  0.55894  1.0000
  C   C7        1.0  0.58759  0.26072  0.05894  1.0000
  C   C8        1.0  0.08759  0.73928  0.44106  1.0000
  C   C9        1.0  0.45063  0.68173  0.81088  1.0000
  C   C10       1.0  0.95063  0.31827  0.68912  1.0000
  C   C11       1.0  0.54937  0.31827  0.18912  1.0000
  C   C12       1.0  0.04936  0.68174  0.31088  1.0000
  C   C13       1.0  0.32185  0.92009  0.11670  1.0000
  C   C14       1.0  0.82185  0.07991  0.38330  1.0000
  C   C15       1.0  0.67816  0.07991  0.88330  1.0000
  C   C16       1.0  0.17817  0.92009  0.61670  1.0000
  C   C17       1.0  0.38152  0.24588  0.50725  1.0000
  C   C18       1.0  0.88151  0.75412  0.99275  1.0000
  C   C19       1.0  0.61849  0.75412  0.49275  1.0000
  C   C20       1.0  0.11848  0.24588  0.00725  1.0000
  C   C21       1.0  0.58574  0.44072  0.56202  1.0000
  C   C22       1.0  0.08574  0.55928  0.93798  1.0000
  C   C23       1.0  0.41426  0.55928  0.43798  1.0000
  C   C24       1.0  0.91426  0.44072  0.06202  1.0000
  C   C25       1.0  0.44194  0.37797  0.50455  1.0000
  C   C26       1.0  0.94194  0.62203  0.99545  1.0000
  C   C27       1.0  0.55806  0.62203  0.49545  1.0000
  C   C28       1.0  0.05806  0.37797  0.00455  1.0000
  C   C29       1.0  0.35646  0.43869  0.44236  1.0000
  C   C30       1.0  0.85646  0.56131  0.05764  1.0000
  C   C31       1.0  0.64354  0.56131  0.55764  1.0000
  C   C32       1.0  0.14354  0.43869  0.94236  1.0000
  N   N1        1.0  0.36858  0.84953  0.17977  1.0000
  N   N2        1.0  0.86858  0.15047  0.32023  1.0000
  N   N3        1.0  0.63141  0.15047  0.82023  1.0000
  N   N4        1.0  0.13142  0.84953  0.67977  1.0000
  N   N5        1.0  0.45505  0.66099  0.99510  1.0000
  N   N6        1.0  0.95505  0.33901  0.50490  1.0000
  N   N7        1.0  0.54495  0.33901  0.00490  1.0000
  N   N8        1.0  0.04495  0.66099  0.49510  1.0000
  N   N9        1.0  0.46228  0.63743  0.16953  1.0000
  N   N10       1.0  0.96228  0.36257  0.33047  1.0000
  N   N11       1.0  0.53772  0.36257  0.83047  1.0000
  N   N12       1.0  0.03772  0.63743  0.66953  1.0000
  N   N13       1.0  0.33826  0.86468  0.99488  1.0000
  N   N14       1.0  0.83826  0.13532  0.50511  1.0000
  N   N15       1.0  0.66174  0.13532  0.00512  1.0000
  N   N16       1.0  0.16174  0.86468  0.49488  1.0000
  N   N17       1.0  0.25737  0.04740  0.17416  1.0000
  N   N18       1.0  0.75737  0.95259  0.32584  1.0000
  N   N19       1.0  0.74263  0.95260  0.82584  1.0000
  N   N20       1.0  0.24264  0.04740  0.67416  1.0000
  O   O1        1.0  0.28370  0.17019  0.42504  1.0000
  O   O2        1.0  0.78369  0.82980  0.07496  1.0000
  O   O3        1.0  0.71630  0.82981  0.57496  1.0000
  O   O4        1.0  0.21631  0.17020  0.92504  1.0000
  O   O5        1.0  0.43042  0.21570  0.59023  1.0000
  O   O6        1.0  0.93042  0.78431  0.90977  1.0000
  O   O7        1.0  0.56959  0.78431  0.40977  1.0000
  O   O8        1.0  0.06958  0.21569  0.09023  1.0000
