data_image0
_chemical_formula_structural       Zn3H36C52N10O10
_chemical_formula_sum              "Zn3 H36 C52 N10 O10"
_cell_length_a       9.16336
_cell_length_b       11.292
_cell_length_c       12.541
_cell_angle_alpha    66.5282
_cell_angle_beta     85.9114
_cell_angle_gamma    85.0934

_space_group_name_H-M_alt    "P 1"
_space_group_IT_number       1

loop_
  _space_group_symop_operation_xyz
  'x, y, z'

loop_
  _atom_site_type_symbol
  _atom_site_label
  _atom_site_symmetry_multiplicity
  _atom_site_fract_x
  _atom_site_fract_y
  _atom_site_fract_z
  _atom_site_occupancy
  Zn  Zn1       1.0  1.00000  0.50000  1.00000  1.0000
  Zn  Zn2       1.0  0.69945  0.54141  0.84549  1.0000
  Zn  Zn3       1.0  0.30055  0.45859  0.15451  1.0000
  H   H1        1.0  0.95600  0.68923  0.53266  1.0000
  H   H2        1.0  0.04400  0.31077  0.46735  1.0000
  H   H3        1.0  0.12814  0.73263  0.35862  1.0000
  H   H4        1.0  0.87186  0.26737  0.64138  1.0000
  H   H5        1.0  0.34534  0.58170  0.36960  1.0000
  H   H6        1.0  0.65466  0.41830  0.63040  1.0000
  H   H7        1.0  0.39740  0.39459  0.55479  1.0000
  H   H8        1.0  0.60260  0.60541  0.44521  1.0000
  H   H9        1.0  0.50273  0.18736  0.96154  1.0000
  H   H10       1.0  0.49727  0.81264  0.03846  1.0000
  H   H11       1.0  0.34848  0.99846  0.01822  1.0000
  H   H12       1.0  0.65152  0.00154  0.98178  1.0000
  H   H13       1.0  0.12486  0.01928  0.90574  1.0000
  H   H14       1.0  0.87515  0.98072  0.09426  1.0000
  H   H15       1.0  0.06692  0.22339  0.73678  1.0000
  H   H16       1.0  0.93309  0.77661  0.26321  1.0000
  H   H17       1.0  0.15762  0.22835  0.04050  1.0000
  H   H18       1.0  0.84238  0.77164  0.95951  1.0000
  H   H19       1.0  0.15507  0.00169  0.19253  1.0000
  H   H20       1.0  0.84493  0.99831  0.80747  1.0000
  H   H21       1.0  0.97774  0.95601  0.36639  1.0000
  H   H22       1.0  0.02225  0.04399  0.63361  1.0000
  H   H23       1.0  0.81883  0.35663  0.21051  1.0000
  H   H24       1.0  0.18117  0.64337  0.78949  1.0000
  H   H25       1.0  0.74391  0.79320  0.65150  1.0000
  H   H26       1.0  0.25610  0.20680  0.34850  1.0000
  H   H27       1.0  0.41686  0.07026  0.69621  1.0000
  H   H28       1.0  0.58314  0.92974  0.30379  1.0000
  H   H29       1.0  0.31768  0.88744  0.87101  1.0000
  H   H30       1.0  0.68232  0.11256  0.12899  1.0000
  H   H31       1.0  0.43623  0.66595  0.92682  1.0000
  H   H32       1.0  0.56378  0.33404  0.07318  1.0000
  H   H33       1.0  0.64826  0.31347  0.35238  1.0000
  H   H34       1.0  0.35174  0.68653  0.64762  1.0000
  H   H35       1.0  0.72474  0.54086  0.04610  1.0000
  H   H36       1.0  0.27526  0.45914  0.95390  1.0000
  C   C1        1.0  0.98189  0.50611  0.74590  1.0000
  C   C2        1.0  0.01811  0.49389  0.25410  1.0000
  C   C3        1.0  0.08364  0.52208  0.64243  1.0000
  C   C4        1.0  0.91636  0.47792  0.35757  1.0000
  C   C5        1.0  0.05476  0.62673  0.53663  1.0000
  C   C6        1.0  0.94524  0.37327  0.46337  1.0000
  C   C7        1.0  0.14981  0.64985  0.43985  1.0000
  C   C8        1.0  0.85019  0.35015  0.56015  1.0000
  C   C9        1.0  0.27321  0.56620  0.44621  1.0000
  C   C10       1.0  0.72678  0.43380  0.55379  1.0000
  C   C11       1.0  0.30224  0.46132  0.55025  1.0000
  C   C12       1.0  0.69776  0.53868  0.44975  1.0000
  C   C13       1.0  0.21021  0.43914  0.64983  1.0000
  C   C14       1.0  0.78979  0.56086  0.35017  1.0000
  C   C15       1.0  0.24649  0.32242  0.75633  1.0000
  C   C16       1.0  0.75351  0.67758  0.24367  1.0000
  C   C17       1.0  0.36977  0.31135  0.82177  1.0000
  C   C18       1.0  0.63023  0.68865  0.17823  1.0000
  C   C19       1.0  0.45609  0.42576  0.80422  1.0000
  C   C20       1.0  0.54391  0.57424  0.19577  1.0000
  C   C21       1.0  0.40620  0.19322  0.91360  1.0000
  C   C22       1.0  0.59380  0.80679  0.08640  1.0000
  C   C23       1.0  0.31950  0.08829  0.94497  1.0000
  C   C24       1.0  0.68050  0.91172  0.05503  1.0000
  C   C25       1.0  0.19524  0.09995  0.88211  1.0000
  C   C26       1.0  0.80476  0.90005  0.11789  1.0000
  C   C27       1.0  0.16180  0.21482  0.78763  1.0000
  C   C28       1.0  0.83821  0.78518  0.21236  1.0000
  C   C29       1.0  0.08145  0.20312  0.11581  1.0000
  C   C30       1.0  0.91855  0.79688  0.88419  1.0000
  C   C31       1.0  0.07921  0.07751  0.20103  1.0000
  C   C32       1.0  0.92079  0.92249  0.79897  1.0000
  C   C33       1.0  0.98153  0.05192  0.29661  1.0000
  C   C34       1.0  0.01847  0.94808  0.70339  1.0000
  C   C35       1.0  0.88513  0.15284  0.30274  1.0000
  C   C36       1.0  0.11487  0.84717  0.69726  1.0000
  C   C37       1.0  0.89264  0.27502  0.21196  1.0000
  C   C38       1.0  0.10736  0.72498  0.78804  1.0000
  C   C39       1.0  0.77839  0.13032  0.39937  1.0000
  C   C40       1.0  0.22161  0.86968  0.60063  1.0000
  C   C41       1.0  0.64836  0.04353  0.55386  1.0000
  C   C42       1.0  0.35164  0.95647  0.44614  1.0000
  C   C43       1.0  0.58835  0.94557  0.65990  1.0000
  C   C44       1.0  0.41164  0.05443  0.34010  1.0000
  C   C45       1.0  0.65008  0.81838  0.69843  1.0000
  C   C46       1.0  0.34992  0.18162  0.30157  1.0000
  C   C47       1.0  0.46751  0.97228  0.72364  1.0000
  C   C48       1.0  0.53249  0.02772  0.27637  1.0000
  C   C49       1.0  0.41261  0.87114  0.82041  1.0000
  C   C50       1.0  0.58739  0.12886  0.17959  1.0000
  C   C51       1.0  0.47871  0.74714  0.85248  1.0000
  C   C52       1.0  0.52129  0.25286  0.14753  1.0000
  N   N1        1.0  0.99017  0.29974  0.12216  1.0000
  N   N2        1.0  0.00983  0.70026  0.87784  1.0000
  N   N3        1.0  0.76537  0.01803  0.49093  1.0000
  N   N4        1.0  0.23463  0.98197  0.50907  1.0000
  N   N5        1.0  0.67287  0.21857  0.40893  1.0000
  N   N6        1.0  0.32713  0.78143  0.59107  1.0000
  N   N7        1.0  0.58888  0.16533  0.50648  1.0000
  N   N8        1.0  0.41112  0.83467  0.49352  1.0000
  N   N9        1.0  0.59680  0.72216  0.79249  1.0000
  N   N10       1.0  0.40320  0.27784  0.20751  1.0000
  O   O1        1.0  0.02644  0.44270  0.84754  1.0000
  O   O2        1.0  0.97356  0.55730  0.15246  1.0000
  O   O3        1.0  0.85333  0.56345  0.72214  1.0000
  O   O4        1.0  0.14668  0.43655  0.27786  1.0000
  O   O5        1.0  0.39967  0.53844  0.75405  1.0000
  O   O6        1.0  0.60034  0.46156  0.24595  1.0000
  O   O7        1.0  0.58343  0.39874  0.84976  1.0000
  O   O8        1.0  0.41657  0.60127  0.15023  1.0000
  O   O9        1.0  0.77599  0.50175  0.99661  1.0000
  O   O10       1.0  0.22401  0.49825  0.00339  1.0000
