data_image0
_chemical_formula_structural       MnH16C18N14O2
_chemical_formula_sum              "Mn1 H16 C18 N14 O2"
_cell_length_a       7.23314
_cell_length_b       7.4551
_cell_length_c       9.47604
_cell_angle_alpha    100.297
_cell_angle_beta     96.9252
_cell_angle_gamma    109.986

_space_group_name_H-M_alt    "P 1"
_space_group_IT_number       1

loop_
  _space_group_symop_operation_xyz
  'x, y, z'

loop_
  _atom_site_type_symbol
  _atom_site_label
  _atom_site_symmetry_multiplicity
  _atom_site_fract_x
  _atom_site_fract_y
  _atom_site_fract_z
  _atom_site_occupancy
  Mn  Mn1       1.0  0.50000  0.50000  0.50000  1.0000
  H   H1        1.0  0.72581  0.87536  0.47664  1.0000
  H   H2        1.0  0.27419  0.12465  0.52336  1.0000
  H   H3        1.0  0.81623  0.72102  0.39789  1.0000
  H   H4        1.0  0.18377  0.27898  0.60211  1.0000
  H   H5        1.0  0.07161  0.19654  0.36753  1.0000
  H   H6        1.0  0.92839  0.80347  0.63247  1.0000
  H   H7        1.0  0.88388  0.89073  0.17905  1.0000
  H   H8        1.0  0.11613  0.10927  0.82096  1.0000
  H   H9        1.0  0.67471  0.22066  0.91162  1.0000
  H   H10       1.0  0.32528  0.77933  0.08838  1.0000
  H   H11       1.0  0.86280  0.52566  0.10032  1.0000
  H   H12       1.0  0.13719  0.47434  0.89968  1.0000
  H   H13       1.0  0.52169  0.40116  0.81236  1.0000
  H   H14       1.0  0.47831  0.59884  0.18765  1.0000
  H   H15       1.0  0.62718  0.95367  0.71986  1.0000
  H   H16       1.0  0.37282  0.04633  0.28014  1.0000
  C   C1        1.0  0.10644  0.56902  0.35327  1.0000
  C   C2        1.0  0.89356  0.43098  0.64673  1.0000
  C   C3        1.0  0.98587  0.38413  0.24726  1.0000
  C   C4        1.0  0.01413  0.61587  0.75274  1.0000
  C   C5        1.0  0.98518  0.20242  0.26792  1.0000
  C   C6        1.0  0.01482  0.79758  0.73208  1.0000
  C   C7        1.0  0.87905  0.02985  0.16242  1.0000
  C   C8        1.0  0.12095  0.97015  0.83758  1.0000
  C   C9        1.0  0.77107  0.03708  0.03236  1.0000
  C   C10       1.0  0.22893  0.96292  0.96764  1.0000
  C   C11       1.0  0.76313  0.21548  0.01116  1.0000
  C   C12       1.0  0.23687  0.78452  0.98884  1.0000
  C   C13       1.0  0.86893  0.38732  0.11820  1.0000
  C   C14       1.0  0.13106  0.61268  0.88180  1.0000
  C   C15       1.0  0.56909  0.55845  0.82630  1.0000
  C   C16       1.0  0.43091  0.44155  0.17370  1.0000
  C   C17       1.0  0.61670  0.83755  0.77603  1.0000
  C   C18       1.0  0.38331  0.16245  0.22397  1.0000
  N   N1        1.0  0.28396  0.61549  0.44777  1.0000
  N   N2        1.0  0.71603  0.38451  0.55223  1.0000
  N   N3        1.0  0.34189  0.80813  0.51248  1.0000
  N   N4        1.0  0.65811  0.19187  0.48752  1.0000
  N   N5        1.0  0.20802  0.87430  0.46206  1.0000
  N   N6        1.0  0.79198  0.12570  0.53794  1.0000
  N   N7        1.0  0.05749  0.72961  0.36304  1.0000
  N   N8        1.0  0.94251  0.27039  0.63696  1.0000
  N   N9        1.0  0.67463  0.86197  0.92182  1.0000
  N   N10       1.0  0.32538  0.13803  0.07818  1.0000
  N   N11       1.0  0.64398  0.68425  0.95476  1.0000
  N   N12       1.0  0.35602  0.31575  0.04524  1.0000
  N   N13       1.0  0.55169  0.64566  0.71184  1.0000
  N   N14       1.0  0.44831  0.35434  0.28817  1.0000
  O   O1        1.0  0.69579  0.73124  0.43562  1.0000
  O   O2        1.0  0.30421  0.26877  0.56438  1.0000
