data_image0
_chemical_formula_structural       La4H18C36N6O24
_chemical_formula_sum              "La4 H18 C36 N6 O24"
_cell_length_a       6.65703
_cell_length_b       7.72703
_cell_length_c       18.5099
_cell_angle_alpha    89.9999
_cell_angle_beta     89.9166
_cell_angle_gamma    89.9999

_space_group_name_H-M_alt    "P 1"
_space_group_IT_number       1

loop_
  _space_group_symop_operation_xyz
  'x, y, z'

loop_
  _atom_site_type_symbol
  _atom_site_label
  _atom_site_symmetry_multiplicity
  _atom_site_fract_x
  _atom_site_fract_y
  _atom_site_fract_z
  _atom_site_occupancy
  La  La1       1.0  0.06133  0.59948  0.89423  1.0000
  La  La2       1.0  0.43867  0.59948  0.60577  1.0000
  La  La3       1.0  0.93867  0.40052  0.10577  1.0000
  La  La4       1.0  0.56133  0.40052  0.39423  1.0000
  H   H1        1.0  0.42262  0.52483  0.08152  1.0000
  H   H2        1.0  0.07737  0.52483  0.41848  1.0000
  H   H3        1.0  0.57737  0.47517  0.91848  1.0000
  H   H4        1.0  0.92263  0.47517  0.58152  1.0000
  H   H5        1.0  0.75000  0.72584  0.75000  1.0000
  H   H6        1.0  0.25000  0.27416  0.25000  1.0000
  H   H7        1.0  0.13634  0.99322  0.03177  1.0000
  H   H8        1.0  0.36366  0.99322  0.46823  1.0000
  H   H9        1.0  0.86365  0.00678  0.96823  1.0000
  H   H10       1.0  0.63635  0.00678  0.53177  1.0000
  H   H11       1.0  0.71657  0.98871  0.13663  1.0000
  H   H12       1.0  0.78343  0.98871  0.36337  1.0000
  H   H13       1.0  0.28343  0.01129  0.86337  1.0000
  H   H14       1.0  0.21657  0.01129  0.63663  1.0000
  H   H15       1.0  0.02838  0.19208  0.81042  1.0000
  H   H16       1.0  0.47162  0.19208  0.68958  1.0000
  H   H17       1.0  0.97162  0.80792  0.18958  1.0000
  H   H18       1.0  0.52838  0.80792  0.31042  1.0000
  C   C1        1.0  0.26028  0.74153  0.05370  1.0000
  C   C2        1.0  0.23972  0.74153  0.44630  1.0000
  C   C3        1.0  0.73972  0.25847  0.94630  1.0000
  C   C4        1.0  0.76028  0.25848  0.55370  1.0000
  C   C5        1.0  0.26199  0.92215  0.05436  1.0000
  C   C6        1.0  0.23800  0.92215  0.44564  1.0000
  C   C7        1.0  0.73800  0.07785  0.94564  1.0000
  C   C8        1.0  0.76200  0.07785  0.55436  1.0000
  C   C9        1.0  0.42771  0.00886  0.08393  1.0000
  C   C10       1.0  0.07229  0.00886  0.41607  1.0000
  C   C11       1.0  0.57229  0.99114  0.91607  1.0000
  C   C12       1.0  0.92771  0.99114  0.58393  1.0000
  C   C13       1.0  0.43216  0.20367  0.08435  1.0000
  C   C14       1.0  0.06784  0.20367  0.41565  1.0000
  C   C15       1.0  0.56784  0.79633  0.91565  1.0000
  C   C16       1.0  0.93216  0.79633  0.58435  1.0000
  C   C17       1.0  0.59006  0.92003  0.11297  1.0000
  C   C18       1.0  0.90994  0.92003  0.38703  1.0000
  C   C19       1.0  0.40994  0.07997  0.88703  1.0000
  C   C20       1.0  0.09006  0.07997  0.61297  1.0000
  C   C21       1.0  0.59078  0.73780  0.11184  1.0000
  C   C22       1.0  0.90922  0.73780  0.38816  1.0000
  C   C23       1.0  0.40922  0.26219  0.88816  1.0000
  C   C24       1.0  0.09078  0.26220  0.61184  1.0000
  C   C25       1.0  0.75000  0.40416  0.75000  1.0000
  C   C26       1.0  0.25000  0.59584  0.25000  1.0000
  C   C27       1.0  0.75000  0.20978  0.75000  1.0000
  C   C28       1.0  0.25000  0.79022  0.25000  1.0000
  C   C29       1.0  0.90687  0.12233  0.78418  1.0000
  C   C30       1.0  0.59314  0.12232  0.71582  1.0000
  C   C31       1.0  0.09314  0.87767  0.21582  1.0000
  C   C32       1.0  0.40687  0.87767  0.28418  1.0000
  C   C33       1.0  0.90565  0.94071  0.78559  1.0000
  C   C34       1.0  0.59435  0.94070  0.71441  1.0000
  C   C35       1.0  0.09435  0.05930  0.21441  1.0000
  C   C36       1.0  0.40565  0.05930  0.28559  1.0000
  N   N1        1.0  0.42492  0.65817  0.08196  1.0000
  N   N2        1.0  0.07508  0.65817  0.41804  1.0000
  N   N3        1.0  0.57508  0.34183  0.91804  1.0000
  N   N4        1.0  0.92492  0.34183  0.58196  1.0000
  N   N5        1.0  0.75000  0.85901  0.75000  1.0000
  N   N6        1.0  0.25000  0.14099  0.25000  1.0000
  O   O1        1.0  0.11577  0.64419  0.02776  1.0000
  O   O2        1.0  0.38422  0.64419  0.47224  1.0000
  O   O3        1.0  0.88422  0.35581  0.97224  1.0000
  O   O4        1.0  0.61578  0.35581  0.52776  1.0000
  O   O5        1.0  0.26970  0.28530  0.07193  1.0000
  O   O6        1.0  0.23030  0.28530  0.42807  1.0000
  O   O7        1.0  0.73030  0.71469  0.92807  1.0000
  O   O8        1.0  0.76971  0.71470  0.57193  1.0000
  O   O9        1.0  0.59752  0.28043  0.09635  1.0000
  O   O10       1.0  0.90248  0.28043  0.40365  1.0000
  O   O11       1.0  0.40247  0.71957  0.90365  1.0000
  O   O12       1.0  0.09753  0.71957  0.59635  1.0000
  O   O13       1.0  0.73362  0.64224  0.13593  1.0000
  O   O14       1.0  0.76638  0.64224  0.36407  1.0000
  O   O15       1.0  0.26638  0.35776  0.86407  1.0000
  O   O16       1.0  0.23362  0.35776  0.63593  1.0000
  O   O17       1.0  0.85705  0.48374  0.79623  1.0000
  O   O18       1.0  0.64294  0.48374  0.70377  1.0000
  O   O19       1.0  0.14294  0.51626  0.20377  1.0000
  O   O20       1.0  0.35706  0.51626  0.29623  1.0000
  O   O21       1.0  0.03679  0.84601  0.81843  1.0000
  O   O22       1.0  0.46322  0.84601  0.68157  1.0000
  O   O23       1.0  0.96322  0.15399  0.18157  1.0000
  O   O24       1.0  0.53678  0.15399  0.31843  1.0000
