data_image0
_chemical_formula_structural       Sm4H18C36N6O24
_chemical_formula_sum              "Sm4 H18 C36 N6 O24"
_cell_length_a       6.52736
_cell_length_b       7.65056
_cell_length_c       18.1933
_cell_angle_alpha    90
_cell_angle_beta     90.2076
_cell_angle_gamma    90

_space_group_name_H-M_alt    "P 1"
_space_group_IT_number       1

loop_
  _space_group_symop_operation_xyz
  'x, y, z'

loop_
  _atom_site_type_symbol
  _atom_site_label
  _atom_site_symmetry_multiplicity
  _atom_site_fract_x
  _atom_site_fract_y
  _atom_site_fract_z
  _atom_site_occupancy
  Sm  Sm1       1.0  0.55710  0.40444  0.89591  1.0000
  Sm  Sm2       1.0  0.94290  0.40444  0.60409  1.0000
  Sm  Sm3       1.0  0.44290  0.59556  0.10409  1.0000
  Sm  Sm4       1.0  0.05710  0.59556  0.39591  1.0000
  H   H1        1.0  0.22469  0.00756  0.13705  1.0000
  H   H2        1.0  0.27531  0.00756  0.36295  1.0000
  H   H3        1.0  0.77531  0.99244  0.86294  1.0000
  H   H4        1.0  0.72469  0.99244  0.63706  1.0000
  H   H5        1.0  0.63118  0.00172  0.03128  1.0000
  H   H6        1.0  0.86883  0.00172  0.46872  1.0000
  H   H7        1.0  0.36882  0.99828  0.96872  1.0000
  H   H8        1.0  0.13118  0.99828  0.53128  1.0000
  H   H9        1.0  0.53203  0.81225  0.81264  1.0000
  H   H10       1.0  0.96797  0.81225  0.68736  1.0000
  H   H11       1.0  0.46797  0.18775  0.18736  1.0000
  H   H12       1.0  0.03203  0.18775  0.31264  1.0000
  H   H13       1.0  0.92348  0.47556  0.07999  1.0000
  H   H14       1.0  0.57653  0.47556  0.42001  1.0000
  H   H15       1.0  0.07653  0.52444  0.92001  1.0000
  H   H16       1.0  0.42348  0.52444  0.57999  1.0000
  H   H17       1.0  0.25000  0.28360  0.75000  1.0000
  H   H18       1.0  0.75000  0.71640  0.25000  1.0000
  C   C1        1.0  0.75799  0.25646  0.05283  1.0000
  C   C2        1.0  0.74201  0.25647  0.44717  1.0000
  C   C3        1.0  0.24201  0.74353  0.94717  1.0000
  C   C4        1.0  0.25799  0.74353  0.55283  1.0000
  C   C5        1.0  0.09647  0.26157  0.11121  1.0000
  C   C6        1.0  0.40354  0.26157  0.38879  1.0000
  C   C7        1.0  0.90354  0.73843  0.88879  1.0000
  C   C8        1.0  0.59646  0.73843  0.61121  1.0000
  C   C9        1.0  0.09535  0.07756  0.11326  1.0000
  C   C10       1.0  0.40465  0.07756  0.38675  1.0000
  C   C11       1.0  0.90465  0.92244  0.88674  1.0000
  C   C12       1.0  0.59535  0.92244  0.61326  1.0000
  C   C13       1.0  0.75934  0.07429  0.05398  1.0000
  C   C14       1.0  0.74067  0.07428  0.44602  1.0000
  C   C15       1.0  0.24067  0.92571  0.94602  1.0000
  C   C16       1.0  0.25933  0.92571  0.55398  1.0000
  C   C17       1.0  0.92945  0.98735  0.08411  1.0000
  C   C18       1.0  0.57055  0.98735  0.41589  1.0000
  C   C19       1.0  0.07055  0.01265  0.91589  1.0000
  C   C20       1.0  0.42945  0.01265  0.58411  1.0000
  C   C21       1.0  0.93614  0.79074  0.08460  1.0000
  C   C22       1.0  0.56386  0.79074  0.41540  1.0000
  C   C23       1.0  0.06386  0.20926  0.91540  1.0000
  C   C24       1.0  0.43614  0.20926  0.58460  1.0000
  C   C25       1.0  0.40758  0.06681  0.78701  1.0000
  C   C26       1.0  0.09242  0.06681  0.71299  1.0000
  C   C27       1.0  0.59243  0.93319  0.21299  1.0000
  C   C28       1.0  0.90757  0.93319  0.28701  1.0000
  C   C29       1.0  0.40945  0.88350  0.78535  1.0000
  C   C30       1.0  0.09054  0.88350  0.71465  1.0000
  C   C31       1.0  0.59055  0.11650  0.21465  1.0000
  C   C32       1.0  0.90946  0.11650  0.28535  1.0000
  C   C33       1.0  0.25000  0.79535  0.75000  1.0000
  C   C34       1.0  0.75000  0.20466  0.25000  1.0000
  C   C35       1.0  0.25000  0.59905  0.75000  1.0000
  C   C36       1.0  0.75000  0.40095  0.25000  1.0000
  N   N1        1.0  0.92666  0.34088  0.08078  1.0000
  N   N2        1.0  0.57334  0.34088  0.41922  1.0000
  N   N3        1.0  0.07334  0.65911  0.91922  1.0000
  N   N4        1.0  0.42666  0.65912  0.58078  1.0000
  N   N5        1.0  0.25000  0.14905  0.75000  1.0000
  N   N6        1.0  0.75000  0.85095  0.25000  1.0000
  O   O1        1.0  0.61024  0.35579  0.02638  1.0000
  O   O2        1.0  0.88975  0.35579  0.47362  1.0000
  O   O3        1.0  0.38976  0.64421  0.97362  1.0000
  O   O4        1.0  0.11025  0.64421  0.52638  1.0000
  O   O5        1.0  0.24338  0.35830  0.13480  1.0000
  O   O6        1.0  0.25662  0.35830  0.36520  1.0000
  O   O7        1.0  0.75662  0.64170  0.86520  1.0000
  O   O8        1.0  0.74338  0.64170  0.63480  1.0000
  O   O9        1.0  0.10602  0.71434  0.09602  1.0000
  O   O10       1.0  0.39399  0.71434  0.40398  1.0000
  O   O11       1.0  0.89398  0.28566  0.90398  1.0000
  O   O12       1.0  0.60602  0.28566  0.59602  1.0000
  O   O13       1.0  0.77094  0.70686  0.07241  1.0000
  O   O14       1.0  0.72906  0.70686  0.42759  1.0000
  O   O15       1.0  0.22906  0.29314  0.92758  1.0000
  O   O16       1.0  0.27093  0.29314  0.57242  1.0000
  O   O17       1.0  0.54004  0.16234  0.82137  1.0000
  O   O18       1.0  0.95996  0.16235  0.67863  1.0000
  O   O19       1.0  0.45996  0.83765  0.17863  1.0000
  O   O20       1.0  0.04004  0.83765  0.32137  1.0000
  O   O21       1.0  0.35573  0.51850  0.79824  1.0000
  O   O22       1.0  0.14427  0.51850  0.70176  1.0000
  O   O23       1.0  0.64427  0.48150  0.20176  1.0000
  O   O24       1.0  0.85573  0.48150  0.29824  1.0000
