data_image0
_chemical_formula_structural       Co2H40C24O16
_chemical_formula_sum              "Co2 H40 C24 O16"
_cell_length_a       7.23678
_cell_length_b       10.595
_cell_length_c       10.5949
_cell_angle_alpha    76.2541
_cell_angle_beta     75.8757
_cell_angle_gamma    75.8757

_space_group_name_H-M_alt    "P 1"
_space_group_IT_number       1

loop_
  _space_group_symop_operation_xyz
  'x, y, z'

loop_
  _atom_site_type_symbol
  _atom_site_label
  _atom_site_symmetry_multiplicity
  _atom_site_fract_x
  _atom_site_fract_y
  _atom_site_fract_z
  _atom_site_occupancy
  Co  Co1       1.0  0.50000  0.50000  1.00000  1.0000
  Co  Co2       1.0  1.00000  0.00000  0.50000  1.0000
  H   H1        1.0  0.22152  0.28179  0.98320  1.0000
  H   H2        1.0  0.27849  0.01680  0.71821  1.0000
  H   H3        1.0  0.77847  0.71821  0.01680  1.0000
  H   H4        1.0  0.72151  0.98320  0.28180  1.0000
  H   H5        1.0  0.25001  0.24303  0.75696  1.0000
  H   H6        1.0  0.74998  0.75697  0.24304  1.0000
  H   H7        1.0  0.25002  0.86464  0.13535  1.0000
  H   H8        1.0  0.74999  0.13535  0.86465  1.0000
  H   H9        1.0  0.25892  0.33954  0.16293  1.0000
  H   H10       1.0  0.24108  0.83707  0.66046  1.0000
  H   H11       1.0  0.74108  0.66046  0.83706  1.0000
  H   H12       1.0  0.75892  0.16293  0.33954  1.0000
  H   H13       1.0  0.07916  0.61759  0.13243  1.0000
  H   H14       1.0  0.42085  0.86757  0.38241  1.0000
  H   H15       1.0  0.92085  0.38242  0.86757  1.0000
  H   H16       1.0  0.57915  0.13243  0.61758  1.0000
  H   H17       1.0  0.03124  0.49713  0.28045  1.0000
  H   H18       1.0  0.46877  0.71955  0.50287  1.0000
  H   H19       1.0  0.96876  0.50287  0.71955  1.0000
  H   H20       1.0  0.53124  0.28045  0.49712  1.0000
  H   H21       1.0  0.96297  0.48642  0.13256  1.0000
  H   H22       1.0  0.53703  0.86745  0.51358  1.0000
  H   H23       1.0  0.03703  0.51358  0.86744  1.0000
  H   H24       1.0  0.46297  0.13256  0.48642  1.0000
  H   H25       1.0  0.33491  0.60529  0.81117  1.0000
  H   H26       1.0  0.16509  0.18883  0.39471  1.0000
  H   H27       1.0  0.66509  0.39471  0.18883  1.0000
  H   H28       1.0  0.83490  0.81118  0.60529  1.0000
  H   H29       1.0  0.40492  0.45986  0.65023  1.0000
  H   H30       1.0  0.09509  0.34977  0.54014  1.0000
  H   H31       1.0  0.59508  0.54014  0.34977  1.0000
  H   H32       1.0  0.90492  0.65023  0.45986  1.0000
  H   H33       1.0  0.61549  0.50508  0.67479  1.0000
  H   H34       1.0  0.88452  0.32522  0.49493  1.0000
  H   H35       1.0  0.38451  0.49492  0.32521  1.0000
  H   H36       1.0  0.11549  0.67479  0.50507  1.0000
  H   H37       1.0  0.55584  0.34762  0.75679  1.0000
  H   H38       1.0  0.94417  0.24321  0.65239  1.0000
  H   H39       1.0  0.44416  0.65238  0.24321  1.0000
  H   H40       1.0  0.05584  0.75680  0.34761  1.0000
  C   C1        1.0  0.19219  0.09294  0.21561  1.0000
  C   C2        1.0  0.30780  0.78439  0.90705  1.0000
  C   C3        1.0  0.80779  0.90705  0.78440  1.0000
  C   C4        1.0  0.69219  0.21561  0.09295  1.0000
  C   C5        1.0  0.22720  0.07547  0.07539  1.0000
  C   C6        1.0  0.27281  0.92460  0.92454  1.0000
  C   C7        1.0  0.77280  0.92454  0.92461  1.0000
  C   C8        1.0  0.72719  0.07540  0.07547  1.0000
  C   C9        1.0  0.23253  0.18202  0.96772  1.0000
  C   C10       1.0  0.26748  0.03227  0.81796  1.0000
  C   C11       1.0  0.76746  0.81797  0.03227  1.0000
  C   C12       1.0  0.73252  0.96773  0.18203  1.0000
  C   C13       1.0  0.25001  0.15974  0.84026  1.0000
  C   C14       1.0  0.74999  0.84025  0.15975  1.0000
  C   C15       1.0  0.25001  0.94766  0.05234  1.0000
  C   C16       1.0  0.75000  0.05234  0.94766  1.0000
  C   C17       1.0  0.07299  0.51302  0.17134  1.0000
  C   C18       1.0  0.42701  0.82866  0.48698  1.0000
  C   C19       1.0  0.92701  0.48698  0.82866  1.0000
  C   C20       1.0  0.57299  0.17135  0.51301  1.0000
  C   C21       1.0  0.49533  0.45232  0.72281  1.0000
  C   C22       1.0  0.00467  0.27720  0.54768  1.0000
  C   C23       1.0  0.50466  0.54767  0.27720  1.0000
  C   C24       1.0  0.99533  0.72281  0.45232  1.0000
  O   O1        1.0  0.13438  0.99917  0.30472  1.0000
  O   O2        1.0  0.36562  0.69528  0.00084  1.0000
  O   O3        1.0  0.86561  0.00084  0.69528  1.0000
  O   O4        1.0  0.63437  0.30471  0.99917  1.0000
  O   O5        1.0  0.21997  0.19857  0.24154  1.0000
  O   O6        1.0  0.28003  0.75846  0.80143  1.0000
  O   O7        1.0  0.78002  0.80143  0.75846  1.0000
  O   O8        1.0  0.71997  0.24154  0.19857  1.0000
  O   O9        1.0  0.26246  0.43682  0.13153  1.0000
  O   O10       1.0  0.23754  0.86848  0.56317  1.0000
  O   O11       1.0  0.73754  0.56317  0.86848  1.0000
  O   O12       1.0  0.76246  0.13152  0.43683  1.0000
  O   O13       1.0  0.37962  0.50463  0.83584  1.0000
  O   O14       1.0  0.12038  0.16416  0.49538  1.0000
  O   O15       1.0  0.62039  0.49537  0.16416  1.0000
  O   O16       1.0  0.87961  0.83584  0.50462  1.0000
