data_image0
_chemical_formula_structural       Sn4H24C16S12N8
_chemical_formula_sum              "Sn4 H24 C16 S12 N8"
_cell_length_a       9.90273
_cell_length_b       9.10725
_cell_length_c       14.3613
_cell_angle_alpha    79.1413
_cell_angle_beta     69.7813
_cell_angle_gamma    57.0798

_space_group_name_H-M_alt    "P 1"
_space_group_IT_number       1

loop_
  _space_group_symop_operation_xyz
  'x, y, z'

loop_
  _atom_site_type_symbol
  _atom_site_label
  _atom_site_symmetry_multiplicity
  _atom_site_fract_x
  _atom_site_fract_y
  _atom_site_fract_z
  _atom_site_occupancy
  Sn  Sn1       1.0  0.45474  0.03255  0.57479  1.0000
  Sn  Sn2       1.0  0.06208  0.96680  0.42479  1.0000
  Sn  Sn3       1.0  0.77857  0.53317  0.92509  1.0000
  Sn  Sn4       1.0  0.23692  0.46745  0.07483  1.0000
  H   H1        1.0  0.62699  0.70061  0.63301  1.0000
  H   H2        1.0  0.96035  0.29899  0.36660  1.0000
  H   H3        1.0  0.00931  0.20104  0.86753  1.0000
  H   H4        1.0  0.07816  0.79931  0.13258  1.0000
  H   H5        1.0  0.44585  0.73777  0.60642  1.0000
  H   H6        1.0  0.78969  0.26188  0.39341  1.0000
  H   H7        1.0  0.80158  0.23773  0.89459  1.0000
  H   H8        1.0  0.93384  0.76308  0.10568  1.0000
  H   H9        1.0  0.42314  0.81031  0.72288  1.0000
  H   H10       1.0  0.95598  0.18926  0.27702  1.0000
  H   H11       1.0  0.89521  0.31004  0.77785  1.0000
  H   H12       1.0  0.98307  0.69027  0.22230  1.0000
  H   H13       1.0  0.32542  0.35365  0.50180  1.0000
  H   H14       1.0  0.17996  0.64621  0.49846  1.0000
  H   H15       1.0  0.57566  0.85343  0.99905  1.0000
  H   H16       1.0  0.42832  0.14633  0.00173  1.0000
  H   H17       1.0  0.18190  0.35626  0.62117  1.0000
  H   H18       1.0  0.15951  0.64293  0.37894  1.0000
  H   H19       1.0  0.55306  0.85748  0.87906  1.0000
  H   H20       1.0  0.28799  0.14348  0.12136  1.0000
  H   H21       1.0  0.18753  0.27850  0.51234  1.0000
  H   H22       1.0  0.97788  0.72099  0.48758  1.0000
  H   H23       1.0  0.44879  0.77897  0.98706  1.0000
  H   H24       1.0  0.21521  0.22149  0.01270  1.0000
  C   C1        1.0  0.54825  0.13127  0.71674  1.0000
  C   C2        1.0  0.39638  0.86864  0.28333  1.0000
  C   C3        1.0  0.01467  0.63145  0.78316  1.0000
  C   C4        1.0  0.42889  0.36880  0.21682  1.0000
  C   C5        1.0  0.83019  0.08826  0.63335  1.0000
  C   C6        1.0  0.55219  0.91133  0.36644  1.0000
  C   C7        1.0  0.21313  0.58882  0.86625  1.0000
  C   C8        1.0  0.66806  0.41164  0.13361  1.0000
  C   C9        1.0  0.49157  0.78871  0.64373  1.0000
  C   C10       1.0  0.92373  0.21076  0.35614  1.0000
  C   C11       1.0  0.88448  0.28882  0.85698  1.0000
  C   C12       1.0  0.03032  0.71167  0.14317  1.0000
  C   C13       1.0  0.26098  0.28814  0.55017  1.0000
  C   C14       1.0  0.09892  0.71139  0.44985  1.0000
  C   C15       1.0  0.56033  0.78859  0.94995  1.0000
  C   C16       1.0  0.29859  0.21180  0.05033  1.0000
  S   S1        1.0  0.68994  0.15042  0.75291  1.0000
  S   S2        1.0  0.59358  0.84930  0.24688  1.0000
  S   S3        1.0  0.19260  0.65069  0.74663  1.0000
  S   S4        1.0  0.58986  0.34920  0.25309  1.0000
  S   S5        1.0  0.35928  0.16031  0.78387  1.0000
  S   S6        1.0  0.30318  0.83951  0.21655  1.0000
  S   S7        1.0  0.89285  0.66006  0.71622  1.0000
  S   S8        1.0  0.26894  0.33980  0.28397  1.0000
  S   S9        1.0  0.02763  0.06164  0.59296  1.0000
  S   S10       1.0  0.68304  0.93751  0.40663  1.0000
  S   S11       1.0  0.37035  0.56226  0.90641  1.0000
  S   S12       1.0  0.83908  0.43804  0.09320  1.0000
  N   N1        1.0  0.61509  0.08415  0.62053  1.0000
  N   N2        1.0  0.31989  0.91576  0.37953  1.0000
  N   N3        1.0  0.98512  0.58460  0.87943  1.0000
  N   N4        1.0  0.44865  0.41626  0.12063  1.0000
  N   N5        1.0  0.77019  0.06131  0.57367  1.0000
  N   N6        1.0  0.40550  0.93836  0.42625  1.0000
  N   N7        1.0  0.09331  0.56207  0.92617  1.0000
  N   N8        1.0  0.58120  0.43870  0.07385  1.0000
