data_image0
_chemical_formula_structural       Zn2H40C38N8O10
_chemical_formula_sum              "Zn2 H40 C38 N8 O10"
_cell_length_a       9.06223
_cell_length_b       9.33958
_cell_length_c       12.2771
_cell_angle_alpha    83.7351
_cell_angle_beta     84.8208
_cell_angle_gamma    87.6308

_space_group_name_H-M_alt    "P 1"
_space_group_IT_number       1

loop_
  _space_group_symop_operation_xyz
  'x, y, z'

loop_
  _atom_site_type_symbol
  _atom_site_label
  _atom_site_symmetry_multiplicity
  _atom_site_fract_x
  _atom_site_fract_y
  _atom_site_fract_z
  _atom_site_occupancy
  Zn  Zn1       1.0  0.15632  0.74093  0.24561  1.0000
  Zn  Zn2       1.0  0.84367  0.25909  0.75439  1.0000
  H   H1        1.0  0.53039  0.90138  0.39806  1.0000
  H   H2        1.0  0.46963  0.09861  0.60193  1.0000
  H   H3        1.0  0.75295  0.04001  0.42061  1.0000
  H   H4        1.0  0.24707  0.95997  0.57936  1.0000
  H   H5        1.0  0.59995  0.89233  0.94042  1.0000
  H   H6        1.0  0.40005  0.10768  0.05957  1.0000
  H   H7        1.0  0.52212  0.86190  0.07826  1.0000
  H   H8        1.0  0.47787  0.13811  0.92173  1.0000
  H   H9        1.0  0.04242  0.87715  0.47727  1.0000
  H   H10       1.0  0.95756  0.12287  0.52272  1.0000
  H   H11       1.0  0.86834  0.94803  0.22738  1.0000
  H   H12       1.0  0.13164  0.05199  0.77262  1.0000
  H   H13       1.0  0.81345  0.74949  0.61543  1.0000
  H   H14       1.0  0.18656  0.25050  0.38457  1.0000
  H   H15       1.0  0.91151  0.51302  0.34007  1.0000
  H   H16       1.0  0.08850  0.48699  0.65993  1.0000
  H   H17       1.0  0.85531  0.85140  0.89924  1.0000
  H   H18       1.0  0.14469  0.14860  0.10076  1.0000
  H   H19       1.0  0.29176  0.35968  0.03238  1.0000
  H   H20       1.0  0.70822  0.64030  0.96764  1.0000
  H   H21       1.0  0.47372  0.38375  0.06670  1.0000
  H   H22       1.0  0.52626  0.61624  0.93332  1.0000
  H   H23       1.0  0.77643  0.28996  0.32631  1.0000
  H   H24       1.0  0.22359  0.71003  0.67368  1.0000
  H   H25       1.0  0.52458  0.66173  0.50148  1.0000
  H   H26       1.0  0.47543  0.33826  0.49853  1.0000
  H   H27       1.0  0.57494  0.56213  0.38830  1.0000
  H   H28       1.0  0.42507  0.43786  0.61171  1.0000
  H   H29       1.0  0.09480  0.70201  0.99233  1.0000
  H   H30       1.0  0.90520  0.29800  0.00768  1.0000
  H   H31       1.0  0.72387  0.11286  0.98957  1.0000
  H   H32       1.0  0.27612  0.88715  0.01043  1.0000
  H   H33       1.0  0.66471  0.06291  0.12926  1.0000
  H   H34       1.0  0.33528  0.93710  0.87073  1.0000
  H   H35       1.0  0.69292  0.50336  0.61745  1.0000
  H   H36       1.0  0.30711  0.49663  0.38256  1.0000
  H   H37       1.0  0.74037  0.39870  0.50690  1.0000
  H   H38       1.0  0.25965  0.60129  0.49310  1.0000
  H   H39       1.0  0.57768  0.40047  0.21532  1.0000
  H   H40       1.0  0.42231  0.59953  0.78469  1.0000
  C   C1        1.0  0.42570  0.07238  0.29942  1.0000
  C   C2        1.0  0.57431  0.92762  0.70058  1.0000
  C   C3        1.0  0.43925  0.21472  0.24710  1.0000
  C   C4        1.0  0.56075  0.78528  0.75291  1.0000
  C   C5        1.0  0.29417  0.98275  0.28866  1.0000
  C   C6        1.0  0.70584  0.01724  0.71135  1.0000
  C   C7        1.0  0.30335  0.53208  0.12866  1.0000
  C   C8        1.0  0.69664  0.46793  0.87134  1.0000
  C   C9        1.0  0.54060  0.01208  0.36029  1.0000
  C   C10       1.0  0.45941  0.98791  0.63971  1.0000
  C   C11       1.0  0.66562  0.08952  0.37208  1.0000
  C   C12       1.0  0.33440  0.91047  0.62790  1.0000
  C   C13       1.0  0.56250  0.94580  0.01369  1.0000
  C   C14       1.0  0.43750  0.05421  0.98630  1.0000
  C   C15       1.0  0.98083  0.78222  0.46987  1.0000
  C   C16       1.0  0.01916  0.21780  0.53012  1.0000
  C   C17       1.0  0.89750  0.89798  0.15237  1.0000
  C   C18       1.0  0.10250  0.10203  0.84763  1.0000
  C   C19       1.0  0.86583  0.72094  0.53748  1.0000
  C   C20       1.0  0.13416  0.27906  0.46252  1.0000
  C   C21       1.0  0.91576  0.59650  0.39444  1.0000
  C   C22       1.0  0.08424  0.40350  0.60556  1.0000
  C   C23       1.0  0.89247  0.84573  0.98125  1.0000
  C   C24       1.0  0.10753  0.15427  0.01875  1.0000
  C   C25       1.0  0.35653  0.38321  0.09961  1.0000
  C   C26       1.0  0.64345  0.61679  0.90040  1.0000
  C   C27       1.0  0.67773  0.22956  0.31978  1.0000
  C   C28       1.0  0.32228  0.77043  0.68021  1.0000
  C   C29       1.0  0.55978  0.55387  0.47880  1.0000
  C   C30       1.0  0.44023  0.44612  0.52122  1.0000
  C   C31       1.0  0.01014  0.77298  0.02742  1.0000
  C   C32       1.0  0.98986  0.22703  0.97258  1.0000
  C   C33       1.0  0.69276  0.02094  0.04967  1.0000
  C   C34       1.0  0.30722  0.97907  0.95032  1.0000
  C   C35       1.0  0.70515  0.50716  0.52747  1.0000
  C   C36       1.0  0.29487  0.49282  0.47254  1.0000
  C   C37       1.0  0.56576  0.29227  0.25746  1.0000
  C   C38       1.0  0.43424  0.70773  0.74254  1.0000
  N   N1        1.0  0.01275  0.80728  0.13401  1.0000
  N   N2        1.0  0.98724  0.19274  0.86599  1.0000
  N   N3        1.0  0.82220  0.92348  0.06182  1.0000
  N   N4        1.0  0.17779  0.07653  0.93818  1.0000
  N   N5        1.0  0.01124  0.70314  0.38122  1.0000
  N   N6        1.0  0.98875  0.29687  0.61878  1.0000
  N   N7        1.0  0.82598  0.60373  0.48816  1.0000
  N   N8        1.0  0.17403  0.39626  0.51184  1.0000
  O   O1        1.0  0.23094  0.54048  0.22339  1.0000
  O   O2        1.0  0.76906  0.45954  0.77662  1.0000
  O   O3        1.0  0.32786  0.26704  0.18469  1.0000
  O   O4        1.0  0.67213  0.73296  0.81533  1.0000
  O   O5        1.0  0.32860  0.84990  0.27126  1.0000
  O   O6        1.0  0.67140  0.15009  0.72875  1.0000
  O   O7        1.0  0.16474  0.03474  0.29722  1.0000
  O   O8        1.0  0.83526  0.96526  0.70277  1.0000
  O   O9        1.0  0.32854  0.63521  0.05622  1.0000
  O   O10       1.0  0.67143  0.36477  0.94377  1.0000
