data_image0
_chemical_formula_structural       Cu2H12C16N16Cl4
_chemical_formula_sum              "Cu2 H12 C16 N16 Cl4"
_cell_length_a       7.29774
_cell_length_b       7.76274
_cell_length_c       11.9172
_cell_angle_alpha    109.068
_cell_angle_beta     107.876
_cell_angle_gamma    89.7907

_space_group_name_H-M_alt    "P 1"
_space_group_IT_number       1

loop_
  _space_group_symop_operation_xyz
  'x, y, z'

loop_
  _atom_site_type_symbol
  _atom_site_label
  _atom_site_symmetry_multiplicity
  _atom_site_fract_x
  _atom_site_fract_y
  _atom_site_fract_z
  _atom_site_occupancy
  Cu  Cu1       1.0  0.97167  0.22182  0.44343  1.0000
  Cu  Cu2       1.0  0.02833  0.77818  0.55657  1.0000
  H   H1        1.0  0.39188  0.64219  0.28389  1.0000
  H   H2        1.0  0.60812  0.35781  0.71611  1.0000
  H   H3        1.0  0.35015  0.21768  0.93231  1.0000
  H   H4        1.0  0.08215  0.71455  0.93212  1.0000
  H   H5        1.0  0.64985  0.78232  0.06769  1.0000
  H   H6        1.0  0.91785  0.28545  0.06788  1.0000
  H   H7        1.0  0.15830  0.40808  0.81620  1.0000
  H   H8        1.0  0.84170  0.59192  0.18380  1.0000
  H   H9        1.0  0.68731  0.51855  0.35493  1.0000
  H   H10       1.0  0.16666  0.83627  0.35463  1.0000
  H   H11       1.0  0.31269  0.48145  0.64506  1.0000
  H   H12       1.0  0.83334  0.16373  0.64537  1.0000
  C   C1        1.0  0.64564  0.37668  0.29280  1.0000
  C   C2        1.0  0.14663  0.91614  0.29260  1.0000
  C   C3        1.0  0.35436  0.62332  0.70720  1.0000
  C   C4        1.0  0.85337  0.08386  0.70740  1.0000
  C   C5        1.0  0.38258  0.42068  0.11405  1.0000
  C   C6        1.0  0.23143  0.69357  0.11395  1.0000
  C   C7        1.0  0.61742  0.57932  0.88595  1.0000
  C   C8        1.0  0.76858  0.30643  0.88605  1.0000
  C   C9        1.0  0.34090  0.59108  0.18178  1.0000
  C   C10       1.0  0.65910  0.40892  0.81821  1.0000
  C   C11       1.0  0.31596  0.35147  0.98300  1.0000
  C   C12       1.0  0.16706  0.63158  0.98289  1.0000
  C   C13       1.0  0.68404  0.64853  0.01700  1.0000
  C   C14       1.0  0.83295  0.36842  0.01711  1.0000
  C   C15       1.0  0.20939  0.45931  0.91861  1.0000
  C   C16       1.0  0.79061  0.54069  0.08139  1.0000
  N   N1        1.0  0.72942  0.23072  0.30851  1.0000
  N   N2        1.0  0.07884  0.07797  0.30840  1.0000
  N   N3        1.0  0.27058  0.76927  0.69149  1.0000
  N   N4        1.0  0.92116  0.92203  0.69160  1.0000
  N   N5        1.0  0.63860  0.08278  0.20487  1.0000
  N   N6        1.0  0.06649  0.12246  0.20487  1.0000
  N   N7        1.0  0.36140  0.91722  0.79513  1.0000
  N   N8        1.0  0.93351  0.87753  0.79514  1.0000
  N   N9        1.0  0.50311  0.13357  0.12717  1.0000
  N   N10       1.0  0.12432  0.99397  0.12714  1.0000
  N   N11       1.0  0.49689  0.86642  0.87283  1.0000
  N   N12       1.0  0.87567  0.00603  0.87286  1.0000
  N   N13       1.0  0.50466  0.31832  0.18041  1.0000
  N   N14       1.0  0.17553  0.86226  0.18025  1.0000
  N   N15       1.0  0.49534  0.68168  0.81959  1.0000
  N   N16       1.0  0.82447  0.13774  0.81975  1.0000
  Cl  Cl1       1.0  0.22016  0.15855  0.58923  1.0000
  Cl  Cl2       1.0  0.86895  0.43071  0.58931  1.0000
  Cl  Cl3       1.0  0.77983  0.84145  0.41077  1.0000
  Cl  Cl4       1.0  0.13104  0.56929  0.41068  1.0000
