data_image0
_chemical_formula_structural       CoH24C18S2N14
_chemical_formula_sum              "Co1 H24 C18 S2 N14"
_cell_length_a       7.76097
_cell_length_b       9.05058
_cell_length_c       9.92034
_cell_angle_alpha    114.057
_cell_angle_beta     91.151
_cell_angle_gamma    92.7898

_space_group_name_H-M_alt    "P 1"
_space_group_IT_number       1

loop_
  _space_group_symop_operation_xyz
  'x, y, z'

loop_
  _atom_site_type_symbol
  _atom_site_label
  _atom_site_symmetry_multiplicity
  _atom_site_fract_x
  _atom_site_fract_y
  _atom_site_fract_z
  _atom_site_occupancy
  Co  Co1       1.0  0.50000  0.50000  1.00000  1.0000
  H   H1        1.0  0.47442  0.78812  0.32034  1.0000
  H   H2        1.0  0.52558  0.21188  0.67966  1.0000
  H   H3        1.0  0.32132  0.29258  0.16577  1.0000
  H   H4        1.0  0.67868  0.70742  0.83423  1.0000
  H   H5        1.0  0.28508  0.48929  0.58356  1.0000
  H   H6        1.0  0.71492  0.51071  0.41644  1.0000
  H   H7        1.0  0.27720  0.29690  0.43207  1.0000
  H   H8        1.0  0.72280  0.70310  0.56793  1.0000
  H   H9        1.0  0.98519  0.35296  0.34910  1.0000
  H   H10       1.0  0.01481  0.64704  0.65090  1.0000
  H   H11       1.0  0.98906  0.34270  0.52337  1.0000
  H   H12       1.0  0.01094  0.65730  0.47663  1.0000
  H   H13       1.0  0.15702  0.89610  0.48032  1.0000
  H   H14       1.0  0.84298  0.10390  0.51968  1.0000
  H   H15       1.0  0.16844  0.10382  0.51496  1.0000
  H   H16       1.0  0.83156  0.89618  0.48504  1.0000
  H   H17       1.0  0.00148  0.04165  0.27663  1.0000
  H   H18       1.0  0.99852  0.95835  0.72337  1.0000
  H   H19       1.0  0.19360  0.93653  0.24760  1.0000
  H   H20       1.0  0.80640  0.06347  0.75240  1.0000
  H   H21       1.0  0.89151  0.42133  0.12519  1.0000
  H   H22       1.0  0.10849  0.57867  0.87481  1.0000
  H   H23       1.0  0.73569  0.86706  0.14235  1.0000
  H   H24       1.0  0.26431  0.13294  0.85765  1.0000
  C   C1        1.0  0.42393  0.67304  0.31731  1.0000
  C   C2        1.0  0.57607  0.32696  0.68269  1.0000
  C   C3        1.0  0.34631  0.42087  0.23450  1.0000
  C   C4        1.0  0.65369  0.57914  0.76550  1.0000
  C   C5        1.0  0.23222  0.41992  0.47035  1.0000
  C   C6        1.0  0.76778  0.58008  0.52966  1.0000
  C   C7        1.0  0.03515  0.41602  0.46455  1.0000
  C   C8        1.0  0.96485  0.58398  0.53545  1.0000
  C   C9        1.0  0.08675  0.99044  0.46347  1.0000
  C   C10       1.0  0.91325  0.00956  0.53653  1.0000
  C   C11       1.0  0.06803  0.94881  0.29863  1.0000
  C   C12       1.0  0.93197  0.05119  0.70137  1.0000
  C   C13       1.0  0.88943  0.54928  0.14855  1.0000
  C   C14       1.0  0.11057  0.45072  0.85146  1.0000
  C   C15       1.0  0.80678  0.77264  0.15526  1.0000
  C   C16       1.0  0.19322  0.22736  0.84474  1.0000
  C   C17       1.0  0.65966  0.20623  0.00938  1.0000
  C   C18       1.0  0.34034  0.79377  0.99062  1.0000
  S   S1        1.0  0.78185  0.08528  0.04524  1.0000
  S   S2        1.0  0.21815  0.91472  0.95476  1.0000
  N   N1        1.0  0.41780  0.53227  0.19255  1.0000
  N   N2        1.0  0.58220  0.46773  0.80745  1.0000
  N   N3        1.0  0.36176  0.65459  0.43361  1.0000
  N   N4        1.0  0.63824  0.34541  0.56639  1.0000
  N   N5        1.0  0.31273  0.49356  0.37871  1.0000
  N   N6        1.0  0.68728  0.50644  0.62129  1.0000
  N   N7        1.0  0.75554  0.61596  0.10700  1.0000
  N   N8        1.0  0.24446  0.38404  0.89300  1.0000
  N   N9        1.0  0.01953  0.65577  0.21988  1.0000
  N   N10       1.0  0.98047  0.34423  0.78012  1.0000
  N   N11       1.0  0.96503  0.79724  0.22194  1.0000
  N   N12       1.0  0.03497  0.20276  0.77806  1.0000
  N   N13       1.0  0.57732  0.29816  0.98130  1.0000
  N   N14       1.0  0.42268  0.70184  0.01870  1.0000
