data_image0
_chemical_formula_structural       Cu3H12C12N14O8
_chemical_formula_sum              "Cu3 H12 C12 N14 O8"
_cell_length_a       6.43479
_cell_length_b       8.8003
_cell_length_c       10.6578
_cell_angle_alpha    108.679
_cell_angle_beta     93.9227
_cell_angle_gamma    109.039

_space_group_name_H-M_alt    "P 1"
_space_group_IT_number       1

loop_
  _space_group_symop_operation_xyz
  'x, y, z'

loop_
  _atom_site_type_symbol
  _atom_site_label
  _atom_site_symmetry_multiplicity
  _atom_site_fract_x
  _atom_site_fract_y
  _atom_site_fract_z
  _atom_site_occupancy
  Cu  Cu1       1.0  0.50049  0.50079  0.49990  1.0000
  Cu  Cu2       1.0  0.42749  0.80298  0.45506  1.0000
  Cu  Cu3       1.0  0.57217  0.19659  0.54512  1.0000
  H   H1        1.0  0.25571  0.60034  0.03011  1.0000
  H   H2        1.0  0.74450  0.39974  0.96946  1.0000
  H   H3        1.0  0.10089  0.41948  0.78385  1.0000
  H   H4        1.0  0.89930  0.58041  0.21587  1.0000
  H   H5        1.0  0.12551  0.98016  0.84097  1.0000
  H   H6        1.0  0.87461  0.01985  0.15916  1.0000
  H   H7        1.0  0.28031  0.14335  0.08982  1.0000
  H   H8        1.0  0.72003  0.85702  0.91024  1.0000
  H   H9        1.0  0.86286  0.88031  0.58439  1.0000
  H   H10       1.0  0.13719  0.11925  0.41572  1.0000
  H   H11       1.0  0.85174  0.81069  0.42897  1.0000
  H   H12       1.0  0.14805  0.18886  0.57103  1.0000
  C   C1        1.0  0.34879  0.48506  0.22898  1.0000
  C   C2        1.0  0.65170  0.51544  0.77083  1.0000
  C   C3        1.0  0.27087  0.38407  0.08097  1.0000
  C   C4        1.0  0.72941  0.61620  0.91888  1.0000
  C   C5        1.0  0.22668  0.46329  0.99289  1.0000
  C   C6        1.0  0.77346  0.53678  0.00684  1.0000
  C   C7        1.0  0.14471  0.36784  0.85732  1.0000
  C   C8        1.0  0.85536  0.63208  0.14245  1.0000
  C   C9        1.0  0.15606  0.11666  0.89031  1.0000
  C   C10       1.0  0.84402  0.88338  0.10972  1.0000
  C   C11       1.0  0.23926  0.20911  0.02653  1.0000
  C   C12       1.0  0.76101  0.79114  0.97346  1.0000
  N   N1        1.0  0.27589  0.62011  0.52562  1.0000
  N   N2        1.0  0.72083  0.37868  0.47359  1.0000
  N   N3        1.0  0.21285  0.65512  0.63259  1.0000
  N   N4        1.0  0.78633  0.34471  0.36737  1.0000
  N   N5        1.0  0.14648  0.68431  0.73270  1.0000
  N   N6        1.0  0.85445  0.31618  0.26788  1.0000
  N   N7        1.0  0.46489  0.00336  0.61990  1.0000
  N   N8        1.0  0.53525  0.99618  0.38057  1.0000
  N   N9        1.0  0.54603  0.02560  0.73378  1.0000
  N   N10       1.0  0.45407  0.97428  0.26676  1.0000
  N   N11       1.0  0.61854  0.05101  0.84438  1.0000
  N   N12       1.0  0.38167  0.94941  0.15628  1.0000
  N   N13       1.0  0.10578  0.19546  0.80759  1.0000
  N   N14       1.0  0.89409  0.80441  0.19235  1.0000
  O   O1        1.0  0.77527  0.78112  0.50131  1.0000
  O   O2        1.0  0.22481  0.21841  0.49880  1.0000
  O   O3        1.0  0.34914  0.63813  0.26842  1.0000
  O   O4        1.0  0.65079  0.36218  0.73139  1.0000
  O   O5        1.0  0.40828  0.41084  0.30150  1.0000
  O   O6        1.0  0.59283  0.58993  0.69833  1.0000
  O   O7        1.0  0.01767  0.10615  0.67953  1.0000
  O   O8        1.0  0.98185  0.89352  0.32048  1.0000
