data_image0
_chemical_formula_structural       H18Pb2C24I4N6
_chemical_formula_sum              "H18 Pb2 C24 I4 N6"
_cell_length_a       8.0914
_cell_length_b       9.66457
_cell_length_c       10.948
_cell_angle_alpha    107.597
_cell_angle_beta     101.695
_cell_angle_gamma    112.108

_space_group_name_H-M_alt    "P 1"
_space_group_IT_number       1

loop_
  _space_group_symop_operation_xyz
  'x, y, z'

loop_
  _atom_site_type_symbol
  _atom_site_label
  _atom_site_symmetry_multiplicity
  _atom_site_fract_x
  _atom_site_fract_y
  _atom_site_fract_z
  _atom_site_occupancy
  H   H1        1.0  0.57300  0.91841  0.10797  1.0000
  H   H2        1.0  0.96504  0.81106  0.89190  1.0000
  H   H3        1.0  0.74504  0.87610  0.18393  1.0000
  H   H4        1.0  0.06078  0.69222  0.81600  1.0000
  H   H5        1.0  0.10038  0.09142  0.79050  1.0000
  H   H6        1.0  0.80977  0.30029  0.20934  1.0000
  H   H7        1.0  0.13576  0.94584  0.57475  1.0000
  H   H8        1.0  0.06082  0.37110  0.42515  1.0000
  H   H9        1.0  0.92847  0.90410  0.35121  1.0000
  H   H10       1.0  0.07687  0.55282  0.64868  1.0000
  H   H11       1.0  0.42164  0.04972  0.23193  1.0000
  H   H12       1.0  0.68917  0.81744  0.76824  1.0000
  H   H13       1.0  0.29382  0.21117  0.36974  1.0000
  H   H14       1.0  0.42373  0.84114  0.63028  1.0000
  H   H15       1.0  0.32250  0.39067  0.60344  1.0000
  H   H16       1.0  0.21934  0.78739  0.39663  1.0000
  H   H17       1.0  0.57317  0.44428  0.81090  1.0000
  H   H18       1.0  0.26276  0.63337  0.18944  1.0000
  Pb  Pb1       1.0  0.89170  0.31842  0.91641  1.0000
  Pb  Pb2       1.0  0.47555  0.40228  0.08351  1.0000
  C   C1        1.0  0.01502  0.07620  0.69167  1.0000
  C   C2        1.0  0.82325  0.38415  0.30815  1.0000
  C   C3        1.0  0.03277  0.99287  0.56992  1.0000
  C   C4        1.0  0.96260  0.42280  0.42992  1.0000
  C   C5        1.0  0.91710  0.97124  0.44654  1.0000
  C   C6        1.0  0.97026  0.52450  0.55332  1.0000
  C   C7        1.0  0.78487  0.03360  0.44442  1.0000
  C   C8        1.0  0.84013  0.58890  0.55547  1.0000
  C   C9        1.0  0.65491  0.01078  0.31813  1.0000
  C   C10       1.0  0.83631  0.69230  0.68182  1.0000
  C   C11       1.0  0.52346  0.07024  0.32622  1.0000
  C   C12       1.0  0.69669  0.74359  0.67383  1.0000
  C   C13       1.0  0.52379  0.16388  0.45360  1.0000
  C   C14       1.0  0.56978  0.70991  0.54651  1.0000
  C   C15       1.0  0.39854  0.23428  0.46389  1.0000
  C   C16       1.0  0.43449  0.77013  0.53624  1.0000
  C   C17       1.0  0.41419  0.33296  0.59110  1.0000
  C   C18       1.0  0.32315  0.74179  0.40907  1.0000
  C   C19       1.0  0.55378  0.36220  0.70938  1.0000
  C   C20       1.0  0.34454  0.65264  0.29086  1.0000
  C   C21       1.0  0.65583  0.19518  0.57926  1.0000
  C   C22       1.0  0.57635  0.61549  0.42086  1.0000
  C   C23       1.0  0.78098  0.12163  0.57337  1.0000
  C   C24       1.0  0.70735  0.54786  0.42656  1.0000
  I   I1        1.0  0.28608  0.56361  0.89924  1.0000
  I   I2        1.0  0.88715  0.66441  0.10100  1.0000
  I   I3        1.0  0.08462  0.15048  0.08932  1.0000
  I   I4        1.0  0.49502  0.06115  0.91039  1.0000
  N   N1        1.0  0.89449  0.13921  0.69301  1.0000
  N   N2        1.0  0.70126  0.44571  0.30685  1.0000
  N   N3        1.0  0.66894  0.29391  0.70308  1.0000
  N   N4        1.0  0.46583  0.59048  0.29714  1.0000
  N   N5        1.0  0.66498  0.93527  0.19599  1.0000
  N   N6        1.0  0.96847  0.73913  0.80393  1.0000
