data_image0
_chemical_formula_structural       Cu3H48C54N6O12
_chemical_formula_sum              "Cu3 H48 C54 N6 O12"
_cell_length_a       7.68313
_cell_length_b       15.5775
_cell_length_c       15.4946
_cell_angle_alpha    117.199
_cell_angle_beta     99.3939
_cell_angle_gamma    99.5224

_space_group_name_H-M_alt    "P 1"
_space_group_IT_number       1

loop_
  _space_group_symop_operation_xyz
  'x, y, z'

loop_
  _atom_site_type_symbol
  _atom_site_label
  _atom_site_symmetry_multiplicity
  _atom_site_fract_x
  _atom_site_fract_y
  _atom_site_fract_z
  _atom_site_occupancy
  Cu  Cu1       1.0  1.00000  0.50000  0.50000  1.0000
  Cu  Cu2       1.0  0.50000  0.00000  0.50000  1.0000
  Cu  Cu3       1.0  0.50000  0.50000  0.00000  1.0000
  H   H1        1.0  0.88731  0.53143  0.98780  1.0000
  H   H2        1.0  0.35862  0.45436  0.46922  1.0000
  H   H3        1.0  0.90427  0.01539  0.54647  1.0000
  H   H4        1.0  0.11270  0.46857  0.01220  1.0000
  H   H5        1.0  0.64139  0.54563  0.53078  1.0000
  H   H6        1.0  0.09573  0.98461  0.45353  1.0000
  H   H7        1.0  0.42102  0.46747  0.76987  1.0000
  H   H8        1.0  0.95532  0.30114  0.53348  1.0000
  H   H9        1.0  0.65602  0.23299  0.69976  1.0000
  H   H10       1.0  0.57898  0.53253  0.23013  1.0000
  H   H11       1.0  0.04468  0.69886  0.46652  1.0000
  H   H12       1.0  0.34397  0.76701  0.30025  1.0000
  H   H13       1.0  0.21391  0.62055  0.82278  1.0000
  H   H14       1.0  0.59488  0.20099  0.37908  1.0000
  H   H15       1.0  0.39307  0.17822  0.79946  1.0000
  H   H16       1.0  0.78610  0.37945  0.17722  1.0000
  H   H17       1.0  0.40511  0.79901  0.62092  1.0000
  H   H18       1.0  0.60692  0.82178  0.20054  1.0000
  H   H19       1.0  0.09296  0.54780  0.88495  1.0000
  H   H20       1.0  0.54774  0.33585  0.45311  1.0000
  H   H21       1.0  0.21238  0.11760  0.66456  1.0000
  H   H22       1.0  0.90705  0.45220  0.11505  1.0000
  H   H23       1.0  0.45226  0.66415  0.54688  1.0000
  H   H24       1.0  0.78762  0.88240  0.33544  1.0000
  H   H25       1.0  0.60620  0.48248  0.65539  1.0000
  H   H26       1.0  0.12403  0.17167  0.51734  1.0000
  H   H27       1.0  0.95496  0.34628  0.82863  1.0000
  H   H28       1.0  0.39381  0.51752  0.34461  1.0000
  H   H29       1.0  0.87596  0.82833  0.48266  1.0000
  H   H30       1.0  0.04504  0.65373  0.17137  1.0000
  H   H31       1.0  0.56101  0.69740  0.72318  1.0000
  H   H32       1.0  0.86520  0.02560  0.30264  1.0000
  H   H33       1.0  0.83990  0.27496  0.97389  1.0000
  H   H34       1.0  0.43900  0.30260  0.27681  1.0000
  H   H35       1.0  0.13479  0.97439  0.69736  1.0000
  H   H36       1.0  0.16010  0.72504  0.02611  1.0000
  H   H37       1.0  0.50532  0.69856  0.83159  1.0000
  H   H38       1.0  0.80866  0.13214  0.30117  1.0000
  H   H39       1.0  0.67593  0.16776  0.86688  1.0000
  H   H40       1.0  0.49468  0.30144  0.16840  1.0000
  H   H41       1.0  0.19134  0.86785  0.69883  1.0000
  H   H42       1.0  0.32407  0.83224  0.13312  1.0000
  H   H43       1.0  0.44344  0.78290  0.79217  1.0000
  H   H44       1.0  0.66274  0.00885  0.21630  1.0000
  H   H45       1.0  0.65409  0.20586  0.99101  1.0000
  H   H46       1.0  0.55656  0.21710  0.20783  1.0000
  H   H47       1.0  0.33726  0.99114  0.78369  1.0000
  H   H48       1.0  0.34591  0.79414  0.00899  1.0000
  C   C1        1.0  0.83119  0.52110  0.91328  1.0000
  C   C2        1.0  0.31234  0.39041  0.47950  1.0000
  C   C3        1.0  0.92239  0.08960  0.61033  1.0000
  C   C4        1.0  0.16881  0.47890  0.08672  1.0000
  C   C5        1.0  0.68766  0.60958  0.52050  1.0000
  C   C6        1.0  0.07760  0.91041  0.38967  1.0000
  C   C7        1.0  0.57053  0.48535  0.79200  1.0000
  C   C8        1.0  0.08690  0.30524  0.51526  1.0000
  C   C9        1.0  0.78326  0.21061  0.69547  1.0000
  C   C10       1.0  0.42947  0.51465  0.20800  1.0000
  C   C11       1.0  0.91309  0.69476  0.48474  1.0000
  C   C12       1.0  0.21674  0.78939  0.30453  1.0000
  C   C13       1.0  0.27418  0.63126  0.69800  1.0000
  C   C14       1.0  0.64366  0.06616  0.36848  1.0000
  C   C15       1.0  0.57906  0.30124  0.93467  1.0000
  C   C16       1.0  0.72582  0.36873  0.30200  1.0000
  C   C17       1.0  0.35634  0.93384  0.63152  1.0000
  C   C18       1.0  0.42094  0.69876  0.06533  1.0000
  C   C19       1.0  0.15953  0.59420  0.74299  1.0000
  C   C20       1.0  0.56627  0.14779  0.40550  1.0000
  C   C21       1.0  0.41926  0.25760  0.85288  1.0000
  C   C22       1.0  0.84047  0.40580  0.25701  1.0000
  C   C23       1.0  0.43372  0.85221  0.59450  1.0000
  C   C24       1.0  0.58074  0.74240  0.14712  1.0000
  C   C25       1.0  0.97719  0.53469  0.69645  1.0000
  C   C26       1.0  0.44277  0.16065  0.46508  1.0000
  C   C27       1.0  0.28425  0.30450  0.83976  1.0000
  C   C28       1.0  0.02282  0.46531  0.30355  1.0000
  C   C29       1.0  0.55722  0.83935  0.53492  1.0000
  C   C30       1.0  0.71575  0.69551  0.16025  1.0000
  C   C31       1.0  0.86538  0.51913  0.76121  1.0000
  C   C32       1.0  0.34735  0.24079  0.48097  1.0000
  C   C33       1.0  0.10822  0.24059  0.75966  1.0000
  C   C34       1.0  0.13462  0.48088  0.23879  1.0000
  C   C35       1.0  0.65264  0.75921  0.51903  1.0000
  C   C36       1.0  0.89177  0.75941  0.24034  1.0000
  C   C37       1.0  0.94518  0.53129  0.85556  1.0000
  C   C38       1.0  0.41588  0.32280  0.46918  1.0000
  C   C39       1.0  0.09388  0.14678  0.67773  1.0000
  C   C40       1.0  0.05482  0.46871  0.14444  1.0000
  C   C41       1.0  0.58412  0.67719  0.53082  1.0000
  C   C42       1.0  0.90611  0.85322  0.32228  1.0000
  C   C43       1.0  0.67345  0.49408  0.72885  1.0000
  C   C44       1.0  0.18024  0.23342  0.50605  1.0000
  C   C45       1.0  0.94889  0.27320  0.76705  1.0000
  C   C46       1.0  0.32656  0.50592  0.27116  1.0000
  C   C47       1.0  0.81976  0.76658  0.49395  1.0000
  C   C48       1.0  0.05111  0.72681  0.23295  1.0000
  C   C49       1.0  0.45755  0.70623  0.76542  1.0000
  C   C50       1.0  0.75299  0.05866  0.29343  1.0000
  C   C51       1.0  0.69447  0.23308  0.94092  1.0000
  C   C52       1.0  0.54245  0.29377  0.23457  1.0000
  C   C53       1.0  0.24701  0.94133  0.70656  1.0000
  C   C54       1.0  0.30552  0.76692  0.05908  1.0000
  N   N1        1.0  0.64781  0.49941  0.88333  1.0000
  N   N2        1.0  0.15055  0.38223  0.50136  1.0000
  N   N3        1.0  0.76910  0.11971  0.61864  1.0000
  N   N4        1.0  0.35220  0.50060  0.11667  1.0000
  N   N5        1.0  0.84945  0.61777  0.49864  1.0000
  N   N6        1.0  0.23090  0.88029  0.38137  1.0000
  O   O1        1.0  0.89042  0.49460  0.60307  1.0000
  O   O2        1.0  0.39504  0.10738  0.50499  1.0000
  O   O3        1.0  0.29041  0.39755  0.89242  1.0000
  O   O4        1.0  0.10958  0.50540  0.39694  1.0000
  O   O5        1.0  0.60496  0.89262  0.49501  1.0000
  O   O6        1.0  0.70960  0.60245  0.10759  1.0000
  O   O7        1.0  0.23376  0.61010  0.60606  1.0000
  O   O8        1.0  0.62367  0.99574  0.38978  1.0000
  O   O9        1.0  0.63057  0.39207  0.00570  1.0000
  O   O10       1.0  0.76624  0.38989  0.39394  1.0000
  O   O11       1.0  0.37633  0.00426  0.61022  1.0000
  O   O12       1.0  0.36943  0.60793  0.99430  1.0000
