data_image0
_chemical_formula_structural       K4B4H56C60N24
_chemical_formula_sum              "K4 B4 H56 C60 N24"
_cell_length_a       9.04302
_cell_length_b       10.0908
_cell_length_c       17.211
_cell_angle_alpha    90.012
_cell_angle_beta     90
_cell_angle_gamma    90

_space_group_name_H-M_alt    "P 1"
_space_group_IT_number       1

loop_
  _space_group_symop_operation_xyz
  'x, y, z'

loop_
  _atom_site_type_symbol
  _atom_site_label
  _atom_site_symmetry_multiplicity
  _atom_site_fract_x
  _atom_site_fract_y
  _atom_site_fract_z
  _atom_site_occupancy
  K   K1        1.0  0.38310  0.78313  0.75540  1.0000
  K   K2        1.0  0.88310  0.71687  0.74460  1.0000
  K   K3        1.0  0.61690  0.21687  0.24460  1.0000
  K   K4        1.0  0.11690  0.28314  0.25541  1.0000
  B   B1        1.0  0.07747  0.99880  0.82995  1.0000
  B   B2        1.0  0.57747  0.50119  0.67005  1.0000
  B   B3        1.0  0.92253  0.00119  0.17005  1.0000
  B   B4        1.0  0.42253  0.49881  0.32995  1.0000
  H   H1        1.0  0.14333  0.85688  0.57863  1.0000
  H   H2        1.0  0.64333  0.64312  0.92137  1.0000
  H   H3        1.0  0.85667  0.14312  0.42137  1.0000
  H   H4        1.0  0.35667  0.35688  0.07863  1.0000
  H   H5        1.0  0.32788  0.07557  0.58825  1.0000
  H   H6        1.0  0.82788  0.42443  0.91175  1.0000
  H   H7        1.0  0.67212  0.92443  0.41175  1.0000
  H   H8        1.0  0.17212  0.57557  0.08825  1.0000
  H   H9        1.0  0.28846  0.16128  0.73876  1.0000
  H   H10       1.0  0.78846  0.33872  0.76124  1.0000
  H   H11       1.0  0.71154  0.83872  0.26124  1.0000
  H   H12       1.0  0.21154  0.66128  0.23876  1.0000
  H   H13       1.0  0.17046  0.56303  0.89483  1.0000
  H   H14       1.0  0.67046  0.93697  0.60517  1.0000
  H   H15       1.0  0.82954  0.43697  0.10517  1.0000
  H   H16       1.0  0.32954  0.06303  0.39483  1.0000
  H   H17       1.0  0.35105  0.70493  0.99497  1.0000
  H   H18       1.0  0.85105  0.79507  0.50504  1.0000
  H   H19       1.0  0.64895  0.29507  0.00504  1.0000
  H   H20       1.0  0.14895  0.20493  0.49496  1.0000
  H   H21       1.0  0.29261  0.96479  0.95608  1.0000
  H   H22       1.0  0.79261  0.53521  0.54392  1.0000
  H   H23       1.0  0.70739  0.03520  0.04392  1.0000
  H   H24       1.0  0.20739  0.46479  0.45608  1.0000
  H   H25       1.0  0.38110  0.32193  0.93113  1.0000
  H   H26       1.0  0.88110  0.17806  0.56887  1.0000
  H   H27       1.0  0.61890  0.67807  0.06887  1.0000
  H   H28       1.0  0.11890  0.82194  0.43113  1.0000
  H   H29       1.0  0.10110  0.38506  0.98658  1.0000
  H   H30       1.0  0.60110  0.11494  0.51342  1.0000
  H   H31       1.0  0.89891  0.61494  0.01342  1.0000
  H   H32       1.0  0.39890  0.88506  0.48658  1.0000
  H   H33       1.0  0.92379  0.19459  0.92109  1.0000
  H   H34       1.0  0.42379  0.30541  0.57891  1.0000
  H   H35       1.0  0.07621  0.80541  0.07891  1.0000
  H   H36       1.0  0.57621  0.69459  0.42109  1.0000
  H   H37       1.0  0.88087  0.10603  0.72163  1.0000
  H   H38       1.0  0.38087  0.39397  0.77837  1.0000
  H   H39       1.0  0.11913  0.89397  0.27837  1.0000
  H   H40       1.0  0.61913  0.60603  0.22163  1.0000
  H   H41       1.0  0.60852  0.12491  0.72571  1.0000
  H   H42       1.0  0.10852  0.37509  0.77429  1.0000
  H   H43       1.0  0.39148  0.87509  0.27429  1.0000
  H   H44       1.0  0.89148  0.62491  0.22571  1.0000
  H   H45       1.0  0.46782  0.03187  0.83763  1.0000
  H   H46       1.0  0.96782  0.46813  0.66237  1.0000
  H   H47       1.0  0.53218  0.96813  0.16237  1.0000
  H   H48       1.0  0.03218  0.53187  0.33763  1.0000
  H   H49       1.0  0.60108  0.90128  0.93909  1.0000
  H   H50       1.0  0.10108  0.59872  0.56092  1.0000
  H   H51       1.0  0.39892  0.09872  0.06092  1.0000
  H   H52       1.0  0.89892  0.40128  0.43909  1.0000
  H   H53       1.0  0.87384  0.88338  0.93555  1.0000
  H   H54       1.0  0.37384  0.61662  0.56445  1.0000
  H   H55       1.0  0.12616  0.11662  0.06446  1.0000
  H   H56       1.0  0.62616  0.38338  0.43555  1.0000
  C   C1        1.0  0.16247  0.92301  0.62740  1.0000
  C   C2        1.0  0.66247  0.57699  0.87260  1.0000
  C   C3        1.0  0.83753  0.07699  0.37260  1.0000
  C   C4        1.0  0.33753  0.42301  0.12740  1.0000
  C   C5        1.0  0.25637  0.03389  0.63245  1.0000
  C   C6        1.0  0.75637  0.46611  0.86755  1.0000
  C   C7        1.0  0.74363  0.96611  0.36755  1.0000
  C   C8        1.0  0.24363  0.53389  0.13245  1.0000
  C   C9        1.0  0.23834  0.07893  0.70825  1.0000
  C   C10       1.0  0.73834  0.42107  0.79175  1.0000
  C   C11       1.0  0.76166  0.92107  0.29175  1.0000
  C   C12       1.0  0.26166  0.57893  0.20825  1.0000
  C   C13       1.0  0.18320  0.66967  0.90078  1.0000
  C   C14       1.0  0.68320  0.83033  0.59922  1.0000
  C   C15       1.0  0.81680  0.33033  0.09922  1.0000
  C   C16       1.0  0.31680  0.16967  0.40078  1.0000
  C   C17       1.0  0.27558  0.74216  0.95114  1.0000
  C   C18       1.0  0.77558  0.75784  0.54885  1.0000
  C   C19       1.0  0.72442  0.25784  0.04885  1.0000
  C   C20       1.0  0.22442  0.24216  0.45115  1.0000
  C   C21       1.0  0.24714  0.87395  0.93269  1.0000
  C   C22       1.0  0.74714  0.62604  0.56731  1.0000
  C   C23       1.0  0.75286  0.12604  0.06731  1.0000
  C   C24       1.0  0.25286  0.37395  0.43269  1.0000
  C   C25       1.0  0.27608  0.27233  0.92076  1.0000
  C   C26       1.0  0.77608  0.22767  0.57924  1.0000
  C   C27       1.0  0.72392  0.72767  0.07924  1.0000
  C   C28       1.0  0.22392  0.77233  0.42076  1.0000
  C   C29       1.0  0.13353  0.30553  0.94778  1.0000
  C   C30       1.0  0.63353  0.19447  0.55222  1.0000
  C   C31       1.0  0.86647  0.69447  0.05222  1.0000
  C   C32       1.0  0.36647  0.80553  0.44778  1.0000
  C   C33       1.0  0.04188  0.20996  0.91543  1.0000
  C   C34       1.0  0.54188  0.29004  0.58457  1.0000
  C   C35       1.0  0.95813  0.79004  0.08457  1.0000
  C   C36       1.0  0.45812  0.70996  0.41543  1.0000
  C   C37       1.0  0.89915  0.99463  0.82870  1.0000
  C   C38       1.0  0.39915  0.50537  0.67130  1.0000
  C   C39       1.0  0.10085  0.00537  0.17130  1.0000
  C   C40       1.0  0.60085  0.49463  0.32870  1.0000
  C   C41       1.0  0.82050  0.06098  0.76979  1.0000
  C   C42       1.0  0.32050  0.43902  0.73021  1.0000
  C   C43       1.0  0.17950  0.93902  0.23021  1.0000
  C   C44       1.0  0.67950  0.56098  0.26979  1.0000
  C   C45       1.0  0.66657  0.07178  0.77179  1.0000
  C   C46       1.0  0.16657  0.42822  0.72821  1.0000
  C   C47       1.0  0.33343  0.92822  0.22822  1.0000
  C   C48       1.0  0.83343  0.57178  0.27179  1.0000
  C   C49       1.0  0.58707  0.01598  0.83334  1.0000
  C   C50       1.0  0.08707  0.48402  0.66666  1.0000
  C   C51       1.0  0.41292  0.98402  0.16666  1.0000
  C   C52       1.0  0.91292  0.51598  0.33334  1.0000
  C   C53       1.0  0.66262  0.94682  0.89143  1.0000
  C   C54       1.0  0.16262  0.55318  0.60857  1.0000
  C   C55       1.0  0.33738  0.05318  0.10857  1.0000
  C   C56       1.0  0.83738  0.44682  0.39143  1.0000
  C   C57       1.0  0.81684  0.93675  0.88921  1.0000
  C   C58       1.0  0.31684  0.56325  0.61079  1.0000
  C   C59       1.0  0.18316  0.06325  0.11079  1.0000
  C   C60       1.0  0.68316  0.43675  0.38921  1.0000
  N   N1        1.0  0.14004  0.99774  0.74468  1.0000
  N   N2        1.0  0.64004  0.50226  0.75532  1.0000
  N   N3        1.0  0.85996  0.00226  0.25532  1.0000
  N   N4        1.0  0.35996  0.49774  0.24468  1.0000
  N   N5        1.0  0.09222  0.90113  0.69497  1.0000
  N   N6        1.0  0.59222  0.59887  0.80503  1.0000
  N   N7        1.0  0.90778  0.09887  0.30503  1.0000
  N   N8        1.0  0.40778  0.40113  0.19497  1.0000
  N   N9        1.0  0.14467  0.87677  0.87478  1.0000
  N   N10       1.0  0.64467  0.62323  0.62522  1.0000
  N   N11       1.0  0.85533  0.12323  0.12522  1.0000
  N   N12       1.0  0.35533  0.37677  0.37478  1.0000
  N   N13       1.0  0.10418  0.75088  0.85480  1.0000
  N   N14       1.0  0.60419  0.74912  0.64520  1.0000
  N   N15       1.0  0.89582  0.24912  0.14520  1.0000
  N   N16       1.0  0.39582  0.25088  0.35480  1.0000
  N   N17       1.0  0.12747  0.12670  0.87225  1.0000
  N   N18       1.0  0.62747  0.37330  0.62775  1.0000
  N   N19       1.0  0.87253  0.87330  0.12775  1.0000
  N   N20       1.0  0.37253  0.62670  0.37225  1.0000
  N   N21       1.0  0.27243  0.16417  0.87551  1.0000
  N   N22       1.0  0.77243  0.33583  0.62449  1.0000
  N   N23       1.0  0.72757  0.83583  0.12449  1.0000
  N   N24       1.0  0.22757  0.66417  0.37551  1.0000
