data_image0
_chemical_formula_structural       Cu4H60C60N4O16
_chemical_formula_sum              "Cu4 H60 C60 N4 O16"
_cell_length_a       4.82958
_cell_length_b       11.4111
_cell_length_c       24.697
_cell_angle_alpha    90
_cell_angle_beta     90
_cell_angle_gamma    93.6865

_space_group_name_H-M_alt    "P 1"
_space_group_IT_number       1

loop_
  _space_group_symop_operation_xyz
  'x, y, z'

loop_
  _atom_site_type_symbol
  _atom_site_label
  _atom_site_symmetry_multiplicity
  _atom_site_fract_x
  _atom_site_fract_y
  _atom_site_fract_z
  _atom_site_occupancy
  Cu  Cu1       1.0  0.99869  0.36810  0.01426  1.0000
  Cu  Cu2       1.0  0.50133  0.13192  0.51425  1.0000
  Cu  Cu3       1.0  0.00134  0.63191  0.98574  1.0000
  Cu  Cu4       1.0  0.49866  0.86809  0.48574  1.0000
  H   H1        1.0  0.71113  0.13965  0.01414  1.0000
  H   H2        1.0  0.78893  0.36033  0.51413  1.0000
  H   H3        1.0  0.28886  0.86033  0.98586  1.0000
  H   H4        1.0  0.21106  0.63967  0.48586  1.0000
  H   H5        1.0  0.69243  0.95803  0.95578  1.0000
  H   H6        1.0  0.80756  0.54198  0.45577  1.0000
  H   H7        1.0  0.30757  0.04197  0.04422  1.0000
  H   H8        1.0  0.19245  0.45803  0.54422  1.0000
  H   H9        1.0  0.97901  0.96099  0.87129  1.0000
  H   H10       1.0  0.52101  0.53901  0.37128  1.0000
  H   H11       1.0  0.02099  0.03901  0.12871  1.0000
  H   H12       1.0  0.47898  0.46100  0.62871  1.0000
  H   H13       1.0  0.27166  0.14498  0.84829  1.0000
  H   H14       1.0  0.22848  0.35500  0.34826  1.0000
  H   H15       1.0  0.72833  0.85502  0.15171  1.0000
  H   H16       1.0  0.77152  0.64500  0.65173  1.0000
  H   H17       1.0  0.40764  0.34470  0.86759  1.0000
  H   H18       1.0  0.09251  0.15530  0.36756  1.0000
  H   H19       1.0  0.59236  0.65530  0.13240  1.0000
  H   H20       1.0  0.90749  0.84471  0.63243  1.0000
  H   H21       1.0  0.44931  0.37703  0.93797  1.0000
  H   H22       1.0  0.05067  0.12296  0.43793  1.0000
  H   H23       1.0  0.55071  0.62296  0.06202  1.0000
  H   H24       1.0  0.94932  0.87704  0.56206  1.0000
  H   H25       1.0  0.20662  0.52998  0.88562  1.0000
  H   H26       1.0  0.29354  0.97002  0.38559  1.0000
  H   H27       1.0  0.79340  0.47002  0.11439  1.0000
  H   H28       1.0  0.70647  0.02998  0.61441  1.0000
  H   H29       1.0  0.92867  0.42433  0.87193  1.0000
  H   H30       1.0  0.57149  0.07566  0.37194  1.0000
  H   H31       1.0  0.07132  0.57566  0.12807  1.0000
  H   H32       1.0  0.42852  0.92434  0.62806  1.0000
  H   H33       1.0  0.64934  0.16381  0.11747  1.0000
  H   H34       1.0  0.85061  0.33617  0.61746  1.0000
  H   H35       1.0  0.35066  0.83618  0.88254  1.0000
  H   H36       1.0  0.14939  0.66383  0.38254  1.0000
  H   H37       1.0  0.66433  0.30203  0.14877  1.0000
  H   H38       1.0  0.83565  0.19796  0.64876  1.0000
  H   H39       1.0  0.33566  0.69796  0.85124  1.0000
  H   H40       1.0  0.16436  0.80205  0.35124  1.0000
  H   H41       1.0  0.00178  0.09868  0.24132  1.0000
  H   H42       1.0  0.49825  0.40135  0.74132  1.0000
  H   H43       1.0  0.99821  0.90132  0.75868  1.0000
  H   H44       1.0  0.50177  0.59865  0.25869  1.0000
  H   H45       1.0  0.70372  0.21212  0.30234  1.0000
  H   H46       1.0  0.79630  0.28792  0.80233  1.0000
  H   H47       1.0  0.29625  0.78789  0.69766  1.0000
  H   H48       1.0  0.20371  0.71208  0.19767  1.0000
  H   H49       1.0  0.72927  0.43076  0.29769  1.0000
  H   H50       1.0  0.77071  0.06927  0.79768  1.0000
  H   H51       1.0  0.27072  0.56924  0.70231  1.0000
  H   H52       1.0  0.22929  0.93072  0.20232  1.0000
  H   H53       1.0  0.04650  0.53391  0.23222  1.0000
  H   H54       1.0  0.45346  0.96612  0.73222  1.0000
  H   H55       1.0  0.95351  0.46609  0.76778  1.0000
  H   H56       1.0  0.54653  0.03388  0.26778  1.0000
  H   H57       1.0  0.34024  0.42257  0.17104  1.0000
  H   H58       1.0  0.15967  0.07746  0.67105  1.0000
  H   H59       1.0  0.65975  0.57743  0.82896  1.0000
  H   H60       1.0  0.84031  0.92254  0.32896  1.0000
  C   C1        1.0  0.83012  0.13503  0.97688  1.0000
  C   C2        1.0  0.66993  0.36496  0.47686  1.0000
  C   C3        1.0  0.16987  0.86496  0.02312  1.0000
  C   C4        1.0  0.33008  0.63504  0.52313  1.0000
  C   C5        1.0  0.82058  0.03591  0.94419  1.0000
  C   C6        1.0  0.67945  0.46408  0.44417  1.0000
  C   C7        1.0  0.17941  0.96409  0.05581  1.0000
  C   C8        1.0  0.32055  0.53592  0.55582  1.0000
  C   C9        1.0  0.98303  0.03798  0.89747  1.0000
  C   C10       1.0  0.51704  0.46201  0.39745  1.0000
  C   C11       1.0  0.01698  0.96202  0.10253  1.0000
  C   C12       1.0  0.48296  0.53799  0.60254  1.0000
  C   C13       1.0  0.14455  0.13989  0.88478  1.0000
  C   C14       1.0  0.35556  0.36009  0.38475  1.0000
  C   C15       1.0  0.85546  0.86011  0.11522  1.0000
  C   C16       1.0  0.64444  0.63991  0.61524  1.0000
  C   C17       1.0  0.14344  0.23761  0.91900  1.0000
  C   C18       1.0  0.35665  0.26238  0.41898  1.0000
  C   C19       1.0  0.85658  0.76238  0.08101  1.0000
  C   C20       1.0  0.64336  0.73762  0.58102  1.0000
  C   C21       1.0  0.29642  0.35247  0.90611  1.0000
  C   C22       1.0  0.20362  0.14752  0.40608  1.0000
  C   C23       1.0  0.70358  0.64752  0.09389  1.0000
  C   C24       1.0  0.79639  0.85248  0.59391  1.0000
  C   C25       1.0  0.09316  0.45066  0.90166  1.0000
  C   C26       1.0  0.40693  0.04934  0.40165  1.0000
  C   C27       1.0  0.90684  0.54934  0.09834  1.0000
  C   C28       1.0  0.59307  0.95067  0.59834  1.0000
  C   C29       1.0  0.37964  0.28408  0.08097  1.0000
  C   C30       1.0  0.12035  0.21591  0.58097  1.0000
  C   C31       1.0  0.62038  0.71592  0.91903  1.0000
  C   C32       1.0  0.87964  0.78409  0.41903  1.0000
  C   C33       1.0  0.52043  0.23405  0.13084  1.0000
  C   C34       1.0  0.97954  0.26594  0.63083  1.0000
  C   C35       1.0  0.47957  0.76594  0.86917  1.0000
  C   C36       1.0  0.02047  0.73406  0.36917  1.0000
  C   C37       1.0  0.18946  0.25291  0.20276  1.0000
  C   C38       1.0  0.31047  0.24713  0.70277  1.0000
  C   C39       1.0  0.81054  0.74709  0.79724  1.0000
  C   C40       1.0  0.68953  0.75288  0.29724  1.0000
  C   C41       1.0  0.01062  0.19432  0.24010  1.0000
  C   C42       1.0  0.48934  0.30571  0.74010  1.0000
  C   C43       1.0  0.98937  0.80568  0.75991  1.0000
  C   C44       1.0  0.51066  0.69429  0.25991  1.0000
  C   C45       1.0  0.84540  0.25808  0.27388  1.0000
  C   C46       1.0  0.65458  0.24195  0.77388  1.0000
  C   C47       1.0  0.15457  0.74192  0.72612  1.0000
  C   C48       1.0  0.34542  0.75805  0.22612  1.0000
  C   C49       1.0  0.85800  0.38068  0.27133  1.0000
  C   C50       1.0  0.64197  0.11935  0.77133  1.0000
  C   C51       1.0  0.14197  0.61932  0.72867  1.0000
  C   C52       1.0  0.35803  0.88064  0.22868  1.0000
  C   C53       1.0  0.03819  0.43838  0.23449  1.0000
  C   C54       1.0  0.46175  0.06166  0.73449  1.0000
  C   C55       1.0  0.96180  0.56162  0.76551  1.0000
  C   C56       1.0  0.53823  0.93834  0.26551  1.0000
  C   C57       1.0  0.20486  0.37579  0.20013  1.0000
  C   C58       1.0  0.29506  0.12424  0.70014  1.0000
  C   C59       1.0  0.79514  0.62420  0.79987  1.0000
  C   C60       1.0  0.70493  0.87577  0.29986  1.0000
  N   N1        1.0  0.98823  0.23280  0.96476  1.0000
  N   N2        1.0  0.51182  0.26718  0.46474  1.0000
  N   N3        1.0  0.01177  0.76719  0.03524  1.0000
  N   N4        1.0  0.48818  0.73282  0.53525  1.0000
  O   O1        1.0  0.97624  0.47671  0.95212  1.0000
  O   O2        1.0  0.52374  0.02328  0.45212  1.0000
  O   O3        1.0  0.02379  0.52327  0.04789  1.0000
  O   O4        1.0  0.47625  0.97674  0.54787  1.0000
  O   O5        1.0  0.11371  0.28169  0.08075  1.0000
  O   O6        1.0  0.38628  0.21834  0.58074  1.0000
  O   O7        1.0  0.88631  0.71830  0.91925  1.0000
  O   O8        1.0  0.61371  0.78166  0.41925  1.0000
  O   O9        1.0  0.53297  0.32348  0.04324  1.0000
  O   O10       1.0  0.96702  0.17645  0.54325  1.0000
  O   O11       1.0  0.46704  0.67652  0.95677  1.0000
  O   O12       1.0  0.03298  0.82355  0.45675  1.0000
  O   O13       1.0  0.33758  0.18163  0.17079  1.0000
  O   O14       1.0  0.16237  0.31839  0.67078  1.0000
  O   O15       1.0  0.66242  0.81837  0.82922  1.0000
  O   O16       1.0  0.83765  0.68162  0.32922  1.0000
