data_image0
_chemical_formula_structural       Cu4H40C30N4O14
_chemical_formula_sum              "Cu4 H40 C30 N4 O14"
_cell_length_a       7.02078
_cell_length_b       9.3339
_cell_length_c       15.3667
_cell_angle_alpha    104.534
_cell_angle_beta     89.9967
_cell_angle_gamma    112.1

_space_group_name_H-M_alt    "P 1"
_space_group_IT_number       1

loop_
  _space_group_symop_operation_xyz
  'x, y, z'

loop_
  _atom_site_type_symbol
  _atom_site_label
  _atom_site_symmetry_multiplicity
  _atom_site_fract_x
  _atom_site_fract_y
  _atom_site_fract_z
  _atom_site_occupancy
  Cu  Cu1       1.0  0.39268  0.90191  0.90313  1.0000
  Cu  Cu2       1.0  0.49066  0.09820  0.59684  1.0000
  Cu  Cu3       1.0  0.60732  0.09829  0.09699  1.0000
  Cu  Cu4       1.0  0.50911  0.90167  0.40312  1.0000
  H   H1        1.0  0.39212  0.71423  0.72077  1.0000
  H   H2        1.0  0.67847  0.28579  0.77911  1.0000
  H   H3        1.0  0.60801  0.28602  0.27934  1.0000
  H   H4        1.0  0.32139  0.71396  0.22081  1.0000
  H   H5        1.0  0.26524  0.41872  0.63703  1.0000
  H   H6        1.0  0.84724  0.58130  0.86291  1.0000
  H   H7        1.0  0.73491  0.58150  0.36308  1.0000
  H   H8        1.0  0.15282  0.41853  0.13704  1.0000
  H   H9        1.0  0.14443  0.21687  0.72660  1.0000
  H   H10       1.0  0.92761  0.78321  0.77339  1.0000
  H   H11       1.0  0.85578  0.78338  0.27348  1.0000
  H   H12       1.0  0.07250  0.21654  0.22657  1.0000
  H   H13       1.0  0.13381  0.31500  0.89357  1.0000
  H   H14       1.0  0.81857  0.68518  0.60649  1.0000
  H   H15       1.0  0.86619  0.68532  0.10651  1.0000
  H   H16       1.0  0.18127  0.31456  0.39348  1.0000
  H   H17       1.0  0.17136  0.52686  0.02178  1.0000
  H   H18       1.0  0.64430  0.47317  0.47819  1.0000
  H   H19       1.0  0.82871  0.47330  0.97831  1.0000
  H   H20       1.0  0.35558  0.52674  0.52177  1.0000
  H   H21       1.0  0.12799  0.69113  0.99989  1.0000
  H   H22       1.0  0.43669  0.30888  0.50010  1.0000
  H   H23       1.0  0.87164  0.30882  0.00018  1.0000
  H   H24       1.0  0.56306  0.69112  0.49988  1.0000
  H   H25       1.0  0.42270  0.77796  0.11453  1.0000
  H   H26       1.0  0.64455  0.22206  0.38547  1.0000
  H   H27       1.0  0.57667  0.22246  0.88558  1.0000
  H   H28       1.0  0.35474  0.77766  0.61447  1.0000
  H   H29       1.0  0.55010  0.67894  0.03652  1.0000
  H   H30       1.0  0.87104  0.32121  0.46345  1.0000
  H   H31       1.0  0.44975  0.32153  0.96387  1.0000
  H   H32       1.0  0.12851  0.67848  0.53631  1.0000
  H   H33       1.0  0.98528  0.92308  0.03804  1.0000
  H   H34       1.0  0.06184  0.07738  0.46139  1.0000
  H   H35       1.0  0.01772  0.07894  0.95912  1.0000
  H   H36       1.0  0.93863  0.92152  0.54024  1.0000
  H   H37       1.0  0.76641  0.85048  0.99020  1.0000
  H   H38       1.0  0.91515  0.14913  0.50973  1.0000
  H   H39       1.0  0.23399  0.14768  0.00960  1.0000
  H   H40       1.0  0.08600  0.85195  0.49038  1.0000
  C   C1        1.0  0.32576  0.61951  0.75445  1.0000
  C   C2        1.0  0.70668  0.38050  0.74547  1.0000
  C   C3        1.0  0.67435  0.38072  0.24566  1.0000
  C   C4        1.0  0.29325  0.61927  0.25447  1.0000
  C   C5        1.0  0.26008  0.45741  0.70960  1.0000
  C   C6        1.0  0.80303  0.54261  0.79037  1.0000
  C   C7        1.0  0.74010  0.54284  0.29049  1.0000
  C   C8        1.0  0.19695  0.45715  0.20958  1.0000
  C   C9        1.0  0.18939  0.34457  0.75917  1.0000
  C   C10       1.0  0.84483  0.65549  0.74086  1.0000
  C   C11       1.0  0.81077  0.65567  0.24092  1.0000
  C   C12       1.0  0.15524  0.34427  0.25909  1.0000
  C   C13       1.0  0.18453  0.39885  0.85195  1.0000
  C   C14       1.0  0.78547  0.60133  0.64810  1.0000
  C   C15       1.0  0.81556  0.60142  0.14812  1.0000
  C   C16       1.0  0.21445  0.39844  0.35187  1.0000
  C   C17       1.0  0.24469  0.56303  0.89280  1.0000
  C   C18       1.0  0.68151  0.43711  0.60719  1.0000
  C   C19       1.0  0.75535  0.43719  0.10730  1.0000
  C   C20       1.0  0.31834  0.56268  0.39275  1.0000
  C   C21       1.0  0.23383  0.62740  0.99137  1.0000
  C   C22       1.0  0.60627  0.37268  0.50862  1.0000
  C   C23       1.0  0.76604  0.37277  0.00871  1.0000
  C   C24       1.0  0.39349  0.62718  0.49133  1.0000
  C   C25       1.0  0.44322  0.74164  0.04268  1.0000
  C   C26       1.0  0.70146  0.25849  0.45731  1.0000
  C   C27       1.0  0.55651  0.25870  0.95748  1.0000
  C   C28       1.0  0.29813  0.74127  0.54259  1.0000
  C   C29       1.0  0.38444  0.99999  0.74984  1.0000
  C   C30       1.0  0.61506  0.00004  0.25023  1.0000
  N   N1        1.0  0.31523  0.67110  0.84370  1.0000
  N   N2        1.0  0.64416  0.32900  0.65625  1.0000
  N   N3        1.0  0.68486  0.32913  0.15639  1.0000
  N   N4        1.0  0.35569  0.67080  0.34369  1.0000
  O   O1        1.0  0.52887  0.88241  0.01147  1.0000
  O   O2        1.0  0.64641  0.11770  0.48852  1.0000
  O   O3        1.0  0.47093  0.11786  0.98866  1.0000
  O   O4        1.0  0.35321  0.88208  0.51140  1.0000
  O   O5        1.0  0.26280  0.95653  0.81161  1.0000
  O   O6        1.0  0.30589  0.04365  0.68831  1.0000
  O   O7        1.0  0.73687  0.04385  0.18859  1.0000
  O   O8        1.0  0.69355  0.95609  0.31164  1.0000
  O   O9        1.0  0.56552  0.99977  0.74961  1.0000
  O   O10       1.0  0.43396  0.00017  0.25048  1.0000
  O   O11       1.0  0.89527  0.82986  0.99073  1.0000
  O   O12       1.0  0.06466  0.16961  0.50935  1.0000
  O   O13       1.0  0.10427  0.16739  0.00954  1.0000
  O   O14       1.0  0.93654  0.83209  0.49043  1.0000
