data_image0
_chemical_formula_structural       Cu4H32C28N8O16
_chemical_formula_sum              "Cu4 H32 C28 N8 O16"
_cell_length_a       4.82549
_cell_length_b       13.5738
_cell_length_c       14.5223
_cell_angle_alpha    112.472
_cell_angle_beta     89.9982
_cell_angle_gamma    89.9956

_space_group_name_H-M_alt    "P 1"
_space_group_IT_number       1

loop_
  _space_group_symop_operation_xyz
  'x, y, z'

loop_
  _atom_site_type_symbol
  _atom_site_label
  _atom_site_symmetry_multiplicity
  _atom_site_fract_x
  _atom_site_fract_y
  _atom_site_fract_z
  _atom_site_occupancy
  Cu  Cu1       1.0  0.92619  0.45826  0.58124  1.0000
  Cu  Cu2       1.0  0.42611  0.04175  0.91875  1.0000
  Cu  Cu3       1.0  0.07378  0.54174  0.41877  1.0000
  Cu  Cu4       1.0  0.57375  0.95827  0.08124  1.0000
  H   H1        1.0  0.07985  0.34678  0.70767  1.0000
  H   H2        1.0  0.57988  0.15320  0.79232  1.0000
  H   H3        1.0  0.92015  0.65320  0.29233  1.0000
  H   H4        1.0  0.42014  0.84680  0.20767  1.0000
  H   H5        1.0  0.02046  0.16234  0.70667  1.0000
  H   H6        1.0  0.52045  0.33764  0.79332  1.0000
  H   H7        1.0  0.97953  0.83763  0.29331  1.0000
  H   H8        1.0  0.47953  0.66236  0.20668  1.0000
  H   H9        1.0  0.76886  0.02625  0.56377  1.0000
  H   H10       1.0  0.26888  0.47374  0.93624  1.0000
  H   H11       1.0  0.23112  0.97373  0.43620  1.0000
  H   H12       1.0  0.73110  0.52625  0.06378  1.0000
  H   H13       1.0  0.60184  0.07817  0.42336  1.0000
  H   H14       1.0  0.10177  0.42183  0.07664  1.0000
  H   H15       1.0  0.39820  0.92182  0.57661  1.0000
  H   H16       1.0  0.89824  0.57815  0.92337  1.0000
  H   H17       1.0  0.50352  0.33708  0.43921  1.0000
  H   H18       1.0  0.00363  0.16293  0.06079  1.0000
  H   H19       1.0  0.49646  0.66291  0.56079  1.0000
  H   H20       1.0  0.99646  0.83707  0.93922  1.0000
  H   H21       1.0  0.56692  0.20483  0.35154  1.0000
  H   H22       1.0  0.06685  0.29519  0.14848  1.0000
  H   H23       1.0  0.43314  0.79516  0.64846  1.0000
  H   H24       1.0  0.93312  0.70484  0.85152  1.0000
  H   H25       1.0  0.83337  0.32873  0.30319  1.0000
  H   H26       1.0  0.33335  0.17127  0.19681  1.0000
  H   H27       1.0  0.16664  0.67133  0.69684  1.0000
  H   H28       1.0  0.66668  0.82868  0.80315  1.0000
  H   H29       1.0  0.06785  0.25147  0.34316  1.0000
  H   H30       1.0  0.56791  0.24848  0.15682  1.0000
  H   H31       1.0  0.93218  0.74856  0.65684  1.0000
  H   H32       1.0  0.43215  0.75152  0.84319  1.0000
  C   C1        1.0  0.97444  0.28392  0.64698  1.0000
  C   C2        1.0  0.47448  0.21606  0.85301  1.0000
  C   C3        1.0  0.02555  0.71606  0.35300  1.0000
  C   C4        1.0  0.52555  0.78394  0.14699  1.0000
  C   C5        1.0  0.93868  0.18208  0.64603  1.0000
  C   C6        1.0  0.43871  0.31790  0.85396  1.0000
  C   C7        1.0  0.06132  0.81789  0.35394  1.0000
  C   C8        1.0  0.56133  0.68209  0.14605  1.0000
  C   C9        1.0  0.79853  0.10660  0.56582  1.0000
  C   C10       1.0  0.29855  0.39339  0.93418  1.0000
  C   C11       1.0  0.20147  0.89338  0.43415  1.0000
  C   C12       1.0  0.70148  0.60661  0.06584  1.0000
  C   C13       1.0  0.70438  0.13518  0.48889  1.0000
  C   C14       1.0  0.20437  0.36483  0.01113  1.0000
  C   C15       1.0  0.29565  0.86482  0.51110  1.0000
  C   C16       1.0  0.79566  0.63516  0.98889  1.0000
  C   C17       1.0  0.74829  0.23890  0.49346  1.0000
  C   C18       1.0  0.24830  0.26112  0.00656  1.0000
  C   C19       1.0  0.25172  0.76110  0.50654  1.0000
  C   C20       1.0  0.75172  0.73889  0.99345  1.0000
  C   C21       1.0  0.66035  0.27323  0.41138  1.0000
  C   C22       1.0  0.16036  0.22679  0.08863  1.0000
  C   C23       1.0  0.33967  0.72677  0.58861  1.0000
  C   C24       1.0  0.83966  0.77323  0.91138  1.0000
  C   C25       1.0  0.90653  0.31393  0.36870  1.0000
  C   C26       1.0  0.40651  0.18607  0.13130  1.0000
  C   C27       1.0  0.09347  0.68610  0.63132  1.0000
  C   C28       1.0  0.59351  0.81394  0.86869  1.0000
  N   N1        1.0  0.88024  0.31131  0.57272  1.0000
  N   N2        1.0  0.38027  0.18869  0.92729  1.0000
  N   N3        1.0  0.11975  0.68868  0.42729  1.0000
  N   N4        1.0  0.61974  0.81131  0.07271  1.0000
  N   N5        1.0  0.51634  0.51095  0.72176  1.0000
  N   N6        1.0  0.01638  0.98905  0.77824  1.0000
  N   N7        1.0  0.48360  0.48905  0.27824  1.0000
  N   N8        1.0  0.98363  0.01095  0.22179  1.0000
  O   O1        1.0  0.01768  0.40958  0.43917  1.0000
  O   O2        1.0  0.51750  0.09040  0.06081  1.0000
  O   O3        1.0  0.98233  0.59044  0.56085  1.0000
  O   O4        1.0  0.48242  0.90961  0.93915  1.0000
  O   O5        1.0  0.78268  0.52825  0.72126  1.0000
  O   O6        1.0  0.28272  0.97172  0.77875  1.0000
  O   O7        1.0  0.21726  0.47173  0.27874  1.0000
  O   O8        1.0  0.71728  0.02828  0.22129  1.0000
  O   O9        1.0  0.39852  0.46337  0.63891  1.0000
  O   O10       1.0  0.89852  0.03666  0.86107  1.0000
  O   O11       1.0  0.60141  0.53664  0.36108  1.0000
  O   O12       1.0  0.10144  0.96334  0.13894  1.0000
  O   O13       1.0  0.39250  0.54113  0.80308  1.0000
  O   O14       1.0  0.89261  0.95887  0.69690  1.0000
  O   O15       1.0  0.60742  0.45889  0.19691  1.0000
  O   O16       1.0  0.10746  0.04113  0.30310  1.0000
