data_image0
_chemical_formula_structural       Cu4H36C36Br4N12
_chemical_formula_sum              "Cu4 H36 C36 Br4 N12"
_cell_length_a       4.02124
_cell_length_b       13.6684
_cell_length_c       17.1919
_cell_angle_alpha    90.0001
_cell_angle_beta     90.7296
_cell_angle_gamma    89.9998

_space_group_name_H-M_alt    "P 1"
_space_group_IT_number       1

loop_
  _space_group_symop_operation_xyz
  'x, y, z'

loop_
  _atom_site_type_symbol
  _atom_site_label
  _atom_site_symmetry_multiplicity
  _atom_site_fract_x
  _atom_site_fract_y
  _atom_site_fract_z
  _atom_site_occupancy
  Cu  Cu1       1.0  0.35515  0.94192  0.41730  1.0000
  Cu  Cu2       1.0  0.64484  0.44192  0.08270  1.0000
  Cu  Cu3       1.0  0.64482  0.05809  0.58270  1.0000
  Cu  Cu4       1.0  0.35516  0.55808  0.91730  1.0000
  H   H1        1.0  0.38221  0.67146  0.72100  1.0000
  H   H2        1.0  0.61779  0.17146  0.77900  1.0000
  H   H3        1.0  0.61778  0.32854  0.27900  1.0000
  H   H4        1.0  0.38220  0.82854  0.22100  1.0000
  H   H5        1.0  0.92740  0.92515  0.69778  1.0000
  H   H6        1.0  0.07262  0.42516  0.80221  1.0000
  H   H7        1.0  0.07264  0.07484  0.30221  1.0000
  H   H8        1.0  0.92738  0.57484  0.19779  1.0000
  H   H9        1.0  0.84511  0.80433  0.73304  1.0000
  H   H10       1.0  0.15491  0.30434  0.76695  1.0000
  H   H11       1.0  0.15492  0.19566  0.26696  1.0000
  H   H12       1.0  0.84508  0.69566  0.23305  1.0000
  H   H13       1.0  0.03676  0.54891  0.65061  1.0000
  H   H14       1.0  0.96323  0.04890  0.84939  1.0000
  H   H15       1.0  0.96321  0.45110  0.34939  1.0000
  H   H16       1.0  0.03676  0.95110  0.15061  1.0000
  H   H17       1.0  0.98002  0.73273  0.44510  1.0000
  H   H18       1.0  0.01999  0.23273  0.05490  1.0000
  H   H19       1.0  0.01997  0.26728  0.55490  1.0000
  H   H20       1.0  0.98003  0.76728  0.94510  1.0000
  H   H21       1.0  0.83494  0.57787  0.51585  1.0000
  H   H22       1.0  0.16505  0.07787  0.98415  1.0000
  H   H23       1.0  0.16503  0.42214  0.48415  1.0000
  H   H24       1.0  0.83496  0.92214  0.01586  1.0000
  H   H25       1.0  0.40778  0.98772  0.76146  1.0000
  H   H26       1.0  0.59225  0.48772  0.73853  1.0000
  H   H27       1.0  0.59228  0.01228  0.23854  1.0000
  H   H28       1.0  0.40775  0.51227  0.26146  1.0000
  H   H29       1.0  0.56247  0.80020  0.85656  1.0000
  H   H30       1.0  0.43755  0.30020  0.64344  1.0000
  H   H31       1.0  0.43756  0.19980  0.14344  1.0000
  H   H32       1.0  0.56244  0.69979  0.35656  1.0000
  H   H33       1.0  0.31160  0.90737  0.88762  1.0000
  H   H34       1.0  0.68844  0.40736  0.61237  1.0000
  H   H35       1.0  0.68845  0.09264  0.11238  1.0000
  H   H36       1.0  0.31155  0.59263  0.38762  1.0000
  C   C1        1.0  0.29681  0.68447  0.66151  1.0000
  C   C2        1.0  0.70318  0.18447  0.83849  1.0000
  C   C3        1.0  0.70319  0.31553  0.33849  1.0000
  C   C4        1.0  0.29680  0.81553  0.16152  1.0000
  C   C5        1.0  0.37287  0.77038  0.62110  1.0000
  C   C6        1.0  0.62713  0.27038  0.87890  1.0000
  C   C7        1.0  0.62712  0.22962  0.37890  1.0000
  C   C8        1.0  0.37286  0.72961  0.12110  1.0000
  C   C9        1.0  0.73061  0.87299  0.71318  1.0000
  C   C10       1.0  0.26940  0.37300  0.78681  1.0000
  C   C11       1.0  0.26941  0.12700  0.28682  1.0000
  C   C12       1.0  0.73059  0.62700  0.21318  1.0000
  C   C13       1.0  0.10390  0.61656  0.62130  1.0000
  C   C14       1.0  0.89610  0.11656  0.87870  1.0000
  C   C15       1.0  0.89609  0.38345  0.37870  1.0000
  C   C16       1.0  0.10390  0.88344  0.12131  1.0000
  C   C17       1.0  0.06777  0.71799  0.50407  1.0000
  C   C18       1.0  0.93222  0.21799  0.99593  1.0000
  C   C19       1.0  0.93221  0.28201  0.49593  1.0000
  C   C20       1.0  0.06778  0.78201  0.00407  1.0000
  C   C21       1.0  0.26220  0.78739  0.54394  1.0000
  C   C22       1.0  0.73781  0.28739  0.95606  1.0000
  C   C23       1.0  0.73780  0.21262  0.45607  1.0000
  C   C24       1.0  0.26220  0.71261  0.04394  1.0000
  C   C25       1.0  0.99111  0.63295  0.54406  1.0000
  C   C26       1.0  0.00890  0.13295  0.95594  1.0000
  C   C27       1.0  0.00888  0.36706  0.45594  1.0000
  C   C28       1.0  0.99112  0.86706  0.04406  1.0000
  C   C29       1.0  0.51488  0.91607  0.77494  1.0000
  C   C30       1.0  0.48514  0.41607  0.72504  1.0000
  C   C31       1.0  0.48515  0.08393  0.22505  1.0000
  C   C32       1.0  0.51485  0.58393  0.27495  1.0000
  C   C33       1.0  0.46124  0.87249  0.84307  1.0000
  C   C34       1.0  0.53878  0.37249  0.65693  1.0000
  C   C35       1.0  0.53877  0.12750  0.15693  1.0000
  C   C36       1.0  0.46120  0.62750  0.34306  1.0000
  Br  Br1       1.0  0.86135  0.88509  0.34378  1.0000
  Br  Br2       1.0  0.13863  0.38509  0.15622  1.0000
  Br  Br3       1.0  0.13864  0.11491  0.65623  1.0000
  Br  Br4       1.0  0.86136  0.61491  0.84377  1.0000
  N   N1        1.0  0.38075  0.87718  0.52108  1.0000
  N   N2        1.0  0.61925  0.37718  0.97892  1.0000
  N   N3        1.0  0.61924  0.12283  0.47893  1.0000
  N   N4        1.0  0.38075  0.62282  0.02107  1.0000
  N   N5        1.0  0.55400  0.91561  0.57962  1.0000
  N   N6        1.0  0.44600  0.41561  0.92038  1.0000
  N   N7        1.0  0.44598  0.08440  0.42038  1.0000
  N   N8        1.0  0.55401  0.58439  0.07962  1.0000
  N   N9        1.0  0.55242  0.85185  0.64046  1.0000
  N   N10       1.0  0.44760  0.35185  0.85954  1.0000
  N   N11       1.0  0.44759  0.14815  0.35955  1.0000
  N   N12       1.0  0.55241  0.64815  0.14046  1.0000
