data_image0
_chemical_formula_structural       Ca2H44C48N4O20
_chemical_formula_sum              "Ca2 H44 C48 N4 O20"
_cell_length_a       9.83256
_cell_length_b       11.4435
_cell_length_c       12.9287
_cell_angle_alpha    63.6783
_cell_angle_beta     84.6015
_cell_angle_gamma    77.8227

_space_group_name_H-M_alt    "P 1"
_space_group_IT_number       1

loop_
  _space_group_symop_operation_xyz
  'x, y, z'

loop_
  _atom_site_type_symbol
  _atom_site_label
  _atom_site_symmetry_multiplicity
  _atom_site_fract_x
  _atom_site_fract_y
  _atom_site_fract_z
  _atom_site_occupancy
  Ca  Ca1       1.0  0.75002  0.14450  0.71084  1.0000
  Ca  Ca2       1.0  0.24998  0.85550  0.28916  1.0000
  H   H1        1.0  0.29893  0.53347  0.52326  1.0000
  H   H2        1.0  0.20135  0.94339  0.52318  1.0000
  H   H3        1.0  0.70107  0.46653  0.47674  1.0000
  H   H4        1.0  0.79865  0.05661  0.47682  1.0000
  H   H5        1.0  0.56740  0.83691  0.50321  1.0000
  H   H6        1.0  0.93284  0.66013  0.50321  1.0000
  H   H7        1.0  0.43260  0.16309  0.49679  1.0000
  H   H8        1.0  0.06716  0.33987  0.49679  1.0000
  H   H9        1.0  0.65917  0.73308  0.85475  1.0000
  H   H10       1.0  0.84054  0.41172  0.85483  1.0000
  H   H11       1.0  0.34084  0.26692  0.14525  1.0000
  H   H12       1.0  0.15946  0.58828  0.14517  1.0000
  H   H13       1.0  0.41765  0.50681  0.77708  1.0000
  H   H14       1.0  0.08212  0.71601  0.77688  1.0000
  H   H15       1.0  0.58235  0.49319  0.22292  1.0000
  H   H16       1.0  0.91788  0.28399  0.22312  1.0000
  H   H17       1.0  0.41562  0.24513  0.69005  1.0000
  H   H18       1.0  0.08455  0.06487  0.68993  1.0000
  H   H19       1.0  0.58438  0.75487  0.30995  1.0000
  H   H20       1.0  0.91545  0.93513  0.31007  1.0000
  H   H21       1.0  0.15817  0.39143  0.79099  1.0000
  H   H22       1.0  0.34188  0.81765  0.79108  1.0000
  H   H23       1.0  0.84183  0.60857  0.20901  1.0000
  H   H24       1.0  0.65812  0.18235  0.20892  1.0000
  H   H25       1.0  0.10143  0.24161  0.82001  1.0000
  H   H26       1.0  0.39880  0.93849  0.81983  1.0000
  H   H27       1.0  0.89857  0.75839  0.17999  1.0000
  H   H28       1.0  0.60120  0.06151  0.18017  1.0000
  H   H29       1.0  0.19732  0.32108  0.69132  1.0000
  H   H30       1.0  0.30292  0.98784  0.69124  1.0000
  H   H31       1.0  0.80268  0.67892  0.30868  1.0000
  H   H32       1.0  0.69708  0.01217  0.30876  1.0000
  H   H33       1.0  0.37282  0.07088  0.01077  1.0000
  H   H34       1.0  0.12725  0.91841  0.01068  1.0000
  H   H35       1.0  0.62718  0.92912  0.98923  1.0000
  H   H36       1.0  0.87276  0.08159  0.98932  1.0000
  H   H37       1.0  0.21746  0.18936  0.00161  1.0000
  H   H38       1.0  0.28258  0.80902  0.00157  1.0000
  H   H39       1.0  0.78254  0.81064  0.99839  1.0000
  H   H40       1.0  0.71742  0.19098  0.99843  1.0000
  H   H41       1.0  0.38439  0.23407  0.98693  1.0000
  H   H42       1.0  0.11564  0.77894  0.98711  1.0000
  H   H43       1.0  0.61561  0.76593  0.01307  1.0000
  H   H44       1.0  0.88436  0.22106  0.01289  1.0000
  C   C1        1.0  0.56039  0.77233  0.59473  1.0000
  C   C2        1.0  0.93960  0.63295  0.59476  1.0000
  C   C3        1.0  0.43961  0.22767  0.40527  1.0000
  C   C4        1.0  0.06040  0.36705  0.40524  1.0000
  C   C5        1.0  0.61149  0.71356  0.79284  1.0000
  C   C6        1.0  0.88829  0.49328  0.79293  1.0000
  C   C7        1.0  0.38852  0.28644  0.20716  1.0000
  C   C8        1.0  0.11171  0.50672  0.20707  1.0000
  C   C9        1.0  0.48695  0.66867  0.63151  1.0000
  C   C10       1.0  0.01298  0.69975  0.63153  1.0000
  C   C11       1.0  0.51304  0.33132  0.36849  1.0000
  C   C12       1.0  0.98702  0.30025  0.36847  1.0000
  C   C13       1.0  0.62270  0.79488  0.67528  1.0000
  C   C14       1.0  0.87711  0.52977  0.67533  1.0000
  C   C15       1.0  0.37730  0.20512  0.32473  1.0000
  C   C16       1.0  0.12289  0.47023  0.32467  1.0000
  C   C17       1.0  0.69653  0.91004  0.63475  1.0000
  C   C18       1.0  0.80330  0.45524  0.63475  1.0000
  C   C19       1.0  0.30347  0.08996  0.36525  1.0000
  C   C20       1.0  0.19670  0.54476  0.36525  1.0000
  C   C21       1.0  0.47607  0.58660  0.74894  1.0000
  C   C22       1.0  0.02372  0.66424  0.74894  1.0000
  C   C23       1.0  0.52393  0.41340  0.25106  1.0000
  C   C24       1.0  0.97627  0.33576  0.25106  1.0000
  C   C25       1.0  0.51446  0.53222  0.94964  1.0000
  C   C26       1.0  0.98540  0.51775  0.94975  1.0000
  C   C27       1.0  0.48555  0.46778  0.05036  1.0000
  C   C28       1.0  0.01459  0.48225  0.05025  1.0000
  C   C29       1.0  0.53685  0.60929  0.83097  1.0000
  C   C30       1.0  0.96293  0.55930  0.83110  1.0000
  C   C31       1.0  0.46315  0.39071  0.16903  1.0000
  C   C32       1.0  0.03707  0.44070  0.16890  1.0000
  C   C33       1.0  0.41441  0.65073  0.54505  1.0000
  C   C34       1.0  0.08570  0.80430  0.54512  1.0000
  C   C35       1.0  0.58559  0.34927  0.45495  1.0000
  C   C36       1.0  0.91430  0.19570  0.45488  1.0000
  C   C37       1.0  0.43092  0.20337  0.78408  1.0000
  C   C38       1.0  0.06921  0.01258  0.78399  1.0000
  C   C39       1.0  0.56907  0.79663  0.21592  1.0000
  C   C40       1.0  0.93079  0.98742  0.21601  1.0000
  C   C41       1.0  0.18584  0.29768  0.78322  1.0000
  C   C42       1.0  0.31435  0.91926  0.78316  1.0000
  C   C43       1.0  0.81416  0.70232  0.21678  1.0000
  C   C44       1.0  0.68565  0.08074  0.21684  1.0000
  C   C45       1.0  0.32305  0.17595  0.96782  1.0000
  C   C46       1.0  0.17701  0.85627  0.96781  1.0000
  C   C47       1.0  0.67695  0.82405  0.03218  1.0000
  C   C48       1.0  0.82299  0.14373  0.03219  1.0000
  N   N1        1.0  0.31605  0.22076  0.84328  1.0000
  N   N2        1.0  0.18408  0.93611  0.84323  1.0000
  N   N3        1.0  0.68395  0.77924  0.15672  1.0000
  N   N4        1.0  0.81592  0.06388  0.15677  1.0000
  O   O1        1.0  0.72004  0.95011  0.70687  1.0000
  O   O2        1.0  0.77989  0.34284  0.70688  1.0000
  O   O3        1.0  0.27996  0.04989  0.29313  1.0000
  O   O4        1.0  0.22011  0.65716  0.29312  1.0000
  O   O5        1.0  0.72777  0.95947  0.52728  1.0000
  O   O6        1.0  0.77199  0.51342  0.52733  1.0000
  O   O7        1.0  0.27223  0.04053  0.47272  1.0000
  O   O8        1.0  0.22802  0.48658  0.47267  1.0000
  O   O9        1.0  0.35610  0.54693  0.58699  1.0000
  O   O10       1.0  0.14395  0.86603  0.58709  1.0000
  O   O11       1.0  0.64390  0.45307  0.41301  1.0000
  O   O12       1.0  0.85605  0.13397  0.41291  1.0000
  O   O13       1.0  0.40968  0.73377  0.44125  1.0000
  O   O14       1.0  0.09055  0.82527  0.44128  1.0000
  O   O15       1.0  0.59032  0.26623  0.55875  1.0000
  O   O16       1.0  0.90945  0.17473  0.55872  1.0000
  O   O17       1.0  0.54884  0.14509  0.82920  1.0000
  O   O18       1.0  0.95125  0.02564  0.82914  1.0000
  O   O19       1.0  0.45116  0.85491  0.17080  1.0000
  O   O20       1.0  0.04875  0.97436  0.17086  1.0000
