data_image0
_chemical_formula_structural       NiH18C8O8
_chemical_formula_sum              "Ni1 H18 C8 O8"
_cell_length_a       4.93575
_cell_length_b       6.16075
_cell_length_c       9.31598
_cell_angle_alpha    81.6368
_cell_angle_beta     80.9161
_cell_angle_gamma    77.1657

_space_group_name_H-M_alt    "P 1"
_space_group_IT_number       1

loop_
  _space_group_symop_operation_xyz
  'x, y, z'

loop_
  _atom_site_type_symbol
  _atom_site_label
  _atom_site_symmetry_multiplicity
  _atom_site_fract_x
  _atom_site_fract_y
  _atom_site_fract_z
  _atom_site_occupancy
  Ni  Ni1       1.0  0.50000  0.50000  0.50000  1.0000
  H   H1        1.0  0.02147  0.75585  0.48352  1.0000
  H   H2        1.0  0.97852  0.24416  0.51647  1.0000
  H   H3        1.0  0.62818  0.71214  0.69629  1.0000
  H   H4        1.0  0.37181  0.28788  0.30372  1.0000
  H   H5        1.0  0.10817  0.92012  0.20085  1.0000
  H   H6        1.0  0.89184  0.07987  0.79915  1.0000
  H   H7        1.0  0.80155  0.29709  0.16523  1.0000
  H   H8        1.0  0.19845  0.70290  0.83477  1.0000
  H   H9        1.0  0.62165  0.20157  0.04574  1.0000
  H   H10       1.0  0.37835  0.79843  0.95424  1.0000
  H   H11       1.0  0.02468  0.59939  0.09610  1.0000
  H   H12       1.0  0.97532  0.40061  0.90390  1.0000
  H   H13       1.0  0.75668  0.77485  0.00345  1.0000
  H   H14       1.0  0.24332  0.22515  0.99654  1.0000
  H   H15       1.0  0.86963  0.48930  0.67714  1.0000
  H   H16       1.0  0.13036  0.51071  0.32287  1.0000
  H   H17       1.0  0.27238  0.88413  0.44408  1.0000
  H   H18       1.0  0.72761  0.11587  0.55594  1.0000
  C   C1        1.0  0.69877  0.87426  0.28521  1.0000
  C   C2        1.0  0.30126  0.12571  0.71478  1.0000
  C   C3        1.0  0.90823  0.93805  0.15723  1.0000
  C   C4        1.0  0.09174  0.06196  0.84280  1.0000
  C   C5        1.0  0.82639  0.17783  0.08497  1.0000
  C   C6        1.0  0.17363  0.82216  0.91502  1.0000
  C   C7        1.0  0.95636  0.76996  0.04386  1.0000
  C   C8        1.0  0.04366  0.23005  0.95612  1.0000
  O   O1        1.0  0.77762  0.68642  0.36466  1.0000
  O   O2        1.0  0.22236  0.31361  0.63534  1.0000
  O   O3        1.0  0.18527  0.77893  0.52330  1.0000
  O   O4        1.0  0.81472  0.22108  0.47671  1.0000
  O   O5        1.0  0.66515  0.54999  0.68326  1.0000
  O   O6        1.0  0.33486  0.45001  0.31675  1.0000
  O   O7        1.0  0.45841  0.99843  0.31014  1.0000
  O   O8        1.0  0.54160  0.00152  0.68985  1.0000
