data_image0
_chemical_formula_structural       Zn2H24C16N20O8
_chemical_formula_sum              "Zn2 H24 C16 N20 O8"
_cell_length_a       6.51964
_cell_length_b       8.46829
_cell_length_c       12.622
_cell_angle_alpha    89.9999
_cell_angle_beta     89.9999
_cell_angle_gamma    89.9999

_space_group_name_H-M_alt    "P 1"
_space_group_IT_number       1

loop_
  _space_group_symop_operation_xyz
  'x, y, z'

loop_
  _atom_site_type_symbol
  _atom_site_label
  _atom_site_symmetry_multiplicity
  _atom_site_fract_x
  _atom_site_fract_y
  _atom_site_fract_z
  _atom_site_occupancy
  Zn  Zn1       1.0  0.50000  0.95849  0.50000  1.0000
  Zn  Zn2       1.0  0.00000  0.04151  0.00000  1.0000
  H   H1        1.0  0.33238  0.84050  0.83325  1.0000
  H   H2        1.0  0.66763  0.84050  0.16675  1.0000
  H   H3        1.0  0.83238  0.15950  0.66675  1.0000
  H   H4        1.0  0.16762  0.15950  0.33325  1.0000
  H   H5        1.0  0.31058  0.95556  0.71539  1.0000
  H   H6        1.0  0.68942  0.95555  0.28461  1.0000
  H   H7        1.0  0.81058  0.04445  0.78461  1.0000
  H   H8        1.0  0.18942  0.04445  0.21539  1.0000
  H   H9        1.0  0.52330  0.62235  0.89242  1.0000
  H   H10       1.0  0.47670  0.62235  0.10758  1.0000
  H   H11       1.0  0.02329  0.37765  0.60758  1.0000
  H   H12       1.0  0.97670  0.37765  0.39242  1.0000
  H   H13       1.0  0.75446  0.41074  0.82738  1.0000
  H   H14       1.0  0.24554  0.41073  0.17262  1.0000
  H   H15       1.0  0.25446  0.58927  0.67262  1.0000
  H   H16       1.0  0.74554  0.58927  0.32738  1.0000
  H   H17       1.0  0.79209  0.45355  0.96366  1.0000
  H   H18       1.0  0.20791  0.45355  0.03634  1.0000
  H   H19       1.0  0.29208  0.54644  0.53634  1.0000
  H   H20       1.0  0.70791  0.54645  0.46366  1.0000
  H   H21       1.0  0.97412  0.52334  0.86863  1.0000
  H   H22       1.0  0.02588  0.52334  0.13138  1.0000
  H   H23       1.0  0.47412  0.47666  0.63137  1.0000
  H   H24       1.0  0.52588  0.47666  0.36863  1.0000
  C   C1        1.0  0.55302  0.80918  0.71686  1.0000
  C   C2        1.0  0.44698  0.80918  0.28314  1.0000
  C   C3        1.0  0.05302  0.19082  0.78314  1.0000
  C   C4        1.0  0.94698  0.19082  0.21686  1.0000
  C   C5        1.0  0.68390  0.64939  0.87230  1.0000
  C   C6        1.0  0.31610  0.64939  0.12770  1.0000
  C   C7        1.0  0.18390  0.35061  0.62770  1.0000
  C   C8        1.0  0.81610  0.35061  0.37230  1.0000
  C   C9        1.0  0.75517  0.77803  0.95047  1.0000
  C   C10       1.0  0.24483  0.77803  0.04953  1.0000
  C   C11       1.0  0.25517  0.22197  0.54953  1.0000
  C   C12       1.0  0.74483  0.22197  0.45047  1.0000
  C   C13       1.0  0.81144  0.49946  0.88328  1.0000
  C   C14       1.0  0.18857  0.49946  0.11672  1.0000
  C   C15       1.0  0.31143  0.50054  0.61672  1.0000
  C   C16       1.0  0.68856  0.50054  0.38328  1.0000
  N   N1        1.0  0.62373  0.83221  0.61730  1.0000
  N   N2        1.0  0.37628  0.83221  0.38270  1.0000
  N   N3        1.0  0.12373  0.16779  0.88270  1.0000
  N   N4        1.0  0.87628  0.16779  0.11730  1.0000
  N   N5        1.0  0.68469  0.70623  0.76322  1.0000
  N   N6        1.0  0.31531  0.70623  0.23678  1.0000
  N   N7        1.0  0.18469  0.29377  0.73678  1.0000
  N   N8        1.0  0.81531  0.29377  0.26322  1.0000
  N   N9        1.0  0.79781  0.74364  0.60591  1.0000
  N   N10       1.0  0.20219  0.74364  0.39409  1.0000
  N   N11       1.0  0.29781  0.25636  0.89409  1.0000
  N   N12       1.0  0.70219  0.25636  0.10592  1.0000
  N   N13       1.0  0.83617  0.66862  0.69198  1.0000
  N   N14       1.0  0.16383  0.66862  0.30802  1.0000
  N   N15       1.0  0.33617  0.33138  0.80802  1.0000
  N   N16       1.0  0.66383  0.33138  0.19199  1.0000
  N   N17       1.0  0.38780  0.87493  0.76038  1.0000
  N   N18       1.0  0.61220  0.87493  0.23962  1.0000
  N   N19       1.0  0.88781  0.12508  0.73962  1.0000
  N   N20       1.0  0.11219  0.12507  0.26038  1.0000
  O   O1        1.0  0.75344  0.74459  0.04679  1.0000
  O   O2        1.0  0.24656  0.74458  0.95321  1.0000
  O   O3        1.0  0.25344  0.25541  0.45321  1.0000
  O   O4        1.0  0.74656  0.25542  0.54679  1.0000
  O   O5        1.0  0.81389  0.91121  0.91082  1.0000
  O   O6        1.0  0.18612  0.91121  0.08918  1.0000
  O   O7        1.0  0.31388  0.08879  0.58918  1.0000
  O   O8        1.0  0.68612  0.08879  0.41082  1.0000
