data_image0
_chemical_formula_structural       Cu2H28C24N2O8
_chemical_formula_sum              "Cu2 H28 C24 N2 O8"
_cell_length_a       7.58606
_cell_length_b       7.97217
_cell_length_c       11.8985
_cell_angle_alpha    86.5975
_cell_angle_beta     85.9396
_cell_angle_gamma    81.9658

_space_group_name_H-M_alt    "P 1"
_space_group_IT_number       1

loop_
  _space_group_symop_operation_xyz
  'x, y, z'

loop_
  _atom_site_type_symbol
  _atom_site_label
  _atom_site_symmetry_multiplicity
  _atom_site_fract_x
  _atom_site_fract_y
  _atom_site_fract_z
  _atom_site_occupancy
  Cu  Cu1       1.0  0.61608  0.51759  0.91605  1.0000
  Cu  Cu2       1.0  0.38392  0.48241  0.08395  1.0000
  H   H1        1.0  0.47521  0.98382  0.87295  1.0000
  H   H2        1.0  0.52478  0.01620  0.12702  1.0000
  H   H3        1.0  0.37146  0.10684  0.76292  1.0000
  H   H4        1.0  0.62852  0.89319  0.23707  1.0000
  H   H5        1.0  0.18163  0.01320  0.99096  1.0000
  H   H6        1.0  0.81836  0.98682  0.00903  1.0000
  H   H7        1.0  0.07592  0.12981  0.87871  1.0000
  H   H8        1.0  0.92407  0.87020  0.12128  1.0000
  H   H9        1.0  0.17173  0.87300  0.75639  1.0000
  H   H10       1.0  0.82828  0.12701  0.24360  1.0000
  H   H11       1.0  0.01410  0.84108  0.87172  1.0000
  H   H12       1.0  0.98592  0.15891  0.12827  1.0000
  H   H13       1.0  0.01036  0.40192  0.88389  1.0000
  H   H14       1.0  0.98966  0.59808  0.11612  1.0000
  H   H15       1.0  0.27078  0.43195  0.74771  1.0000
  H   H16       1.0  0.72922  0.56805  0.25230  1.0000
  H   H17       1.0  0.91063  0.74322  0.53155  1.0000
  H   H18       1.0  0.08935  0.25676  0.46846  1.0000
  H   H19       1.0  0.66388  0.69842  0.67737  1.0000
  H   H20       1.0  0.33611  0.30157  0.32265  1.0000
  H   H21       1.0  0.22119  0.65126  0.46128  1.0000
  H   H22       1.0  0.77880  0.34872  0.53872  1.0000
  H   H23       1.0  0.31575  0.74047  0.57062  1.0000
  H   H24       1.0  0.68424  0.25953  0.42938  1.0000
  H   H25       1.0  0.37947  0.36098  0.52599  1.0000
  H   H26       1.0  0.62053  0.63901  0.47402  1.0000
  H   H27       1.0  0.48185  0.45988  0.62754  1.0000
  H   H28       1.0  0.51814  0.54012  0.37246  1.0000
  C   C1        1.0  0.40850  0.24303  0.90662  1.0000
  C   C2        1.0  0.59150  0.75697  0.09338  1.0000
  C   C3        1.0  0.36426  0.08485  0.85520  1.0000
  C   C4        1.0  0.63574  0.91516  0.14479  1.0000
  C   C5        1.0  0.18591  0.02965  0.89856  1.0000
  C   C6        1.0  0.81409  0.97037  0.10142  1.0000
  C   C7        1.0  0.27814  0.71728  0.89599  1.0000
  C   C8        1.0  0.72187  0.28271  0.10401  1.0000
  C   C9        1.0  0.15152  0.86444  0.84870  1.0000
  C   C10       1.0  0.84850  0.13556  0.15130  1.0000
  C   C11       1.0  0.99353  0.47358  0.80355  1.0000
  C   C12       1.0  0.00649  0.52642  0.19646  1.0000
  C   C13       1.0  0.13813  0.49083  0.72715  1.0000
  C   C14       1.0  0.86187  0.50915  0.27287  1.0000
  C   C15       1.0  0.11364  0.59080  0.62736  1.0000
  C   C16       1.0  0.88634  0.40918  0.37265  1.0000
  C   C17       1.0  0.93900  0.66564  0.60855  1.0000
  C   C18       1.0  0.06099  0.33435  0.39147  1.0000
  C   C19       1.0  0.80109  0.64085  0.68876  1.0000
  C   C20       1.0  0.19890  0.35914  0.31124  1.0000
  C   C21       1.0  0.26862  0.62310  0.54663  1.0000
  C   C22       1.0  0.73137  0.37689  0.45337  1.0000
  C   C23       1.0  0.42652  0.48092  0.54404  1.0000
  C   C24       1.0  0.57349  0.51907  0.45595  1.0000
  N   N1        1.0  0.82680  0.54675  0.78522  1.0000
  N   N2        1.0  0.17323  0.45324  0.21478  1.0000
  O   O1        1.0  0.52592  0.32022  0.85115  1.0000
  O   O2        1.0  0.47407  0.67979  0.14885  1.0000
  O   O3        1.0  0.32777  0.28454  0.00035  1.0000
  O   O4        1.0  0.67225  0.71545  0.99966  1.0000
  O   O5        1.0  0.22749  0.64948  0.99019  1.0000
  O   O6        1.0  0.77250  0.35053  0.00981  1.0000
  O   O7        1.0  0.42821  0.67928  0.84155  1.0000
  O   O8        1.0  0.57180  0.32074  0.15845  1.0000
