data_image0
_chemical_formula_structural       Sn4P4H68C40O8
_chemical_formula_sum              "Sn4 P4 H68 C40 O8"
_cell_length_a       10.1594
_cell_length_b       10.3958
_cell_length_c       12.4466
_cell_angle_alpha    104.027
_cell_angle_beta     90
_cell_angle_gamma    90

_space_group_name_H-M_alt    "P 1"
_space_group_IT_number       1

loop_
  _space_group_symop_operation_xyz
  'x, y, z'

loop_
  _atom_site_type_symbol
  _atom_site_label
  _atom_site_symmetry_multiplicity
  _atom_site_fract_x
  _atom_site_fract_y
  _atom_site_fract_z
  _atom_site_occupancy
  Sn  Sn1       1.0  0.36914  0.20078  0.78006  1.0000
  Sn  Sn2       1.0  0.86914  0.29921  0.71995  1.0000
  Sn  Sn3       1.0  0.63086  0.79922  0.21994  1.0000
  Sn  Sn4       1.0  0.13086  0.70079  0.28006  1.0000
  P   P1        1.0  0.65746  0.14650  0.90034  1.0000
  P   P2        1.0  0.15747  0.35350  0.59965  1.0000
  P   P3        1.0  0.34253  0.85351  0.09966  1.0000
  P   P4        1.0  0.84253  0.64649  0.40034  1.0000
  H   H1        1.0  0.56147  0.87833  0.87866  1.0000
  H   H2        1.0  0.06147  0.62167  0.62134  1.0000
  H   H3        1.0  0.43853  0.12168  0.12135  1.0000
  H   H4        1.0  0.93853  0.37832  0.37866  1.0000
  H   H5        1.0  0.67487  0.66047  0.85312  1.0000
  H   H6        1.0  0.17488  0.83953  0.64688  1.0000
  H   H7        1.0  0.32512  0.33952  0.14688  1.0000
  H   H8        1.0  0.82512  0.16047  0.35312  1.0000
  H   H9        1.0  0.91978  0.64878  0.84139  1.0000
  H   H10       1.0  0.41978  0.85122  0.65861  1.0000
  H   H11       1.0  0.08022  0.35122  0.15860  1.0000
  H   H12       1.0  0.58022  0.14878  0.34139  1.0000
  H   H13       1.0  0.04995  0.85564  0.85542  1.0000
  H   H14       1.0  0.54995  0.64436  0.64458  1.0000
  H   H15       1.0  0.95004  0.14437  0.14458  1.0000
  H   H16       1.0  0.45005  0.35564  0.35542  1.0000
  H   H17       1.0  0.93711  0.07106  0.88081  1.0000
  H   H18       1.0  0.43711  0.42894  0.61918  1.0000
  H   H19       1.0  0.06289  0.92896  0.11919  1.0000
  H   H20       1.0  0.56289  0.57105  0.38082  1.0000
  H   H21       1.0  0.79308  0.25222  0.05605  1.0000
  H   H22       1.0  0.29308  0.24778  0.44394  1.0000
  H   H23       1.0  0.20692  0.74779  0.94396  1.0000
  H   H24       1.0  0.70692  0.75223  0.55605  1.0000
  H   H25       1.0  0.65232  0.17450  0.09941  1.0000
  H   H26       1.0  0.15232  0.32550  0.40059  1.0000
  H   H27       1.0  0.34768  0.82551  0.90059  1.0000
  H   H28       1.0  0.84768  0.67451  0.59942  1.0000
  H   H29       1.0  0.63503  0.32802  0.05991  1.0000
  H   H30       1.0  0.13502  0.17197  0.44008  1.0000
  H   H31       1.0  0.36497  0.67198  0.94009  1.0000
  H   H32       1.0  0.86497  0.82803  0.55991  1.0000
  H   H33       1.0  0.13819  0.06903  0.76845  1.0000
  H   H34       1.0  0.63819  0.43096  0.73156  1.0000
  H   H35       1.0  0.86181  0.93096  0.23154  1.0000
  H   H36       1.0  0.36181  0.56904  0.26846  1.0000
  H   H37       1.0  0.18541  0.12696  0.91104  1.0000
  H   H38       1.0  0.68541  0.37303  0.58896  1.0000
  H   H39       1.0  0.81459  0.87303  0.08895  1.0000
  H   H40       1.0  0.31459  0.62697  0.41105  1.0000
  H   H41       1.0  0.26170  0.98286  0.82738  1.0000
  H   H42       1.0  0.76169  0.51713  0.67262  1.0000
  H   H43       1.0  0.73831  0.01713  0.17261  1.0000
  H   H44       1.0  0.23830  0.48287  0.32739  1.0000
  H   H45       1.0  0.47792  0.44658  0.85267  1.0000
  H   H46       1.0  0.97793  0.05342  0.64733  1.0000
  H   H47       1.0  0.52207  0.55342  0.14733  1.0000
  H   H48       1.0  0.02207  0.94658  0.35268  1.0000
  H   H49       1.0  0.41012  0.39285  0.96687  1.0000
  H   H50       1.0  0.91012  0.10715  0.53312  1.0000
  H   H51       1.0  0.58987  0.60715  0.03312  1.0000
  H   H52       1.0  0.08988  0.89285  0.46688  1.0000
  H   H53       1.0  0.30382  0.45494  0.87564  1.0000
  H   H54       1.0  0.80383  0.04506  0.62436  1.0000
  H   H55       1.0  0.69617  0.54505  0.12436  1.0000
  H   H56       1.0  0.19617  0.95494  0.37564  1.0000
  H   H57       1.0  0.50285  0.20693  0.59149  1.0000
  H   H58       1.0  0.00285  0.29306  0.90851  1.0000
  H   H59       1.0  0.49715  0.79307  0.40851  1.0000
  H   H60       1.0  0.99716  0.70692  0.09149  1.0000
  H   H61       1.0  0.41560  0.05431  0.57178  1.0000
  H   H62       1.0  0.91560  0.44568  0.92821  1.0000
  H   H63       1.0  0.58441  0.94568  0.42821  1.0000
  H   H64       1.0  0.08441  0.55431  0.07179  1.0000
  H   H65       1.0  0.56810  0.07776  0.64749  1.0000
  H   H66       1.0  0.06810  0.42223  0.85251  1.0000
  H   H67       1.0  0.43191  0.92224  0.35251  1.0000
  H   H68       1.0  0.93191  0.57776  0.14749  1.0000
  C   C1        1.0  0.74108  0.98831  0.88021  1.0000
  C   C2        1.0  0.24108  0.51169  0.61978  1.0000
  C   C3        1.0  0.25892  0.01170  0.11980  1.0000
  C   C4        1.0  0.75892  0.48830  0.38021  1.0000
  C   C5        1.0  0.66827  0.87196  0.87266  1.0000
  C   C6        1.0  0.16827  0.62804  0.62733  1.0000
  C   C7        1.0  0.33173  0.12805  0.12733  1.0000
  C   C8        1.0  0.83173  0.37195  0.37267  1.0000
  C   C9        1.0  0.73244  0.75035  0.85897  1.0000
  C   C10       1.0  0.23244  0.74965  0.64104  1.0000
  C   C11       1.0  0.26756  0.24966  0.14104  1.0000
  C   C12       1.0  0.76756  0.25034  0.35896  1.0000
  C   C13       1.0  0.86971  0.74393  0.85265  1.0000
  C   C14       1.0  0.36971  0.75607  0.64735  1.0000
  C   C15       1.0  0.13029  0.25608  0.14735  1.0000
  C   C16       1.0  0.63029  0.24392  0.35265  1.0000
  C   C17       1.0  0.94290  0.85978  0.86063  1.0000
  C   C18       1.0  0.44290  0.64022  0.63935  1.0000
  C   C19       1.0  0.05710  0.14023  0.13936  1.0000
  C   C20       1.0  0.55710  0.35978  0.36065  1.0000
  C   C21       1.0  0.87889  0.98141  0.87459  1.0000
  C   C22       1.0  0.37890  0.51859  0.62539  1.0000
  C   C23       1.0  0.12111  0.01860  0.12541  1.0000
  C   C24       1.0  0.62110  0.48141  0.37460  1.0000
  C   C25       1.0  0.68738  0.23288  0.04266  1.0000
  C   C26       1.0  0.18738  0.26711  0.45733  1.0000
  C   C27       1.0  0.31261  0.76713  0.95734  1.0000
  C   C28       1.0  0.81262  0.73289  0.54266  1.0000
  C   C29       1.0  0.21989  0.07980  0.82730  1.0000
  C   C30       1.0  0.71989  0.42019  0.67270  1.0000
  C   C31       1.0  0.78011  0.92019  0.17269  1.0000
  C   C32       1.0  0.28011  0.57981  0.32731  1.0000
  C   C33       1.0  0.39341  0.39835  0.88115  1.0000
  C   C34       1.0  0.89341  0.10165  0.61885  1.0000
  C   C35       1.0  0.60658  0.60164  0.11884  1.0000
  C   C36       1.0  0.10659  0.89835  0.38115  1.0000
  C   C37       1.0  0.47743  0.12550  0.62956  1.0000
  C   C38       1.0  0.97743  0.37450  0.87044  1.0000
  C   C39       1.0  0.52258  0.87450  0.37044  1.0000
  C   C40       1.0  0.02258  0.62549  0.12956  1.0000
  O   O1        1.0  0.50987  0.11730  0.88463  1.0000
  O   O2        1.0  0.00987  0.38270  0.61537  1.0000
  O   O3        1.0  0.49013  0.88271  0.11538  1.0000
  O   O4        1.0  0.99013  0.61730  0.38463  1.0000
  O   O5        1.0  0.71552  0.22747  0.82511  1.0000
  O   O6        1.0  0.21552  0.27253  0.67488  1.0000
  O   O7        1.0  0.28449  0.77254  0.17489  1.0000
  O   O8        1.0  0.78449  0.72746  0.32511  1.0000
