data_image0
_chemical_formula_structural       Zn2H24C32N4O8
_chemical_formula_sum              "Zn2 H24 C32 N4 O8"
_cell_length_a       8.29622
_cell_length_b       8.70812
_cell_length_c       12.2872
_cell_angle_alpha    104.99
_cell_angle_beta     103.71
_cell_angle_gamma    106.478

_space_group_name_H-M_alt    "P 1"
_space_group_IT_number       1

loop_
  _space_group_symop_operation_xyz
  'x, y, z'

loop_
  _atom_site_type_symbol
  _atom_site_label
  _atom_site_symmetry_multiplicity
  _atom_site_fract_x
  _atom_site_fract_y
  _atom_site_fract_z
  _atom_site_occupancy
  Zn  Zn1       1.0  0.90996  0.19574  0.30666  1.0000
  Zn  Zn2       1.0  0.10315  0.88894  0.69336  1.0000
  H   H1        1.0  0.44022  0.44289  0.32206  1.0000
  H   H2        1.0  0.61833  0.12123  0.67803  1.0000
  H   H3        1.0  0.59780  0.65716  0.66607  1.0000
  H   H4        1.0  0.43215  0.99163  0.33407  1.0000
  H   H5        1.0  0.21052  0.55873  0.32526  1.0000
  H   H6        1.0  0.38492  0.23324  0.67481  1.0000
  H   H7        1.0  0.43176  0.81472  0.76409  1.0000
  H   H8        1.0  0.16789  0.05081  0.23599  1.0000
  H   H9        1.0  0.02759  0.51033  0.65745  1.0000
  H   H10       1.0  0.87082  0.85314  0.34225  1.0000
  H   H11       1.0  0.93791  0.51377  0.09328  1.0000
  H   H12       1.0  0.34467  0.42069  0.90685  1.0000
  H   H13       1.0  0.72698  0.52398  0.56177  1.0000
  H   H14       1.0  0.66498  0.96189  0.43826  1.0000
  H   H15       1.0  0.99231  0.33472  0.78742  1.0000
  H   H16       1.0  0.70563  0.54750  0.21237  1.0000
  H   H17       1.0  0.97996  0.91569  0.89874  1.0000
  H   H18       1.0  0.58086  0.01712  0.10151  1.0000
  H   H19       1.0  0.94083  0.75855  0.03637  1.0000
  H   H20       1.0  0.40437  0.72218  0.96375  1.0000
  H   H21       1.0  0.99819  0.22037  0.92517  1.0000
  H   H22       1.0  0.57392  0.29534  0.07438  1.0000
  H   H23       1.0  0.06016  0.71791  0.43891  1.0000
  H   H24       1.0  0.12101  0.27878  0.56111  1.0000
  C   C1        1.0  0.97405  0.22235  0.09942  1.0000
  C   C2        1.0  0.37470  0.12301  0.90045  1.0000
  C   C3        1.0  0.95899  0.44688  0.01250  1.0000
  C   C4        1.0  0.44688  0.43458  0.98743  1.0000
  C   C5        1.0  0.97900  0.29639  0.00336  1.0000
  C   C6        1.0  0.47610  0.29319  0.99640  1.0000
  C   C7        1.0  0.72088  0.36320  0.38877  1.0000
  C   C8        1.0  0.83183  0.97422  0.61133  1.0000
  C   C9        1.0  0.65304  0.47172  0.46617  1.0000
  C   C10       1.0  0.68677  0.00551  0.53389  1.0000
  C   C11       1.0  0.47942  0.66653  0.61126  1.0000
  C   C12       1.0  0.36841  0.05561  0.38888  1.0000
  C   C13       1.0  0.50508  0.49997  0.41916  1.0000
  C   C14       1.0  0.58602  0.08103  0.58095  1.0000
  C   C15       1.0  0.41986  0.59568  0.48560  1.0000
  C   C16       1.0  0.43435  0.11032  0.51453  1.0000
  C   C17       1.0  0.38862  0.75385  0.66706  1.0000
  C   C18       1.0  0.22171  0.08689  0.33300  1.0000
  C   C19       1.0  0.26676  0.61594  0.42246  1.0000
  C   C20       1.0  0.34410  0.19338  0.57761  1.0000
  C   C21       1.0  0.18101  0.70246  0.48468  1.0000
  C   C22       1.0  0.19612  0.21760  0.51535  1.0000
  C   C23       1.0  0.98224  0.78715  0.87672  1.0000
  C   C24       1.0  0.60544  0.91059  0.12341  1.0000
  C   C25       1.0  0.96043  0.69740  0.95375  1.0000
  C   C26       1.0  0.50676  0.74381  0.04628  1.0000
  C   C27       1.0  0.96856  0.53336  0.92618  1.0000
  C   C28       1.0  0.54281  0.60740  0.07371  1.0000
  C   C29       1.0  0.01135  0.56091  0.74358  1.0000
  C   C30       1.0  0.76835  0.81751  0.25620  1.0000
  C   C31       1.0  0.99082  0.46369  0.81605  1.0000
  C   C32       1.0  0.67544  0.64780  0.18373  1.0000
  N   N1        1.0  0.24093  0.77142  0.60484  1.0000
  N   N2        1.0  0.13607  0.16652  0.39519  1.0000
  N   N3        1.0  0.00994  0.72146  0.77378  1.0000
  N   N4        1.0  0.73634  0.94783  0.22620  1.0000
  O   O1        1.0  0.95677  0.31472  0.19483  1.0000
  O   O2        1.0  0.26156  0.11984  0.80522  1.0000
  O   O3        1.0  0.86801  0.34770  0.44266  1.0000
  O   O4        1.0  0.92500  0.90476  0.55744  1.0000
  O   O5        1.0  0.98625  0.07871  0.08458  1.0000
  O   O6        1.0  0.40192  0.99425  0.91526  1.0000
  O   O7        1.0  0.63820  0.29018  0.27856  1.0000
  O   O8        1.0  0.85933  0.01152  0.72156  1.0000
