data_image0
_chemical_formula_structural       Mn3H20C24N10O10
_chemical_formula_sum              "Mn3 H20 C24 N10 O10"
_cell_length_a       6.62485
_cell_length_b       9.90281
_cell_length_c       11.3405
_cell_angle_alpha    74.299
_cell_angle_beta     74.4784
_cell_angle_gamma    88.4942

_space_group_name_H-M_alt    "P 1"
_space_group_IT_number       1

loop_
  _space_group_symop_operation_xyz
  'x, y, z'

loop_
  _atom_site_type_symbol
  _atom_site_label
  _atom_site_symmetry_multiplicity
  _atom_site_fract_x
  _atom_site_fract_y
  _atom_site_fract_z
  _atom_site_occupancy
  Mn  Mn1       1.0  0.51344  0.99580  0.99856  1.0000
  Mn  Mn2       1.0  0.77035  0.17594  0.18926  1.0000
  Mn  Mn3       1.0  0.23458  0.83027  0.81999  1.0000
  H   H1        1.0  0.83696  0.92963  0.14032  1.0000
  H   H2        1.0  0.13538  0.07560  0.87106  1.0000
  H   H3        1.0  0.04402  0.01059  0.12767  1.0000
  H   H4        1.0  0.96189  0.04118  0.80835  1.0000
  H   H5        1.0  0.18511  0.52071  0.99430  1.0000
  H   H6        1.0  0.83042  0.47020  0.01604  1.0000
  H   H7        1.0  0.53409  0.69853  0.62349  1.0000
  H   H8        1.0  0.46406  0.27719  0.38183  1.0000
  H   H9        1.0  0.59801  0.46099  0.58342  1.0000
  H   H10       1.0  0.38053  0.50915  0.42528  1.0000
  H   H11       1.0  0.43726  0.24704  0.75887  1.0000
  H   H12       1.0  0.53714  0.73041  0.25474  1.0000
  H   H13       1.0  0.33505  0.00576  0.53778  1.0000
  H   H14       1.0  0.68174  0.99550  0.46157  1.0000
  H   H15       1.0  0.92424  0.66248  0.73883  1.0000
  H   H16       1.0  0.04761  0.35904  0.24924  1.0000
  H   H17       1.0  0.89187  0.61640  0.53780  1.0000
  H   H18       1.0  0.09023  0.41013  0.44259  1.0000
  H   H19       1.0  0.10047  0.77188  0.32791  1.0000
  H   H20       1.0  0.91153  0.24871  0.65828  1.0000
  C   C1        1.0  0.18343  0.24648  0.99263  1.0000
  C   C2        1.0  0.80312  0.74074  0.02156  1.0000
  C   C3        1.0  0.29912  0.36738  0.89077  1.0000
  C   C4        1.0  0.69463  0.61463  0.12354  1.0000
  C   C5        1.0  0.27637  0.50389  0.90459  1.0000
  C   C6        1.0  0.73110  0.48131  0.10573  1.0000
  C   C7        1.0  0.47106  0.60190  0.69712  1.0000
  C   C8        1.0  0.52682  0.37511  0.31054  1.0000
  C   C9        1.0  0.50475  0.47035  0.67566  1.0000
  C   C10       1.0  0.48149  0.50463  0.33337  1.0000
  C   C11       1.0  0.41743  0.35135  0.77319  1.0000
  C   C12       1.0  0.56749  0.62707  0.23987  1.0000
  C   C13       1.0  0.38026  0.98458  0.29456  1.0000
  C   C14       1.0  0.65930  0.01514  0.70083  1.0000
  C   C15       1.0  0.23516  0.90114  0.41658  1.0000
  C   C16       1.0  0.78433  0.10851  0.57558  1.0000
  C   C17       1.0  0.23827  0.92112  0.53337  1.0000
  C   C18       1.0  0.77176  0.08566  0.46136  1.0000
  C   C19       1.0  0.00725  0.72950  0.64567  1.0000
  C   C20       1.0  0.97786  0.28809  0.34273  1.0000
  C   C21       1.0  0.99081  0.70458  0.53344  1.0000
  C   C22       1.0  0.00039  0.31566  0.45214  1.0000
  C   C23       1.0  0.10622  0.79071  0.41721  1.0000
  C   C24       1.0  0.90196  0.22630  0.57100  1.0000
  N   N1        1.0  0.67893  0.17960  0.01443  1.0000
  N   N2        1.0  0.31578  0.82355  0.99393  1.0000
  N   N3        1.0  0.76885  0.27049  0.92014  1.0000
  N   N4        1.0  0.22188  0.73554  0.08888  1.0000
  N   N5        1.0  0.85377  0.35754  0.82916  1.0000
  N   N6        1.0  0.12977  0.64958  0.17872  1.0000
  N   N7        1.0  0.35799  0.61852  0.81008  1.0000
  N   N8        1.0  0.65513  0.36175  0.19848  1.0000
  N   N9        1.0  0.12959  0.83634  0.64549  1.0000
  N   N10       1.0  0.86135  0.17534  0.34587  1.0000
  O   O1        1.0  0.90247  0.98028  0.18733  1.0000
  O   O2        1.0  0.11446  0.04300  0.79959  1.0000
  O   O3        1.0  0.03316  0.27434  0.07941  1.0000
  O   O4        1.0  0.93506  0.72171  0.92426  1.0000
  O   O5        1.0  0.22478  0.11986  0.98627  1.0000
  O   O6        1.0  0.76167  0.86242  0.03966  1.0000
  O   O7        1.0  0.50134  0.07921  0.30235  1.0000
  O   O8        1.0  0.53398  0.92205  0.69882  1.0000
  O   O9        1.0  0.38010  0.94926  0.19550  1.0000
  O   O10       1.0  0.68355  0.04067  0.80145  1.0000
