data_image0
_chemical_formula_structural       Cu4P4H20C8N2O18
_chemical_formula_sum              "Cu4 P4 H20 C8 N2 O18"
_cell_length_a       6.28776
_cell_length_b       7.94577
_cell_length_c       10.8081
_cell_angle_alpha    87.3738
_cell_angle_beta     88.74
_cell_angle_gamma    83.8084

_space_group_name_H-M_alt    "P 1"
_space_group_IT_number       1

loop_
  _space_group_symop_operation_xyz
  'x, y, z'

loop_
  _atom_site_type_symbol
  _atom_site_label
  _atom_site_symmetry_multiplicity
  _atom_site_fract_x
  _atom_site_fract_y
  _atom_site_fract_z
  _atom_site_occupancy
  Cu  Cu1       1.0  0.50194  0.99735  0.50057  1.0000
  Cu  Cu2       1.0  0.98931  0.14519  0.18334  1.0000
  Cu  Cu3       1.0  0.01179  0.85777  0.81779  1.0000
  Cu  Cu4       1.0  0.99770  0.49741  0.49582  1.0000
  P   P1        1.0  0.51372  0.09532  0.22884  1.0000
  P   P2        1.0  0.48835  0.90749  0.77312  1.0000
  P   P3        1.0  0.83422  0.82418  0.33601  1.0000
  P   P4        1.0  0.16747  0.17676  0.66259  1.0000
  H   H1        1.0  0.27077  0.84176  0.29888  1.0000
  H   H2        1.0  0.73204  0.15865  0.70421  1.0000
  H   H3        1.0  0.02310  0.17024  0.43162  1.0000
  H   H4        1.0  0.97684  0.82484  0.56869  1.0000
  H   H5        1.0  0.78557  0.22885  0.38811  1.0000
  H   H6        1.0  0.21348  0.76694  0.61343  1.0000
  H   H7        1.0  0.37482  0.57064  0.39304  1.0000
  H   H8        1.0  0.63485  0.42088  0.61490  1.0000
  H   H9        1.0  0.37983  0.36615  0.39812  1.0000
  H   H10       1.0  0.62376  0.62647  0.60209  1.0000
  H   H11       1.0  0.61845  0.64139  0.14290  1.0000
  H   H12       1.0  0.37661  0.36073  0.85960  1.0000
  H   H13       1.0  0.73267  0.82091  0.07425  1.0000
  H   H14       1.0  0.26422  0.17930  0.92636  1.0000
  H   H15       1.0  0.45560  0.81828  0.07257  1.0000
  H   H16       1.0  0.54093  0.18449  0.92944  1.0000
  H   H17       1.0  0.81626  0.26515  0.94029  1.0000
  H   H18       1.0  0.18346  0.73721  0.06075  1.0000
  H   H19       1.0  0.16512  0.47799  0.20428  1.0000
  H   H20       1.0  0.83793  0.52386  0.79644  1.0000
  C   C1        1.0  0.57928  0.86350  0.25238  1.0000
  C   C2        1.0  0.42109  0.14011  0.74857  1.0000
  C   C3        1.0  0.59720  0.77985  0.12845  1.0000
  C   C4        1.0  0.39959  0.22215  0.87313  1.0000
  C   C5        1.0  0.89701  0.37165  0.96681  1.0000
  C   C6        1.0  0.10330  0.63057  0.03397  1.0000
  C   C7        1.0  0.09376  0.48791  0.11282  1.0000
  C   C8        1.0  0.90755  0.51402  0.88807  1.0000
  N   N1        1.0  0.98988  0.35988  0.07786  1.0000
  N   N2        1.0  0.01095  0.64240  0.92284  1.0000
  O   O1        1.0  0.51553  0.16972  0.36063  1.0000
  O   O2        1.0  0.49179  0.82835  0.64299  1.0000
  O   O3        1.0  0.68737  0.16110  0.14335  1.0000
  O   O4        1.0  0.31360  0.84249  0.85815  1.0000
  O   O5        1.0  0.29782  0.12361  0.16702  1.0000
  O   O6        1.0  0.70322  0.88265  0.83660  1.0000
  O   O7        1.0  0.79599  0.91060  0.46178  1.0000
  O   O8        1.0  0.20854  0.08587  0.53899  1.0000
  O   O9        1.0  0.00670  0.90567  0.25555  1.0000
  O   O10       1.0  0.99540  0.09639  0.74430  1.0000
  O   O11       1.0  0.89034  0.63280  0.35148  1.0000
  O   O12       1.0  0.10622  0.36754  0.64278  1.0000
  O   O13       1.0  0.41523  0.80064  0.33333  1.0000
  O   O14       1.0  0.58825  0.20456  0.67067  1.0000
  O   O15       1.0  0.93532  0.25520  0.37829  1.0000
  O   O16       1.0  0.06390  0.74103  0.62353  1.0000
  O   O17       1.0  0.28657  0.47535  0.39988  1.0000
  O   O18       1.0  0.68780  0.51819  0.56779  1.0000
