data_image0
_chemical_formula_structural       Zn4H24C20N16O8
_chemical_formula_sum              "Zn4 H24 C20 N16 O8"
_cell_length_a       4.77153
_cell_length_b       9.99415
_cell_length_c       15.9077
_cell_angle_alpha    89.9999
_cell_angle_beta     90
_cell_angle_gamma    90

_space_group_name_H-M_alt    "P 1"
_space_group_IT_number       1

loop_
  _space_group_symop_operation_xyz
  'x, y, z'

loop_
  _atom_site_type_symbol
  _atom_site_label
  _atom_site_symmetry_multiplicity
  _atom_site_fract_x
  _atom_site_fract_y
  _atom_site_fract_z
  _atom_site_occupancy
  Zn  Zn1       1.0  0.34513  0.68966  0.35685  1.0000
  Zn  Zn2       1.0  0.65487  0.18966  0.64315  1.0000
  Zn  Zn3       1.0  0.65487  0.68966  0.85685  1.0000
  Zn  Zn4       1.0  0.34513  0.18966  0.14315  1.0000
  H   H1        1.0  0.08309  0.44489  0.66555  1.0000
  H   H2        1.0  0.91691  0.94489  0.33445  1.0000
  H   H3        1.0  0.91691  0.44489  0.16555  1.0000
  H   H4        1.0  0.08309  0.94489  0.83445  1.0000
  H   H5        1.0  0.01344  0.60345  0.71090  1.0000
  H   H6        1.0  0.98656  0.10345  0.28910  1.0000
  H   H7        1.0  0.98655  0.60345  0.21090  1.0000
  H   H8        1.0  0.01344  0.10345  0.78910  1.0000
  H   H9        1.0  0.67710  0.47271  0.56709  1.0000
  H   H10       1.0  0.32291  0.97271  0.43291  1.0000
  H   H11       1.0  0.32291  0.47271  0.06709  1.0000
  H   H12       1.0  0.67710  0.97271  0.93291  1.0000
  H   H13       1.0  0.59294  0.62730  0.61424  1.0000
  H   H14       1.0  0.40706  0.12730  0.38576  1.0000
  H   H15       1.0  0.40706  0.62730  0.11424  1.0000
  H   H16       1.0  0.59294  0.12730  0.88576  1.0000
  H   H17       1.0  0.06418  0.71951  0.56776  1.0000
  H   H18       1.0  0.93582  0.21951  0.43224  1.0000
  H   H19       1.0  0.93582  0.71951  0.06776  1.0000
  H   H20       1.0  0.06418  0.21951  0.93224  1.0000
  H   H21       1.0  0.14206  0.56730  0.51917  1.0000
  H   H22       1.0  0.85795  0.06730  0.48083  1.0000
  H   H23       1.0  0.85795  0.56730  0.01917  1.0000
  H   H24       1.0  0.14206  0.06730  0.98083  1.0000
  C   C1        1.0  0.71226  0.45297  0.73837  1.0000
  C   C2        1.0  0.28773  0.95297  0.26163  1.0000
  C   C3        1.0  0.28773  0.45297  0.23837  1.0000
  C   C4        1.0  0.71226  0.95297  0.76163  1.0000
  C   C5        1.0  0.91565  0.51687  0.67996  1.0000
  C   C6        1.0  0.08434  0.01687  0.32004  1.0000
  C   C7        1.0  0.08434  0.51687  0.17996  1.0000
  C   C8        1.0  0.91565  0.01687  0.82004  1.0000
  C   C9        1.0  0.76811  0.56075  0.59853  1.0000
  C   C10       1.0  0.23189  0.06075  0.40147  1.0000
  C   C11       1.0  0.23189  0.56075  0.09853  1.0000
  C   C12       1.0  0.76811  0.06075  0.90147  1.0000
  C   C13       1.0  0.96591  0.63168  0.53780  1.0000
  C   C14       1.0  0.03409  0.13168  0.46220  1.0000
  C   C15       1.0  0.03409  0.63168  0.03780  1.0000
  C   C16       1.0  0.96591  0.13168  0.96220  1.0000
  C   C17       1.0  0.81764  0.67952  0.45941  1.0000
  C   C18       1.0  0.18236  0.17952  0.54059  1.0000
  C   C19       1.0  0.18236  0.67952  0.95941  1.0000
  C   C20       1.0  0.81764  0.17952  0.04059  1.0000
  N   N1        1.0  0.59704  0.50918  0.80672  1.0000
  N   N2        1.0  0.40296  0.00918  0.19328  1.0000
  N   N3        1.0  0.40296  0.50918  0.30672  1.0000
  N   N4        1.0  0.59704  0.00918  0.69328  1.0000
  N   N5        1.0  0.41010  0.42026  0.83921  1.0000
  N   N6        1.0  0.58991  0.92026  0.16079  1.0000
  N   N7        1.0  0.58991  0.42026  0.33921  1.0000
  N   N8        1.0  0.41010  0.92026  0.66079  1.0000
  N   N9        1.0  0.41002  0.31370  0.79243  1.0000
  N   N10       1.0  0.58998  0.81370  0.20757  1.0000
  N   N11       1.0  0.58999  0.31370  0.29243  1.0000
  N   N12       1.0  0.41002  0.81370  0.70757  1.0000
  N   N13       1.0  0.59743  0.33125  0.72872  1.0000
  N   N14       1.0  0.40257  0.83125  0.27128  1.0000
  N   N15       1.0  0.40257  0.33125  0.22872  1.0000
  N   N16       1.0  0.59743  0.83125  0.77128  1.0000
  O   O1        1.0  0.94880  0.70750  0.39169  1.0000
  O   O2        1.0  0.05120  0.20750  0.60831  1.0000
  O   O3        1.0  0.05120  0.70750  0.89169  1.0000
  O   O4        1.0  0.94880  0.20750  0.10831  1.0000
  O   O5        1.0  0.55163  0.69169  0.46353  1.0000
  O   O6        1.0  0.44837  0.19169  0.53647  1.0000
  O   O7        1.0  0.44837  0.69169  0.96353  1.0000
  O   O8        1.0  0.55163  0.19169  0.03647  1.0000
