data_image0
_chemical_formula_structural       Na2Cr2H54C30N2O12
_chemical_formula_sum              "Na2 Cr2 H54 C30 N2 O12"
_cell_length_a       6.08609
_cell_length_b       9.69968
_cell_length_c       14.9665
_cell_angle_alpha    90.0083
_cell_angle_beta     90.0024
_cell_angle_gamma    94.7929

_space_group_name_H-M_alt    "P 1"
_space_group_IT_number       1

loop_
  _space_group_symop_operation_xyz
  'x, y, z'

loop_
  _atom_site_type_symbol
  _atom_site_label
  _atom_site_symmetry_multiplicity
  _atom_site_fract_x
  _atom_site_fract_y
  _atom_site_fract_z
  _atom_site_occupancy
  Na  Na1       1.0  0.76299  0.79241  0.62630  1.0000
  Na  Na2       1.0  0.23700  0.20764  0.12633  1.0000
  Cr  Cr1       1.0  0.28000  0.92700  0.59760  1.0000
  Cr  Cr2       1.0  0.71994  0.07301  0.09760  1.0000
  H   H1        1.0  0.20073  0.08581  0.75406  1.0000
  H   H2        1.0  0.79917  0.91418  0.25407  1.0000
  H   H3        1.0  0.50733  0.98580  0.81780  1.0000
  H   H4        1.0  0.49264  0.01422  0.31780  1.0000
  H   H5        1.0  0.55252  0.73821  0.82528  1.0000
  H   H6        1.0  0.44750  0.26181  0.32532  1.0000
  H   H7        1.0  0.29792  0.69833  0.77005  1.0000
  H   H8        1.0  0.70207  0.30172  0.27012  1.0000
  H   H9        1.0  0.25831  0.66579  0.93754  1.0000
  H   H10       1.0  0.74172  0.33417  0.43760  1.0000
  H   H11       1.0  0.34649  0.84242  0.95322  1.0000
  H   H12       1.0  0.65347  0.15757  0.45325  1.0000
  H   H13       1.0  0.94044  0.73182  0.84449  1.0000
  H   H14       1.0  0.05959  0.26818  0.34457  1.0000
  H   H15       1.0  0.92959  0.80357  0.95305  1.0000
  H   H16       1.0  0.07039  0.19637  0.45309  1.0000
  H   H17       1.0  0.08688  0.02822  0.90194  1.0000
  H   H18       1.0  0.91311  0.97174  0.40193  1.0000
  H   H19       1.0  0.85928  0.97717  0.83306  1.0000
  H   H20       1.0  0.14071  0.02283  0.33309  1.0000
  H   H21       1.0  0.05404  0.71819  0.41161  1.0000
  H   H22       1.0  0.94601  0.28180  0.91166  1.0000
  H   H23       1.0  0.34488  0.90029  0.40725  1.0000
  H   H24       1.0  0.65520  0.09967  0.90729  1.0000
  H   H25       1.0  0.45917  0.71958  0.31646  1.0000
  H   H26       1.0  0.54079  0.28037  0.81646  1.0000
  H   H27       1.0  0.69379  0.78465  0.37728  1.0000
  H   H28       1.0  0.30622  0.21536  0.87730  1.0000
  H   H29       1.0  0.65784  0.58419  0.47947  1.0000
  H   H30       1.0  0.34211  0.41583  0.97948  1.0000
  H   H31       1.0  0.64920  0.52189  0.36838  1.0000
  H   H32       1.0  0.35083  0.47809  0.86839  1.0000
  H   H33       1.0  0.24068  0.48756  0.37375  1.0000
  H   H34       1.0  0.75938  0.51240  0.87383  1.0000
  H   H35       1.0  0.35396  0.39680  0.46200  1.0000
  H   H36       1.0  0.64599  0.60323  0.96203  1.0000
  H   H37       1.0  0.04210  0.52537  0.51861  1.0000
  H   H38       1.0  0.95792  0.47457  0.01867  1.0000
  H   H39       1.0  0.29432  0.59250  0.56745  1.0000
  H   H40       1.0  0.70564  0.40752  0.06749  1.0000
  H   H41       1.0  0.54127  0.38538  0.61158  1.0000
  H   H42       1.0  0.45884  0.61465  0.11161  1.0000
  H   H43       1.0  0.17665  0.35660  0.67858  1.0000
  H   H44       1.0  0.82339  0.64337  0.17859  1.0000
  H   H45       1.0  0.03777  0.34358  0.78334  1.0000
  H   H46       1.0  0.96222  0.65643  0.28334  1.0000
  H   H47       1.0  0.04848  0.50298  0.72210  1.0000
  H   H48       1.0  0.95159  0.49701  0.22210  1.0000
  H   H49       1.0  0.63045  0.17751  0.61920  1.0000
  H   H50       1.0  0.36953  0.82251  0.11920  1.0000
  H   H51       1.0  0.77350  0.14100  0.71900  1.0000
  H   H52       1.0  0.22649  0.85903  0.21900  1.0000
  H   H53       1.0  0.92145  0.15781  0.61644  1.0000
  H   H54       1.0  0.07850  0.84218  0.11646  1.0000
  C   C1        1.0  0.17195  0.97351  0.76817  1.0000
  C   C2        1.0  0.82800  0.02648  0.26818  1.0000
  C   C3        1.0  0.39752  0.91530  0.77656  1.0000
  C   C4        1.0  0.60243  0.08474  0.27656  1.0000
  C   C5        1.0  0.38478  0.77071  0.81755  1.0000
  C   C6        1.0  0.61518  0.22930  0.31758  1.0000
  C   C7        1.0  0.26005  0.76852  0.90638  1.0000
  C   C8        1.0  0.73993  0.23146  0.40642  1.0000
  C   C9        1.0  0.02482  0.80735  0.89063  1.0000
  C   C10       1.0  0.97511  0.19261  0.39068  1.0000
  C   C11       1.0  0.02676  0.95232  0.85086  1.0000
  C   C12       1.0  0.97320  0.04764  0.35086  1.0000
  C   C13       1.0  0.16802  0.72600  0.46934  1.0000
  C   C14       1.0  0.83199  0.27399  0.96938  1.0000
  C   C15       1.0  0.38565  0.80591  0.44294  1.0000
  C   C16       1.0  0.61437  0.19409  0.94294  1.0000
  C   C17       1.0  0.53298  0.72490  0.38380  1.0000
  C   C18       1.0  0.46706  0.27508  0.88380  1.0000
  C   C19       1.0  0.55853  0.57874  0.41788  1.0000
  C   C20       1.0  0.44153  0.42127  0.91790  1.0000
  C   C21       1.0  0.33390  0.50152  0.43681  1.0000
  C   C22       1.0  0.66612  0.49850  0.93686  1.0000
  C   C23       1.0  0.20282  0.58106  0.50398  1.0000
  C   C24       1.0  0.79715  0.41896  0.00403  1.0000
  C   C25       1.0  0.68702  0.43586  0.64675  1.0000
  C   C26       1.0  0.31307  0.56416  0.14676  1.0000
  C   C27       1.0  0.03559  0.39012  0.71635  1.0000
  C   C28       1.0  0.96446  0.60988  0.21635  1.0000
  C   C29       1.0  0.78673  0.19731  0.65523  1.0000
  C   C30       1.0  0.21326  0.80270  0.15524  1.0000
  N   N1        1.0  0.83152  0.34505  0.67092  1.0000
  N   N2        1.0  0.16850  0.65495  0.17092  1.0000
  O   O1        1.0  0.07448  0.90734  0.69100  1.0000
  O   O2        1.0  0.92545  0.09269  0.19105  1.0000
  O   O3        1.0  0.70891  0.56288  0.66025  1.0000
  O   O4        1.0  0.29121  0.43718  0.16027  1.0000
  O   O5        1.0  0.48478  0.91421  0.68797  1.0000
  O   O6        1.0  0.51515  0.08579  0.18798  1.0000
  O   O7        1.0  0.07631  0.80848  0.53638  1.0000
  O   O8        1.0  0.92367  0.19153  0.03640  1.0000
  O   O9        1.0  0.48732  0.84615  0.52576  1.0000
  O   O10       1.0  0.51270  0.15390  0.02579  1.0000
  O   O11       1.0  0.27768  0.08418  0.56488  1.0000
  O   O12       1.0  0.72233  0.91581  0.06490  1.0000
