data_image0
_chemical_formula_structural       Ag4Mo8H24C30N16O26
_chemical_formula_sum              "Ag4 Mo8 H24 C30 N16 O26"
_cell_length_a       9.99901
_cell_length_b       10.7986
_cell_length_c       12.121
_cell_angle_alpha    77.2983
_cell_angle_beta     84.7755
_cell_angle_gamma    84.2925

_space_group_name_H-M_alt    "P 1"
_space_group_IT_number       1

loop_
  _space_group_symop_operation_xyz
  'x, y, z'

loop_
  _atom_site_type_symbol
  _atom_site_label
  _atom_site_symmetry_multiplicity
  _atom_site_fract_x
  _atom_site_fract_y
  _atom_site_fract_z
  _atom_site_occupancy
  Ag  Ag1       1.0  0.37228  0.09007  0.69366  1.0000
  Ag  Ag2       1.0  0.62772  0.90993  0.30634  1.0000
  Ag  Ag3       1.0  0.36972  0.60642  0.31355  1.0000
  Ag  Ag4       1.0  0.63028  0.39359  0.68645  1.0000
  Mo  Mo1       1.0  0.00820  0.80458  0.36864  1.0000
  Mo  Mo2       1.0  0.99180  0.19542  0.63136  1.0000
  Mo  Mo3       1.0  0.23018  0.24831  0.42456  1.0000
  Mo  Mo4       1.0  0.76982  0.75169  0.57544  1.0000
  Mo  Mo5       1.0  0.04106  0.89642  0.63559  1.0000
  Mo  Mo6       1.0  0.95894  0.10358  0.36441  1.0000
  Mo  Mo7       1.0  0.28379  0.94033  0.44514  1.0000
  Mo  Mo8       1.0  0.71621  0.05967  0.55486  1.0000
  H   H1        1.0  0.21029  0.12685  0.90716  1.0000
  H   H2        1.0  0.78971  0.87315  0.09284  1.0000
  H   H3        1.0  0.17388  0.01950  0.11312  1.0000
  H   H4        1.0  0.82612  0.98050  0.88688  1.0000
  H   H5        1.0  0.30987  0.81831  0.18612  1.0000
  H   H6        1.0  0.69013  0.18170  0.81388  1.0000
  H   H7        1.0  0.51645  0.85417  0.85257  1.0000
  H   H8        1.0  0.48355  0.14583  0.14743  1.0000
  H   H9        1.0  0.49715  0.35733  0.24430  1.0000
  H   H10       1.0  0.50284  0.64267  0.75570  1.0000
  H   H11       1.0  0.66928  0.33050  0.18474  1.0000
  H   H12       1.0  0.33072  0.66950  0.81526  1.0000
  H   H13       1.0  0.49426  0.34019  0.45762  1.0000
  H   H14       1.0  0.50574  0.65981  0.54238  1.0000
  H   H15       1.0  0.85524  0.50941  0.46146  1.0000
  H   H16       1.0  0.14476  0.49059  0.53854  1.0000
  H   H17       1.0  0.82156  0.63906  0.85845  1.0000
  H   H18       1.0  0.17844  0.36093  0.14155  1.0000
  H   H19       1.0  0.02202  0.51828  0.77981  1.0000
  H   H20       1.0  0.97798  0.48172  0.22019  1.0000
  H   H21       1.0  0.07628  0.29077  0.87326  1.0000
  H   H22       1.0  0.92372  0.70923  0.12674  1.0000
  H   H23       1.0  0.93207  0.19347  0.04684  1.0000
  H   H24       1.0  0.06793  0.80653  0.95316  1.0000
  C   C1        1.0  0.27020  0.04045  0.94391  1.0000
  C   C2        1.0  0.72980  0.95955  0.05609  1.0000
  C   C3        1.0  0.24912  0.97957  0.05692  1.0000
  C   C4        1.0  0.75088  0.02043  0.94308  1.0000
  C   C5        1.0  0.32561  0.86659  0.09765  1.0000
  C   C6        1.0  0.67438  0.13341  0.90235  1.0000
  C   C7        1.0  0.42274  0.81835  0.02399  1.0000
  C   C8        1.0  0.57726  0.18165  0.97601  1.0000
  C   C9        1.0  0.44004  0.88760  0.91175  1.0000
  C   C10       1.0  0.55996  0.11240  0.08825  1.0000
  C   C11       1.0  0.50564  0.69832  0.05594  1.0000
  C   C12       1.0  0.49436  0.30168  0.94406  1.0000
  C   C13       1.0  0.59642  0.39484  0.22328  1.0000
  C   C14       1.0  0.40357  0.60516  0.77672  1.0000
  C   C15       1.0  0.58676  0.38744  0.43274  1.0000
  C   C16       1.0  0.41324  0.61256  0.56726  1.0000
  C   C17       1.0  0.77158  0.47182  0.43221  1.0000
  C   C18       1.0  0.22842  0.52818  0.56779  1.0000
  C   C19       1.0  0.65770  0.54867  0.03806  1.0000
  C   C20       1.0  0.34230  0.45133  0.96194  1.0000
  C   C21       1.0  0.77408  0.47719  0.99208  1.0000
  C   C22       1.0  0.22591  0.52281  0.00792  1.0000
  C   C23       1.0  0.84957  0.54019  0.89682  1.0000
  C   C24       1.0  0.15043  0.45981  0.10318  1.0000
  C   C25       1.0  0.96000  0.47272  0.85325  1.0000
  C   C26       1.0  0.04000  0.52727  0.14675  1.0000
  C   C27       1.0  0.99145  0.34630  0.90659  1.0000
  C   C28       1.0  0.00854  0.65370  0.09341  1.0000
  C   C29       1.0  0.91088  0.29182  0.00168  1.0000
  C   C30       1.0  0.08912  0.70818  0.99833  1.0000
  N   N1        1.0  0.36473  0.99559  0.87234  1.0000
  N   N2        1.0  0.63527  0.00441  0.12766  1.0000
  N   N3        1.0  0.60874  0.66382  0.98494  1.0000
  N   N4        1.0  0.39126  0.33618  0.01506  1.0000
  N   N5        1.0  0.48720  0.60921  0.15177  1.0000
  N   N6        1.0  0.51280  0.39079  0.84823  1.0000
  N   N7        1.0  0.58427  0.51352  0.13889  1.0000
  N   N8        1.0  0.41573  0.48648  0.86111  1.0000
  N   N9        1.0  0.64488  0.41495  0.32647  1.0000
  N   N10       1.0  0.35512  0.58505  0.67353  1.0000
  N   N11       1.0  0.76277  0.46909  0.32443  1.0000
  N   N12       1.0  0.23723  0.53092  0.67557  1.0000
  N   N13       1.0  0.66512  0.42283  0.50175  1.0000
  N   N14       1.0  0.33488  0.57717  0.49824  1.0000
  N   N15       1.0  0.80364  0.35518  0.04391  1.0000
  N   N16       1.0  0.19636  0.64482  0.95609  1.0000
  O   O1        1.0  0.13448  0.70592  0.31928  1.0000
  O   O2        1.0  0.86552  0.29408  0.68072  1.0000
  O   O3        1.0  0.14772  0.82254  0.51883  1.0000
  O   O4        1.0  0.85228  0.17746  0.48117  1.0000
  O   O5        1.0  0.88830  0.82893  0.27125  1.0000
  O   O6        1.0  0.11170  0.17108  0.72875  1.0000
  O   O7        1.0  0.07426  0.31111  0.50760  1.0000
  O   O8        1.0  0.92574  0.68889  0.49240  1.0000
  O   O9        1.0  0.28559  0.37950  0.33020  1.0000
  O   O10       1.0  0.71441  0.62050  0.66980  1.0000
  O   O11       1.0  0.33946  0.22470  0.53434  1.0000
  O   O12       1.0  0.66054  0.77530  0.46566  1.0000
  O   O13       1.0  0.30732  0.10855  0.36019  1.0000
  O   O14       1.0  0.69268  0.89145  0.63981  1.0000
  O   O15       1.0  0.10963  0.05969  0.52347  1.0000
  O   O16       1.0  0.89037  0.94031  0.47653  1.0000
  O   O17       1.0  0.14995  0.87467  0.73939  1.0000
  O   O18       1.0  0.85005  0.12533  0.26061  1.0000
  O   O19       1.0  0.06882  0.22777  0.32084  1.0000
  O   O20       1.0  0.93119  0.77223  0.67916  1.0000
  O   O21       1.0  0.08892  0.96910  0.32457  1.0000
  O   O22       1.0  0.91108  0.03090  0.67543  1.0000
  O   O23       1.0  0.38166  0.92646  0.55717  1.0000
  O   O24       1.0  0.61834  0.07354  0.44283  1.0000
  O   O25       1.0  0.37420  0.85414  0.35442  1.0000
  O   O26       1.0  0.62580  0.14586  0.64558  1.0000
