data_image0
_chemical_formula_structural       Ag2Mo8H26C30N16O26
_chemical_formula_sum              "Ag2 Mo8 H26 C30 N16 O26"
_cell_length_a       10.4387
_cell_length_b       10.4525
_cell_length_c       12.15
_cell_angle_alpha    98.3174
_cell_angle_beta     94.1405
_cell_angle_gamma    107.351

_space_group_name_H-M_alt    "P 1"
_space_group_IT_number       1

loop_
  _space_group_symop_operation_xyz
  'x, y, z'

loop_
  _atom_site_type_symbol
  _atom_site_label
  _atom_site_symmetry_multiplicity
  _atom_site_fract_x
  _atom_site_fract_y
  _atom_site_fract_z
  _atom_site_occupancy
  Ag  Ag1       1.0  0.34547  0.56440  0.47695  1.0000
  Ag  Ag2       1.0  0.65453  0.43560  0.52305  1.0000
  Mo  Mo1       1.0  0.85870  0.56507  0.11274  1.0000
  Mo  Mo2       1.0  0.14130  0.43493  0.88726  1.0000
  Mo  Mo3       1.0  0.32046  0.59683  0.13406  1.0000
  Mo  Mo4       1.0  0.67954  0.40317  0.86594  1.0000
  Mo  Mo5       1.0  0.57223  0.46742  0.22492  1.0000
  Mo  Mo6       1.0  0.42777  0.53258  0.77508  1.0000
  Mo  Mo7       1.0  0.59083  0.68027  0.01465  1.0000
  Mo  Mo8       1.0  0.40917  0.31973  0.98535  1.0000
  H   H1        1.0  0.53739  0.77624  0.33920  1.0000
  H   H2        1.0  0.46261  0.22376  0.66080  1.0000
  H   H3        1.0  0.52883  0.84323  0.68838  1.0000
  H   H4        1.0  0.47117  0.15677  0.31162  1.0000
  H   H5        1.0  0.72730  0.18003  0.61020  1.0000
  H   H6        1.0  0.27269  0.81997  0.38980  1.0000
  H   H7        1.0  0.69352  0.10014  0.72986  1.0000
  H   H8        1.0  0.30648  0.89985  0.27014  1.0000
  H   H9        1.0  0.78528  0.16368  0.44366  1.0000
  H   H10       1.0  0.21473  0.83632  0.55634  1.0000
  H   H11       1.0  0.84060  0.33363  0.31480  1.0000
  H   H12       1.0  0.15940  0.66637  0.68520  1.0000
  H   H13       1.0  0.07852  0.48315  0.32443  1.0000
  H   H14       1.0  0.92148  0.51685  0.67557  1.0000
  H   H15       1.0  0.20507  0.31308  0.58418  1.0000
  H   H16       1.0  0.79493  0.68692  0.41582  1.0000
  H   H17       1.0  0.28195  0.03513  0.72673  1.0000
  H   H18       1.0  0.71805  0.96487  0.27327  1.0000
  H   H19       1.0  0.41360  0.93915  0.86125  1.0000
  H   H20       1.0  0.58640  0.06085  0.13875  1.0000
  H   H21       1.0  0.07900  0.79689  0.02415  1.0000
  H   H22       1.0  0.92100  0.20311  0.97585  1.0000
  H   H23       1.0  0.93214  0.88159  0.89593  1.0000
  H   H24       1.0  0.06786  0.11841  0.10407  1.0000
  H   H25       1.0  0.29949  0.82902  0.99876  1.0000
  H   H26       1.0  0.70051  0.17098  0.00124  1.0000
  C   C1        1.0  0.55625  0.82562  0.42648  1.0000
  C   C2        1.0  0.44375  0.17438  0.57352  1.0000
  C   C3        1.0  0.55053  0.85669  0.60390  1.0000
  C   C4        1.0  0.44947  0.14331  0.39610  1.0000
  C   C5        1.0  0.72703  0.09000  0.64641  1.0000
  C   C6        1.0  0.27297  0.91000  0.35359  1.0000
  C   C7        1.0  0.97566  0.13594  0.60863  1.0000
  C   C8        1.0  0.02434  0.86406  0.39137  1.0000
  C   C9        1.0  0.99110  0.22780  0.52689  1.0000
  C   C10       1.0  0.00890  0.77220  0.47311  1.0000
  C   C11       1.0  0.88718  0.23438  0.45027  1.0000
  C   C12       1.0  0.11282  0.76562  0.54973  1.0000
  C   C13       1.0  0.91790  0.32728  0.37708  1.0000
  C   C14       1.0  0.08210  0.67272  0.62292  1.0000
  C   C15       1.0  0.05021  0.41100  0.38160  1.0000
  C   C16       1.0  0.94979  0.58900  0.61840  1.0000
  C   C17       1.0  0.12248  0.31549  0.52544  1.0000
  C   C18       1.0  0.87752  0.68451  0.47456  1.0000
  C   C19       1.0  0.02173  0.02228  0.72896  1.0000
  C   C20       1.0  0.97827  0.97772  0.27104  1.0000
  C   C21       1.0  0.09845  0.96607  0.80260  1.0000
  C   C22       1.0  0.90155  0.03393  0.19740  1.0000
  C   C23       1.0  0.23504  0.98261  0.79150  1.0000
  C   C24       1.0  0.76496  0.01739  0.20850  1.0000
  C   C25       1.0  0.30794  0.93190  0.86361  1.0000
  C   C26       1.0  0.69205  0.06810  0.13639  1.0000
  C   C27       1.0  0.11618  0.85020  0.95652  1.0000
  C   C28       1.0  0.88382  0.14980  0.04348  1.0000
  C   C29       1.0  0.03824  0.89760  0.88613  1.0000
  C   C30       1.0  0.96176  0.10240  0.11387  1.0000
  N   N1        1.0  0.49738  0.76482  0.51093  1.0000
  N   N2        1.0  0.50262  0.23518  0.48907  1.0000
  N   N3        1.0  0.64048  0.94996  0.46220  1.0000
  N   N4        1.0  0.35952  0.05004  0.53780  1.0000
  N   N5        1.0  0.63568  0.96845  0.57511  1.0000
  N   N6        1.0  0.36432  0.03155  0.42489  1.0000
  N   N7        1.0  0.86254  0.08037  0.65866  1.0000
  N   N8        1.0  0.13746  0.91964  0.34133  1.0000
  N   N9        1.0  0.89075  0.00768  0.73480  1.0000
  N   N10       1.0  0.10925  0.99232  0.26520  1.0000
  N   N11       1.0  0.07704  0.09902  0.65237  1.0000
  N   N12       1.0  0.92296  0.90098  0.34763  1.0000
  N   N13       1.0  0.15113  0.40569  0.45555  1.0000
  N   N14       1.0  0.84887  0.59431  0.54445  1.0000
  N   N15       1.0  0.24724  0.86894  0.94352  1.0000
  N   N16       1.0  0.75276  0.13106  0.05648  1.0000
  O   O1        1.0  0.01267  0.68642  0.15508  1.0000
  O   O2        1.0  0.98733  0.31358  0.84492  1.0000
  O   O3        1.0  0.75196  0.58407  0.23330  1.0000
  O   O4        1.0  0.24805  0.41593  0.76670  1.0000
  O   O5        1.0  0.88230  0.41560  0.13678  1.0000
  O   O6        1.0  0.11771  0.58441  0.86322  1.0000
  O   O7        1.0  0.83768  0.52644  0.95055  1.0000
  O   O8        1.0  0.16232  0.47356  0.04945  1.0000
  O   O9        1.0  0.31279  0.75477  0.11245  1.0000
  O   O10       1.0  0.68721  0.24523  0.88755  1.0000
  O   O11       1.0  0.28379  0.59093  0.26940  1.0000
  O   O12       1.0  0.71621  0.40907  0.73060  1.0000
  O   O13       1.0  0.52253  0.65721  0.15927  1.0000
  O   O14       1.0  0.47747  0.34279  0.84073  1.0000
  O   O15       1.0  0.53375  0.52379  0.35582  1.0000
  O   O16       1.0  0.46625  0.47621  0.64418  1.0000
  O   O17       1.0  0.59789  0.31443  0.23570  1.0000
  O   O18       1.0  0.40211  0.68557  0.76430  1.0000
  O   O19       1.0  0.39036  0.40072  0.13784  1.0000
  O   O20       1.0  0.60964  0.59928  0.86216  1.0000
  O   O21       1.0  0.60427  0.45514  0.03725  1.0000
  O   O22       1.0  0.39572  0.54486  0.96275  1.0000
  O   O23       1.0  0.56339  0.82793  0.99096  1.0000
  O   O24       1.0  0.43661  0.17207  0.00904  1.0000
  O   O25       1.0  0.76380  0.72423  0.06558  1.0000
  O   O26       1.0  0.23619  0.27576  0.93442  1.0000
