data_image0
_chemical_formula_structural       Mn6H36C24O36
_chemical_formula_sum              "Mn6 H36 C24 O36"
_cell_length_a       9.68808
_cell_length_b       9.68799
_cell_length_c       9.7738
_cell_angle_alpha    96.3197
_cell_angle_beta     96.3196
_cell_angle_gamma    96.2504

_space_group_name_H-M_alt    "P 1"
_space_group_IT_number       1

loop_
  _space_group_symop_operation_xyz
  'x, y, z'

loop_
  _atom_site_type_symbol
  _atom_site_label
  _atom_site_symmetry_multiplicity
  _atom_site_fract_x
  _atom_site_fract_y
  _atom_site_fract_z
  _atom_site_occupancy
  Mn  Mn1       1.0  0.79057  0.16272  0.37745  1.0000
  Mn  Mn2       1.0  0.37765  0.78993  0.16288  1.0000
  Mn  Mn3       1.0  0.16388  0.37664  0.79031  1.0000
  Mn  Mn4       1.0  0.20943  0.83728  0.62255  1.0000
  Mn  Mn5       1.0  0.62235  0.21008  0.83712  1.0000
  Mn  Mn6       1.0  0.83612  0.62335  0.20969  1.0000
  H   H1        1.0  0.69534  0.97937  0.16171  1.0000
  H   H2        1.0  0.16163  0.69537  0.97965  1.0000
  H   H3        1.0  0.97810  0.16158  0.69536  1.0000
  H   H4        1.0  0.30466  0.02063  0.83829  1.0000
  H   H5        1.0  0.83837  0.30463  0.02035  1.0000
  H   H6        1.0  0.02190  0.83842  0.30463  1.0000
  H   H7        1.0  0.85452  0.94288  0.18027  1.0000
  H   H8        1.0  0.17986  0.85422  0.94290  1.0000
  H   H9        1.0  0.94284  0.18001  0.85351  1.0000
  H   H10       1.0  0.14549  0.05712  0.81973  1.0000
  H   H11       1.0  0.82014  0.14578  0.05710  1.0000
  H   H12       1.0  0.05716  0.81998  0.14649  1.0000
  H   H13       1.0  0.82502  0.38212  0.58603  1.0000
  H   H14       1.0  0.58628  0.82490  0.38330  1.0000
  H   H15       1.0  0.38278  0.58640  0.82483  1.0000
  H   H16       1.0  0.17498  0.61788  0.41397  1.0000
  H   H17       1.0  0.41372  0.17510  0.61670  1.0000
  H   H18       1.0  0.61722  0.41360  0.17517  1.0000
  H   H19       1.0  0.66566  0.32027  0.56487  1.0000
  H   H20       1.0  0.56525  0.66545  0.32141  1.0000
  H   H21       1.0  0.32089  0.56483  0.66668  1.0000
  H   H22       1.0  0.33434  0.67974  0.43513  1.0000
  H   H23       1.0  0.43475  0.33456  0.67859  1.0000
  H   H24       1.0  0.67911  0.43517  0.33332  1.0000
  H   H25       1.0  0.63183  0.77136  0.58353  1.0000
  H   H26       1.0  0.58293  0.63259  0.77214  1.0000
  H   H27       1.0  0.77141  0.58187  0.63400  1.0000
  H   H28       1.0  0.36817  0.22864  0.41647  1.0000
  H   H29       1.0  0.41707  0.36741  0.22786  1.0000
  H   H30       1.0  0.22859  0.41813  0.36600  1.0000
  H   H31       1.0  0.92929  0.87495  0.72395  1.0000
  H   H32       1.0  0.72568  0.92979  0.87363  1.0000
  H   H33       1.0  0.87602  0.72588  0.92796  1.0000
  H   H34       1.0  0.07071  0.12505  0.27605  1.0000
  H   H35       1.0  0.27432  0.07021  0.12637  1.0000
  H   H36       1.0  0.12398  0.27412  0.07204  1.0000
  C   C1        1.0  0.70517  0.84811  0.65505  1.0000
  C   C2        1.0  0.65524  0.70589  0.84809  1.0000
  C   C3        1.0  0.84842  0.65458  0.70582  1.0000
  C   C4        1.0  0.29483  0.15189  0.34495  1.0000
  C   C5        1.0  0.34475  0.29411  0.15191  1.0000
  C   C6        1.0  0.15158  0.34542  0.29418  1.0000
  C   C7        1.0  0.85197  0.79950  0.65527  1.0000
  C   C8        1.0  0.65575  0.85239  0.79951  1.0000
  C   C9        1.0  0.80069  0.65590  0.85179  1.0000
  C   C10       1.0  0.14803  0.20050  0.34473  1.0000
  C   C11       1.0  0.34425  0.14761  0.20049  1.0000
  C   C12       1.0  0.19931  0.34410  0.14821  1.0000
  C   C13       1.0  0.70668  0.98913  0.59901  1.0000
  C   C14       1.0  0.59870  0.70746  0.98785  1.0000
  C   C15       1.0  0.98932  0.59810  0.70728  1.0000
  C   C16       1.0  0.29332  0.01086  0.40100  1.0000
  C   C17       1.0  0.40129  0.29254  0.01215  1.0000
  C   C18       1.0  0.01068  0.40190  0.29272  1.0000
  C   C19       1.0  0.89611  0.78628  0.50889  1.0000
  C   C20       1.0  0.50851  0.89685  0.78686  1.0000
  C   C21       1.0  0.78762  0.50885  0.89677  1.0000
  C   C22       1.0  0.10389  0.21372  0.49110  1.0000
  C   C23       1.0  0.49148  0.10315  0.21314  1.0000
  C   C24       1.0  0.21238  0.49115  0.10323  1.0000
  O   O1        1.0  0.79571  0.02099  0.17763  1.0000
  O   O2        1.0  0.17671  0.79582  0.02060  1.0000
  O   O3        1.0  0.02034  0.17694  0.79457  1.0000
  O   O4        1.0  0.20429  0.97901  0.82237  1.0000
  O   O5        1.0  0.82329  0.20418  0.97940  1.0000
  O   O6        1.0  0.97966  0.82306  0.20542  1.0000
  O   O7        1.0  0.74417  0.34783  0.51364  1.0000
  O   O8        1.0  0.51349  0.74435  0.34739  1.0000
  O   O9        1.0  0.34835  0.51332  0.74467  1.0000
  O   O10       1.0  0.25583  0.65217  0.48636  1.0000
  O   O11       1.0  0.48651  0.25565  0.65261  1.0000
  O   O12       1.0  0.65165  0.48668  0.25533  1.0000
  O   O13       1.0  0.69176  0.98638  0.46667  1.0000
  O   O14       1.0  0.46525  0.69243  0.98502  1.0000
  O   O15       1.0  0.98656  0.46464  0.69280  1.0000
  O   O16       1.0  0.30824  0.01362  0.53334  1.0000
  O   O17       1.0  0.53475  0.30757  0.01498  1.0000
  O   O18       1.0  0.01344  0.53536  0.30719  1.0000
  O   O19       1.0  0.72909  0.10086  0.68277  1.0000
  O   O20       1.0  0.68293  0.72961  0.09883  1.0000
  O   O21       1.0  0.10113  0.68233  0.72902  1.0000
  O   O22       1.0  0.27091  0.89914  0.31723  1.0000
  O   O23       1.0  0.31707  0.27039  0.90118  1.0000
  O   O24       1.0  0.89886  0.31768  0.27098  1.0000
  O   O25       1.0  0.80957  0.71667  0.41331  1.0000
  O   O26       1.0  0.41239  0.81047  0.71726  1.0000
  O   O27       1.0  0.71816  0.41236  0.81083  1.0000
  O   O28       1.0  0.19043  0.28333  0.58669  1.0000
  O   O29       1.0  0.58761  0.18953  0.28274  1.0000
  O   O30       1.0  0.28185  0.58764  0.18917  1.0000
  O   O31       1.0  0.01821  0.84145  0.49054  1.0000
  O   O32       1.0  0.48974  0.01877  0.84202  1.0000
  O   O33       1.0  0.84167  0.49073  0.01837  1.0000
  O   O34       1.0  0.98179  0.15855  0.50946  1.0000
  O   O35       1.0  0.51026  0.98123  0.15798  1.0000
  O   O36       1.0  0.15834  0.50927  0.98163  1.0000
