data_image0
_chemical_formula_structural       Ba2P6H20C6N2O18
_chemical_formula_sum              "Ba2 P6 H20 C6 N2 O18"
_cell_length_a       7.61596
_cell_length_b       8.46908
_cell_length_c       9.14522
_cell_angle_alpha    101.726
_cell_angle_beta     95.4919
_cell_angle_gamma    107.248

_space_group_name_H-M_alt    "P 1"
_space_group_IT_number       1

loop_
  _space_group_symop_operation_xyz
  'x, y, z'

loop_
  _atom_site_type_symbol
  _atom_site_label
  _atom_site_symmetry_multiplicity
  _atom_site_fract_x
  _atom_site_fract_y
  _atom_site_fract_z
  _atom_site_occupancy
  Ba  Ba1       1.0  0.39138  0.22439  0.55794  1.0000
  Ba  Ba2       1.0  0.60862  0.77561  0.44206  1.0000
  P   P1        1.0  0.21032  0.83686  0.17727  1.0000
  P   P2        1.0  0.78968  0.16314  0.82273  1.0000
  P   P3        1.0  0.12814  0.81323  0.59312  1.0000
  P   P4        1.0  0.87186  0.18677  0.40688  1.0000
  P   P5        1.0  0.51762  0.61007  0.81633  1.0000
  P   P6        1.0  0.48238  0.38993  0.18367  1.0000
  H   H1        1.0  0.99330  0.79679  0.95057  1.0000
  H   H2        1.0  0.00670  0.20321  0.04943  1.0000
  H   H3        1.0  0.20662  0.96237  0.95986  1.0000
  H   H4        1.0  0.79338  0.03763  0.04014  1.0000
  H   H5        1.0  0.94818  0.61861  0.72522  1.0000
  H   H6        1.0  0.05182  0.38139  0.27478  1.0000
  H   H7        1.0  0.12534  0.54865  0.64852  1.0000
  H   H8        1.0  0.87467  0.45135  0.35148  1.0000
  H   H9        1.0  0.47729  0.84421  0.98908  1.0000
  H   H10       1.0  0.52271  0.15579  0.01092  1.0000
  H   H11       1.0  0.44417  0.87366  0.79955  1.0000
  H   H12       1.0  0.55583  0.12634  0.20045  1.0000
  H   H13       1.0  0.18582  0.59932  0.90071  1.0000
  H   H14       1.0  0.81418  0.40068  0.09929  1.0000
  H   H15       1.0  0.01016  0.69931  0.30271  1.0000
  H   H16       1.0  0.98984  0.30069  0.69729  1.0000
  H   H17       1.0  0.98784  0.99268  0.71171  1.0000
  H   H18       1.0  0.01216  0.00732  0.28829  1.0000
  H   H19       1.0  0.67155  0.62064  0.03741  1.0000
  H   H20       1.0  0.32845  0.37936  0.96259  1.0000
  C   C1        1.0  0.14586  0.83457  0.97758  1.0000
  C   C2        1.0  0.85414  0.16543  0.02242  1.0000
  C   C3        1.0  0.09513  0.66005  0.71130  1.0000
  C   C4        1.0  0.90487  0.33995  0.28870  1.0000
  C   C5        1.0  0.41688  0.78176  0.87019  1.0000
  C   C6        1.0  0.58312  0.21824  0.12981  1.0000
  N   N1        1.0  0.20963  0.71310  0.86741  1.0000
  N   N2        1.0  0.79037  0.28690  0.13259  1.0000
  O   O1        1.0  0.19284  0.00301  0.26892  1.0000
  O   O2        1.0  0.80716  0.99699  0.73108  1.0000
  O   O3        1.0  0.39882  0.81420  0.20005  1.0000
  O   O4        1.0  0.60118  0.18581  0.79995  1.0000
  O   O5        1.0  0.04735  0.67815  0.19724  1.0000
  O   O6        1.0  0.95265  0.32185  0.80276  1.0000
  O   O7        1.0  0.31822  0.85046  0.54644  1.0000
  O   O8        1.0  0.68178  0.14955  0.45356  1.0000
  O   O9        1.0  0.95976  0.73100  0.46625  1.0000
  O   O10       1.0  0.04025  0.26900  0.53375  1.0000
  O   O11       1.0  0.12216  0.98720  0.69307  1.0000
  O   O12       1.0  0.87784  0.01280  0.30693  1.0000
  O   O13       1.0  0.36802  0.44917  0.83033  1.0000
  O   O14       1.0  0.63198  0.55083  0.16967  1.0000
  O   O15       1.0  0.69814  0.66379  0.94003  1.0000
  O   O16       1.0  0.30186  0.33621  0.05997  1.0000
  O   O17       1.0  0.57145  0.59622  0.66086  1.0000
  O   O18       1.0  0.42855  0.40378  0.33914  1.0000
