data_image0
_chemical_formula_structural       Cu2H32C32S4N20
_chemical_formula_sum              "Cu2 H32 C32 S4 N20"
_cell_length_a       8.89361
_cell_length_b       8.85367
_cell_length_c       13.9133
_cell_angle_alpha    90
_cell_angle_beta     90.0001
_cell_angle_gamma    120.149

_space_group_name_H-M_alt    "P 1"
_space_group_IT_number       1

loop_
  _space_group_symop_operation_xyz
  'x, y, z'

loop_
  _atom_site_type_symbol
  _atom_site_label
  _atom_site_symmetry_multiplicity
  _atom_site_fract_x
  _atom_site_fract_y
  _atom_site_fract_z
  _atom_site_occupancy
  Cu  Cu1       1.0  0.00000  0.00000  0.00000  1.0000
  Cu  Cu2       1.0  0.50000  0.00000  0.50000  1.0000
  H   H1        1.0  0.40191  0.52320  0.14221  1.0000
  H   H2        1.0  0.09810  0.47680  0.64221  1.0000
  H   H3        1.0  0.62131  0.52321  0.35779  1.0000
  H   H4        1.0  0.87870  0.47679  0.85779  1.0000
  H   H5        1.0  0.59810  0.47680  0.85779  1.0000
  H   H6        1.0  0.90190  0.52321  0.35779  1.0000
  H   H7        1.0  0.37870  0.47679  0.64221  1.0000
  H   H8        1.0  0.12130  0.52320  0.14221  1.0000
  H   H9        1.0  0.68576  0.60181  0.02666  1.0000
  H   H10       1.0  0.81424  0.39819  0.52666  1.0000
  H   H11       1.0  0.41605  0.60181  0.47334  1.0000
  H   H12       1.0  0.08395  0.39818  0.97334  1.0000
  H   H13       1.0  0.31424  0.39819  0.97334  1.0000
  H   H14       1.0  0.18577  0.60182  0.47334  1.0000
  H   H15       1.0  0.58395  0.39819  0.52666  1.0000
  H   H16       1.0  0.91605  0.60182  0.02666  1.0000
  H   H17       1.0  0.74253  0.07336  0.13609  1.0000
  H   H18       1.0  0.75748  0.92664  0.63608  1.0000
  H   H19       1.0  0.83083  0.07336  0.36392  1.0000
  H   H20       1.0  0.66917  0.92664  0.86392  1.0000
  H   H21       1.0  0.25747  0.92664  0.86392  1.0000
  H   H22       1.0  0.24253  0.07336  0.36392  1.0000
  H   H23       1.0  0.16917  0.92664  0.63608  1.0000
  H   H24       1.0  0.33083  0.07336  0.13609  1.0000
  H   H25       1.0  0.36228  0.72456  0.26974  1.0000
  H   H26       1.0  0.13772  0.27543  0.76974  1.0000
  H   H27       1.0  0.86228  0.72456  0.23026  1.0000
  H   H28       1.0  0.63772  0.27544  0.73026  1.0000
  H   H29       1.0  0.47761  0.95522  0.24698  1.0000
  H   H30       1.0  0.02239  0.04478  0.74698  1.0000
  H   H31       1.0  0.97761  0.95522  0.25302  1.0000
  H   H32       1.0  0.52239  0.04478  0.75302  1.0000
  C   C1        1.0  0.51390  0.64738  0.12264  1.0000
  C   C2        1.0  0.98609  0.35262  0.62264  1.0000
  C   C3        1.0  0.63348  0.64738  0.37736  1.0000
  C   C4        1.0  0.86653  0.35262  0.87736  1.0000
  C   C5        1.0  0.48609  0.35262  0.87736  1.0000
  C   C6        1.0  0.01391  0.64738  0.37736  1.0000
  C   C7        1.0  0.36652  0.35262  0.62264  1.0000
  C   C8        1.0  0.13348  0.64738  0.12264  1.0000
  C   C9        1.0  0.65675  0.68782  0.06738  1.0000
  C   C10       1.0  0.84325  0.31218  0.56738  1.0000
  C   C11       1.0  0.53108  0.68783  0.43262  1.0000
  C   C12       1.0  0.96892  0.31217  0.93262  1.0000
  C   C13       1.0  0.34325  0.31217  0.93262  1.0000
  C   C14       1.0  0.15675  0.68783  0.43262  1.0000
  C   C15       1.0  0.46892  0.31218  0.56738  1.0000
  C   C16       1.0  0.03108  0.68783  0.06738  1.0000
  C   C17       1.0  0.69261  0.93547  0.12159  1.0000
  C   C18       1.0  0.80739  0.06453  0.62158  1.0000
  C   C19       1.0  0.74287  0.93548  0.37841  1.0000
  C   C20       1.0  0.75713  0.06452  0.87842  1.0000
  C   C21       1.0  0.30739  0.06452  0.87841  1.0000
  C   C22       1.0  0.19261  0.93548  0.37842  1.0000
  C   C23       1.0  0.25713  0.06452  0.62158  1.0000
  C   C24       1.0  0.24287  0.93548  0.12159  1.0000
  C   C25       1.0  0.41280  0.82559  0.21377  1.0000
  C   C26       1.0  0.08720  0.17441  0.71376  1.0000
  C   C27       1.0  0.91280  0.82559  0.28623  1.0000
  C   C28       1.0  0.58720  0.17441  0.78623  1.0000
  C   C29       1.0  0.13316  0.26633  0.20785  1.0000
  C   C30       1.0  0.36684  0.73369  0.70785  1.0000
  C   C31       1.0  0.63316  0.26631  0.29214  1.0000
  C   C32       1.0  0.86683  0.73367  0.79213  1.0000
  S   S1        1.0  0.16180  0.32360  0.32054  1.0000
  S   S2        1.0  0.33820  0.67641  0.82054  1.0000
  S   S3        1.0  0.66180  0.32359  0.17946  1.0000
  S   S4        1.0  0.83819  0.67639  0.67945  1.0000
  N   N1        1.0  0.76738  0.86651  0.06830  1.0000
  N   N2        1.0  0.73262  0.13348  0.56830  1.0000
  N   N3        1.0  0.59914  0.86652  0.43170  1.0000
  N   N4        1.0  0.90087  0.13348  0.93170  1.0000
  N   N5        1.0  0.23261  0.13348  0.93170  1.0000
  N   N6        1.0  0.26739  0.86652  0.43170  1.0000
  N   N7        1.0  0.40087  0.13349  0.56830  1.0000
  N   N8        1.0  0.09913  0.86652  0.06831  1.0000
  N   N9        1.0  0.53784  0.80531  0.15603  1.0000
  N   N10       1.0  0.96216  0.19468  0.65603  1.0000
  N   N11       1.0  0.76748  0.80531  0.34397  1.0000
  N   N12       1.0  0.73252  0.19468  0.84397  1.0000
  N   N13       1.0  0.46216  0.19469  0.84397  1.0000
  N   N14       1.0  0.03784  0.80532  0.34397  1.0000
  N   N15       1.0  0.23252  0.19469  0.65603  1.0000
  N   N16       1.0  0.26747  0.80531  0.15603  1.0000
  N   N17       1.0  0.11374  0.22748  0.12490  1.0000
  N   N18       1.0  0.38626  0.77253  0.62489  1.0000
  N   N19       1.0  0.61374  0.22748  0.37511  1.0000
  N   N20       1.0  0.88625  0.77251  0.87509  1.0000
