data_image0
_chemical_formula_structural       Sn4H44C20S2O8
_chemical_formula_sum              "Sn4 H44 C20 S2 O8"
_cell_length_a       8.03636
_cell_length_b       9.73299
_cell_length_c       11.1699
_cell_angle_alpha    98.5132
_cell_angle_beta     100.414
_cell_angle_gamma    109.431

_space_group_name_H-M_alt    "P 1"
_space_group_IT_number       1

loop_
  _space_group_symop_operation_xyz
  'x, y, z'

loop_
  _atom_site_type_symbol
  _atom_site_label
  _atom_site_symmetry_multiplicity
  _atom_site_fract_x
  _atom_site_fract_y
  _atom_site_fract_z
  _atom_site_occupancy
  Sn  Sn1       1.0  0.62301  0.97290  0.29116  1.0000
  Sn  Sn2       1.0  0.37698  0.02710  0.70885  1.0000
  Sn  Sn3       1.0  0.19123  0.40288  0.22836  1.0000
  Sn  Sn4       1.0  0.80878  0.59712  0.77164  1.0000
  H   H1        1.0  0.05692  0.84440  0.39801  1.0000
  H   H2        1.0  0.94309  0.15560  0.60199  1.0000
  H   H3        1.0  0.98892  0.64541  0.35258  1.0000
  H   H4        1.0  0.01109  0.35460  0.64742  1.0000
  H   H5        1.0  0.73104  0.26800  0.28622  1.0000
  H   H6        1.0  0.26896  0.73200  0.71378  1.0000
  H   H7        1.0  0.72779  0.24936  0.44212  1.0000
  H   H8        1.0  0.27220  0.75064  0.55788  1.0000
  H   H9        1.0  0.51865  0.20993  0.33024  1.0000
  H   H10       1.0  0.48135  0.79007  0.66976  1.0000
  H   H11       1.0  0.84546  0.90249  0.46399  1.0000
  H   H12       1.0  0.15454  0.09751  0.53601  1.0000
  H   H13       1.0  0.63939  0.74370  0.39456  1.0000
  H   H14       1.0  0.36060  0.25630  0.60544  1.0000
  H   H15       1.0  0.64290  0.89210  0.51302  1.0000
  H   H16       1.0  0.35710  0.10790  0.48698  1.0000
  H   H17       1.0  0.40374  0.88655  0.05881  1.0000
  H   H18       1.0  0.59626  0.11344  0.94119  1.0000
  H   H19       1.0  0.50324  0.75098  0.08236  1.0000
  H   H20       1.0  0.49677  0.24901  0.91765  1.0000
  H   H21       1.0  0.63130  0.92194  0.04528  1.0000
  H   H22       1.0  0.36870  0.07806  0.95473  1.0000
  H   H23       1.0  0.20216  0.32062  0.44931  1.0000
  H   H24       1.0  0.79784  0.67938  0.55069  1.0000
  H   H25       1.0  0.09508  0.45429  0.44566  1.0000
  H   H26       1.0  0.90491  0.54571  0.55433  1.0000
  H   H27       1.0  0.33792  0.51665  0.47823  1.0000
  H   H28       1.0  0.66208  0.48336  0.52177  1.0000
  H   H29       1.0  0.12680  0.89698  0.11444  1.0000
  H   H30       1.0  0.87320  0.10302  0.88556  1.0000
  H   H31       1.0  0.90893  0.88254  0.03595  1.0000
  H   H32       1.0  0.09108  0.11746  0.96405  1.0000
  H   H33       1.0  0.54548  0.53459  0.22595  1.0000
  H   H34       1.0  0.45452  0.46542  0.77404  1.0000
  H   H35       1.0  0.40533  0.48528  0.07122  1.0000
  H   H36       1.0  0.59467  0.51473  0.92878  1.0000
  H   H37       1.0  0.45784  0.34408  0.13900  1.0000
  H   H38       1.0  0.54216  0.65593  0.86100  1.0000
  H   H39       1.0  0.94915  0.35932  0.00978  1.0000
  H   H40       1.0  0.05085  0.64068  0.99022  1.0000
  H   H41       1.0  0.87812  0.44431  0.13320  1.0000
  H   H42       1.0  0.12189  0.55568  0.86680  1.0000
  H   H43       1.0  0.83792  0.24865  0.10770  1.0000
  H   H44       1.0  0.16209  0.75134  0.89230  1.0000
  C   C1        1.0  0.04563  0.75135  0.32448  1.0000
  C   C2        1.0  0.95437  0.24865  0.67552  1.0000
  C   C3        1.0  0.65406  0.20334  0.34384  1.0000
  C   C4        1.0  0.34593  0.79666  0.65617  1.0000
  C   C5        1.0  0.23061  0.77329  0.29838  1.0000
  C   C6        1.0  0.76939  0.22671  0.70161  1.0000
  C   C7        1.0  0.69706  0.86436  0.43346  1.0000
  C   C8        1.0  0.30293  0.13564  0.56654  1.0000
  C   C9        1.0  0.53028  0.87068  0.09537  1.0000
  C   C10       1.0  0.46972  0.12932  0.90463  1.0000
  C   C11       1.0  0.21013  0.42693  0.42490  1.0000
  C   C12       1.0  0.78987  0.57308  0.57510  1.0000
  C   C13       1.0  0.99598  0.89810  0.12928  1.0000
  C   C14       1.0  0.00402  0.10190  0.87072  1.0000
  C   C15       1.0  0.42970  0.44670  0.15776  1.0000
  C   C16       1.0  0.57030  0.55330  0.84224  1.0000
  C   C17       1.0  0.93232  0.35851  0.10491  1.0000
  C   C18       1.0  0.06768  0.64149  0.89509  1.0000
  C   C19       1.0  0.02767  0.05282  0.20435  1.0000
  C   C20       1.0  0.97233  0.94718  0.79566  1.0000
  S   S1        1.0  0.87936  0.73692  0.18428  1.0000
  S   S2        1.0  0.12063  0.26308  0.81572  1.0000
  O   O1        1.0  0.33655  0.91041  0.31752  1.0000
  O   O2        1.0  0.66345  0.08960  0.68248  1.0000
  O   O3        1.0  0.27278  0.66454  0.25736  1.0000
  O   O4        1.0  0.72721  0.33547  0.74263  1.0000
  O   O5        1.0  0.93166  0.07454  0.27733  1.0000
  O   O6        1.0  0.06834  0.92545  0.72266  1.0000
  O   O7        1.0  0.15682  0.15792  0.18198  1.0000
  O   O8        1.0  0.84319  0.84208  0.81803  1.0000
