data_image0
_chemical_formula_structural       Cu4H32C48Br4N8
_chemical_formula_sum              "Cu4 H32 C48 Br4 N8"
_cell_length_a       7.24603
_cell_length_b       8.45168
_cell_length_c       17.6088
_cell_angle_alpha    89.9996
_cell_angle_beta     89.9998
_cell_angle_gamma    93.3534

_space_group_name_H-M_alt    "P 1"
_space_group_IT_number       1

loop_
  _space_group_symop_operation_xyz
  'x, y, z'

loop_
  _atom_site_type_symbol
  _atom_site_label
  _atom_site_symmetry_multiplicity
  _atom_site_fract_x
  _atom_site_fract_y
  _atom_site_fract_z
  _atom_site_occupancy
  Cu  Cu1       1.0  0.57503  0.30329  0.29484  1.0000
  Cu  Cu2       1.0  0.07503  0.30328  0.20517  1.0000
  Cu  Cu3       1.0  0.42498  0.69672  0.70517  1.0000
  Cu  Cu4       1.0  0.92497  0.69671  0.79483  1.0000
  H   H1        1.0  0.27239  0.32480  0.60389  1.0000
  H   H2        1.0  0.77240  0.32483  0.89611  1.0000
  H   H3        1.0  0.72759  0.67517  0.39611  1.0000
  H   H4        1.0  0.22760  0.67519  0.10389  1.0000
  H   H5        1.0  0.61031  0.72637  0.11082  1.0000
  H   H6        1.0  0.11029  0.72634  0.38917  1.0000
  H   H7        1.0  0.38972  0.27366  0.88919  1.0000
  H   H8        1.0  0.88970  0.27363  0.61081  1.0000
  H   H9        1.0  0.49715  0.22129  0.13731  1.0000
  H   H10       1.0  0.99710  0.22125  0.36269  1.0000
  H   H11       1.0  0.50290  0.77874  0.86270  1.0000
  H   H12       1.0  0.00286  0.77871  0.63730  1.0000
  H   H13       1.0  0.56201  0.18174  0.57619  1.0000
  H   H14       1.0  0.06201  0.18177  0.92381  1.0000
  H   H15       1.0  0.43797  0.81822  0.42381  1.0000
  H   H16       1.0  0.93798  0.81825  0.07618  1.0000
  H   H17       1.0  0.66429  0.97197  0.32517  1.0000
  H   H18       1.0  0.16432  0.97198  0.17483  1.0000
  H   H19       1.0  0.33569  0.02804  0.67484  1.0000
  H   H20       1.0  0.83572  0.02804  0.82516  1.0000
  H   H21       1.0  0.68314  0.18013  0.44395  1.0000
  H   H22       1.0  0.18315  0.18014  0.05605  1.0000
  H   H23       1.0  0.31685  0.81986  0.55605  1.0000
  H   H24       1.0  0.81686  0.81987  0.94394  1.0000
  H   H25       1.0  0.68437  0.72224  0.24947  1.0000
  H   H26       1.0  0.18439  0.72223  0.25052  1.0000
  H   H27       1.0  0.31561  0.27777  0.75054  1.0000
  H   H28       1.0  0.81565  0.27777  0.74946  1.0000
  H   H29       1.0  0.25089  0.43551  0.36420  1.0000
  H   H30       1.0  0.75092  0.43553  0.13580  1.0000
  H   H31       1.0  0.74910  0.56450  0.63580  1.0000
  H   H32       1.0  0.24912  0.56449  0.86420  1.0000
  C   C1        1.0  0.32779  0.31659  0.54654  1.0000
  C   C2        1.0  0.82781  0.31662  0.95346  1.0000
  C   C3        1.0  0.67219  0.68338  0.45346  1.0000
  C   C4        1.0  0.17220  0.68340  0.04654  1.0000
  C   C5        1.0  0.60479  0.83332  0.14511  1.0000
  C   C6        1.0  0.10477  0.83329  0.35489  1.0000
  C   C7        1.0  0.39523  0.16671  0.85490  1.0000
  C   C8        1.0  0.89522  0.16668  0.64509  1.0000
  C   C9        1.0  0.54199  0.10937  0.15956  1.0000
  C   C10       1.0  0.04197  0.10934  0.34044  1.0000
  C   C11       1.0  0.45803  0.89065  0.84045  1.0000
  C   C12       1.0  0.95801  0.89063  0.65955  1.0000
  C   C13       1.0  0.48786  0.23938  0.53109  1.0000
  C   C14       1.0  0.98787  0.23941  0.96891  1.0000
  C   C15       1.0  0.51211  0.76059  0.46891  1.0000
  C   C16       1.0  0.01213  0.76062  0.03109  1.0000
  C   C17       1.0  0.63269  0.96927  0.26465  1.0000
  C   C18       1.0  0.13271  0.96927  0.23536  1.0000
  C   C19       1.0  0.36729  0.03074  0.73537  1.0000
  C   C20       1.0  0.86731  0.03073  0.76463  1.0000
  C   C21       1.0  0.55604  0.23735  0.45723  1.0000
  C   C22       1.0  0.05606  0.23737  0.04277  1.0000
  C   C23       1.0  0.44394  0.76263  0.54277  1.0000
  C   C24       1.0  0.94396  0.76264  0.95722  1.0000
  C   C25       1.0  0.64429  0.83120  0.22243  1.0000
  C   C26       1.0  0.14430  0.83119  0.27757  1.0000
  C   C27       1.0  0.35570  0.16881  0.77758  1.0000
  C   C28       1.0  0.85571  0.16880  0.72241  1.0000
  C   C29       1.0  0.31578  0.38121  0.41290  1.0000
  C   C30       1.0  0.81580  0.38124  0.08710  1.0000
  C   C31       1.0  0.68421  0.61878  0.58710  1.0000
  C   C32       1.0  0.18422  0.61878  0.91290  1.0000
  C   C33       1.0  0.07212  0.46697  0.49634  1.0000
  C   C34       1.0  0.57211  0.46697  0.00367  1.0000
  C   C35       1.0  0.92788  0.53303  0.50367  1.0000
  C   C36       1.0  0.42789  0.53302  0.99634  1.0000
  C   C37       1.0  0.55421  0.97637  0.11207  1.0000
  C   C38       1.0  0.05417  0.97634  0.38792  1.0000
  C   C39       1.0  0.44583  0.02365  0.88794  1.0000
  C   C40       1.0  0.94579  0.02362  0.61206  1.0000
  C   C41       1.0  0.51594  0.99099  0.03371  1.0000
  C   C42       1.0  0.01586  0.99095  0.46629  1.0000
  C   C43       1.0  0.48414  0.00905  0.96630  1.0000
  C   C44       1.0  0.98405  0.00900  0.53370  1.0000
  C   C45       1.0  0.23765  0.38888  0.48585  1.0000
  C   C46       1.0  0.73767  0.38890  0.01415  1.0000
  C   C47       1.0  0.76234  0.61111  0.51415  1.0000
  C   C48       1.0  0.26234  0.61111  0.98585  1.0000
  Br  Br1       1.0  0.86460  0.46750  0.28817  1.0000
  Br  Br2       1.0  0.36460  0.46751  0.21184  1.0000
  Br  Br3       1.0  0.13540  0.53248  0.71185  1.0000
  Br  Br4       1.0  0.63539  0.53250  0.78816  1.0000
  N   N1        1.0  0.47190  0.30769  0.39851  1.0000
  N   N2        1.0  0.97192  0.30771  0.10149  1.0000
  N   N3        1.0  0.52809  0.69231  0.60149  1.0000
  N   N4        1.0  0.02810  0.69231  0.89851  1.0000
  N   N5        1.0  0.58161  0.10717  0.23409  1.0000
  N   N6        1.0  0.08162  0.10716  0.26592  1.0000
  N   N7        1.0  0.41839  0.89284  0.76593  1.0000
  N   N8        1.0  0.91839  0.89283  0.73408  1.0000
