data_image0
_chemical_formula_structural       CuH20C22N4O12
_chemical_formula_sum              "Cu1 H20 C22 N4 O12"
_cell_length_a       7.46537
_cell_length_b       8.71665
_cell_length_c       11.1805
_cell_angle_alpha    70.3505
_cell_angle_beta     78.9777
_cell_angle_gamma    80.0052

_space_group_name_H-M_alt    "P 1"
_space_group_IT_number       1

loop_
  _space_group_symop_operation_xyz
  'x, y, z'

loop_
  _atom_site_type_symbol
  _atom_site_label
  _atom_site_symmetry_multiplicity
  _atom_site_fract_x
  _atom_site_fract_y
  _atom_site_fract_z
  _atom_site_occupancy
  Cu  Cu1       1.0  1.00000  0.00000  0.50000  1.0000
  H   H1        1.0  0.75518  0.16500  0.67474  1.0000
  H   H2        1.0  0.24482  0.83500  0.32526  1.0000
  H   H3        1.0  0.95368  0.23243  0.80384  1.0000
  H   H4        1.0  0.04631  0.76757  0.19616  1.0000
  H   H5        1.0  0.86285  0.60705  0.26888  1.0000
  H   H6        1.0  0.13716  0.39295  0.73112  1.0000
  H   H7        1.0  0.67633  0.67843  0.45634  1.0000
  H   H8        1.0  0.32368  0.32157  0.54367  1.0000
  H   H9        1.0  0.00643  0.31787  0.29673  1.0000
  H   H10       1.0  0.99358  0.68212  0.70327  1.0000
  H   H11       1.0  0.43460  0.62005  0.77610  1.0000
  H   H12       1.0  0.56540  0.37994  0.22391  1.0000
  H   H13       1.0  0.59534  0.70133  0.64205  1.0000
  H   H14       1.0  0.40466  0.29867  0.35796  1.0000
  H   H15       1.0  0.41346  0.02859  0.39380  1.0000
  H   H16       1.0  0.58653  0.97142  0.60620  1.0000
  H   H17       1.0  0.31972  0.04605  0.53070  1.0000
  H   H18       1.0  0.68026  0.95395  0.46930  1.0000
  H   H19       1.0  0.23142  0.46383  0.08119  1.0000
  H   H20       1.0  0.76862  0.53618  0.91882  1.0000
  C   C1        1.0  0.08410  0.84715  0.99045  1.0000
  C   C2        1.0  0.91589  0.15285  0.00954  1.0000
  C   C3        1.0  0.06329  0.97950  0.87739  1.0000
  C   C4        1.0  0.93670  0.02051  0.12261  1.0000
  C   C5        1.0  0.57970  0.44680  0.70030  1.0000
  C   C6        1.0  0.42030  0.55319  0.29970  1.0000
  C   C7        1.0  0.78251  0.26666  0.58736  1.0000
  C   C8        1.0  0.21749  0.73333  0.41265  1.0000
  C   C9        1.0  0.70531  0.42597  0.58273  1.0000
  C   C10       1.0  0.29470  0.57402  0.41727  1.0000
  C   C11       1.0  0.97679  0.12979  0.88955  1.0000
  C   C12       1.0  0.02320  0.87021  0.11044  1.0000
  C   C13       1.0  0.84473  0.51431  0.36228  1.0000
  C   C14       1.0  0.15528  0.48569  0.63772  1.0000
  C   C15       1.0  0.16404  0.68274  0.98196  1.0000
  C   C16       1.0  0.83597  0.31727  0.01804  1.0000
  C   C17       1.0  0.12630  0.97333  0.74163  1.0000
  C   C18       1.0  0.87369  0.02668  0.25837  1.0000
  C   C19       1.0  0.73779  0.55246  0.46718  1.0000
  C   C20       1.0  0.26221  0.44754  0.53282  1.0000
  C   C21       1.0  0.92186  0.35352  0.37577  1.0000
  C   C22       1.0  0.07814  0.64647  0.62423  1.0000
  N   N1        1.0  0.89102  0.23153  0.48701  1.0000
  N   N2        1.0  0.10898  0.76847  0.51299  1.0000
  N   N3        1.0  0.53729  0.60110  0.70606  1.0000
  N   N4        1.0  0.46272  0.39889  0.29395  1.0000
  O   O1        1.0  0.17112  0.56569  0.09730  1.0000
  O   O2        1.0  0.82890  0.43432  0.90269  1.0000
  O   O3        1.0  0.99696  0.95384  0.68913  1.0000
  O   O4        1.0  0.00303  0.04615  0.31087  1.0000
  O   O5        1.0  0.51778  0.32508  0.78356  1.0000
  O   O6        1.0  0.48224  0.67491  0.21644  1.0000
  O   O7        1.0  0.31932  0.09434  0.43535  1.0000
  O   O8        1.0  0.68067  0.90567  0.56464  1.0000
  O   O9        1.0  0.21535  0.65182  0.88053  1.0000
  O   O10       1.0  0.78464  0.34818  0.11947  1.0000
  O   O11       1.0  0.28698  0.00155  0.68922  1.0000
  O   O12       1.0  0.71300  0.99846  0.31077  1.0000
