data_image0
_chemical_formula_structural       Zn2H34C44N10O12
_chemical_formula_sum              "Zn2 H34 C44 N10 O12"
_cell_length_a       9.3663
_cell_length_b       10.1385
_cell_length_c       12.1536
_cell_angle_alpha    103.111
_cell_angle_beta     108.925
_cell_angle_gamma    98.6518

_space_group_name_H-M_alt    "P 1"
_space_group_IT_number       1

loop_
  _space_group_symop_operation_xyz
  'x, y, z'

loop_
  _atom_site_type_symbol
  _atom_site_label
  _atom_site_symmetry_multiplicity
  _atom_site_fract_x
  _atom_site_fract_y
  _atom_site_fract_z
  _atom_site_occupancy
  Zn  Zn1       1.0  0.21458  0.92184  0.83005  1.0000
  Zn  Zn2       1.0  0.78542  0.07816  0.16995  1.0000
  H   H1        1.0  0.18513  0.36095  0.04684  1.0000
  H   H2        1.0  0.81487  0.63905  0.95316  1.0000
  H   H3        1.0  0.41718  0.42237  0.24270  1.0000
  H   H4        1.0  0.58282  0.57763  0.75730  1.0000
  H   H5        1.0  0.63660  0.62555  0.28744  1.0000
  H   H6        1.0  0.36340  0.37445  0.71256  1.0000
  H   H7        1.0  0.31005  0.66741  0.67511  1.0000
  H   H8        1.0  0.68995  0.33259  0.32489  1.0000
  H   H9        1.0  0.97970  0.89711  0.56141  1.0000
  H   H10       1.0  0.02030  0.10289  0.43859  1.0000
  H   H11       1.0  0.96919  0.69972  0.35712  1.0000
  H   H12       1.0  0.03081  0.30028  0.64288  1.0000
  H   H13       1.0  0.14980  0.54533  0.32595  1.0000
  H   H14       1.0  0.85020  0.45467  0.67405  1.0000
  H   H15       1.0  0.10116  0.43490  0.40837  1.0000
  H   H16       1.0  0.89884  0.56510  0.59163  1.0000
  H   H17       1.0  0.27770  0.29851  0.44516  1.0000
  H   H18       1.0  0.72230  0.70149  0.55484  1.0000
  H   H19       1.0  0.45437  0.73353  0.49110  1.0000
  H   H20       1.0  0.54563  0.26647  0.50890  1.0000
  H   H21       1.0  0.98487  0.13518  0.78759  1.0000
  H   H22       1.0  0.01513  0.86482  0.21241  1.0000
  H   H23       1.0  0.94069  0.76143  0.88263  1.0000
  H   H24       1.0  0.05931  0.23857  0.11737  1.0000
  H   H25       1.0  0.65856  0.84361  0.84323  1.0000
  H   H26       1.0  0.34144  0.15639  0.15677  1.0000
  H   H27       1.0  0.72668  0.19726  0.79634  1.0000
  H   H28       1.0  0.27332  0.80274  0.20366  1.0000
  H   H29       1.0  0.58784  0.07100  0.81145  1.0000
  H   H30       1.0  0.41216  0.92900  0.18855  1.0000
  H   H31       1.0  0.78553  0.02746  0.58133  1.0000
  H   H32       1.0  0.21447  0.97254  0.41867  1.0000
  H   H33       1.0  0.35712  0.03903  0.63959  1.0000
  H   H34       1.0  0.64288  0.96096  0.36041  1.0000
  C   C1        1.0  0.52449  0.68174  0.12731  1.0000
  C   C2        1.0  0.47551  0.31826  0.87269  1.0000
  C   C3        1.0  0.39314  0.65155  0.01959  1.0000
  C   C4        1.0  0.60686  0.34845  0.98041  1.0000
  C   C5        1.0  0.27484  0.53291  0.99444  1.0000
  C   C6        1.0  0.72516  0.46709  0.00556  1.0000
  C   C7        1.0  0.28070  0.45151  0.07347  1.0000
  C   C8        1.0  0.71930  0.54849  0.92653  1.0000
  C   C9        1.0  0.40990  0.48539  0.18058  1.0000
  C   C10       1.0  0.59010  0.51461  0.81942  1.0000
  C   C11       1.0  0.53208  0.59859  0.20567  1.0000
  C   C12       1.0  0.46792  0.40141  0.79433  1.0000
  C   C13       1.0  0.65821  0.80686  0.16604  1.0000
  C   C14       1.0  0.34179  0.19314  0.83396  1.0000
  C   C15       1.0  0.37317  0.74756  0.93913  1.0000
  C   C16       1.0  0.62683  0.25244  0.06087  1.0000
  C   C17       1.0  0.21896  0.70264  0.61655  1.0000
  C   C18       1.0  0.78104  0.29736  0.38345  1.0000
  C   C19       1.0  0.04580  0.81874  0.55429  1.0000
  C   C20       1.0  0.95420  0.18126  0.44571  1.0000
  C   C21       1.0  0.04065  0.72245  0.45248  1.0000
  C   C22       1.0  0.95935  0.27755  0.54752  1.0000
  C   C23       1.0  0.18119  0.53122  0.41712  1.0000
  C   C24       1.0  0.81881  0.46877  0.58288  1.0000
  C   C25       1.0  0.34681  0.51794  0.46393  1.0000
  C   C26       1.0  0.65319  0.48206  0.53607  1.0000
  C   C27       1.0  0.37534  0.38729  0.46928  1.0000
  C   C28       1.0  0.62466  0.61271  0.53072  1.0000
  C   C29       1.0  0.47340  0.63088  0.49522  1.0000
  C   C30       1.0  0.52660  0.36912  0.50478  1.0000
  C   C31       1.0  0.93413  0.04346  0.80641  1.0000
  C   C32       1.0  0.06587  0.95654  0.19359  1.0000
  C   C33       1.0  0.90519  0.84946  0.85505  1.0000
  C   C34       1.0  0.09481  0.15053  0.14495  1.0000
  C   C35       1.0  0.76654  0.88811  0.83521  1.0000
  C   C36       1.0  0.23346  0.11189  0.16479  1.0000
  C   C37       1.0  0.66827  0.08554  0.76440  1.0000
  C   C38       1.0  0.33173  0.91446  0.23560  1.0000
  C   C39       1.0  0.58223  0.03873  0.62753  1.0000
  C   C40       1.0  0.41777  0.96127  0.37247  1.0000
  C   C41       1.0  0.65983  0.01500  0.54663  1.0000
  C   C42       1.0  0.34018  0.98500  0.45337  1.0000
  C   C43       1.0  0.42092  0.02296  0.57898  1.0000
  C   C44       1.0  0.57909  0.97704  0.42103  1.0000
  N   N1        1.0  0.13926  0.48849  0.88087  1.0000
  N   N2        1.0  0.86074  0.51151  0.11913  1.0000
  N   N3        1.0  0.15742  0.80550  0.65578  1.0000
  N   N4        1.0  0.84258  0.19450  0.34422  1.0000
  N   N5        1.0  0.15121  0.65017  0.49364  1.0000
  N   N6        1.0  0.84879  0.34983  0.50636  1.0000
  N   N7        1.0  0.00828  0.94692  0.83667  1.0000
  N   N8        1.0  0.99172  0.05308  0.16333  1.0000
  N   N9        1.0  0.78752  0.01072  0.80427  1.0000
  N   N10       1.0  0.21248  0.98928  0.19573  1.0000
  O   O1        1.0  0.79126  0.80430  0.23193  1.0000
  O   O2        1.0  0.20874  0.19570  0.76807  1.0000
  O   O3        1.0  0.62062  0.91175  0.12983  1.0000
  O   O4        1.0  0.37938  0.08825  0.87017  1.0000
  O   O5        1.0  0.44912  0.75395  0.87265  1.0000
  O   O6        1.0  0.55088  0.24605  0.12735  1.0000
  O   O7        1.0  0.26896  0.81529  0.94804  1.0000
  O   O8        1.0  0.73104  0.18471  0.05196  1.0000
  O   O9        1.0  0.15109  0.52878  0.79421  1.0000
  O   O10       1.0  0.84891  0.47123  0.20579  1.0000
  O   O11       1.0  0.01858  0.41082  0.87484  1.0000
  O   O12       1.0  0.98142  0.58918  0.12516  1.0000
