data_image0
_chemical_formula_structural       Zn2H44C46N4O12
_chemical_formula_sum              "Zn2 H44 C46 N4 O12"
_cell_length_a       9.87244
_cell_length_b       10.5327
_cell_length_c       12.121
_cell_angle_alpha    101.364
_cell_angle_beta     112.132
_cell_angle_gamma    107.094

_space_group_name_H-M_alt    "P 1"
_space_group_IT_number       1

loop_
  _space_group_symop_operation_xyz
  'x, y, z'

loop_
  _atom_site_type_symbol
  _atom_site_label
  _atom_site_symmetry_multiplicity
  _atom_site_fract_x
  _atom_site_fract_y
  _atom_site_fract_z
  _atom_site_occupancy
  Zn  Zn1       1.0  0.17028  0.27157  0.54263  1.0000
  Zn  Zn2       1.0  0.82971  0.72842  0.45737  1.0000
  H   H1        1.0  0.41626  0.12056  0.80300  1.0000
  H   H2        1.0  0.58374  0.87944  0.19700  1.0000
  H   H3        1.0  0.56761  0.24516  0.78465  1.0000
  H   H4        1.0  0.43239  0.75484  0.21535  1.0000
  H   H5        1.0  0.35489  0.80537  0.63318  1.0000
  H   H6        1.0  0.64511  0.19463  0.36682  1.0000
  H   H7        1.0  0.08127  0.33169  0.89312  1.0000
  H   H8        1.0  0.91873  0.66831  0.10688  1.0000
  H   H9        1.0  0.79263  0.86731  0.12502  1.0000
  H   H10       1.0  0.20737  0.13269  0.87498  1.0000
  H   H11       1.0  0.29322  0.50389  0.80559  1.0000
  H   H12       1.0  0.70678  0.49611  0.19441  1.0000
  H   H13       1.0  0.59494  0.30614  0.98892  1.0000
  H   H14       1.0  0.40506  0.69386  0.01108  1.0000
  H   H15       1.0  0.98300  0.99011  0.35401  1.0000
  H   H16       1.0  0.01700  0.00989  0.64599  1.0000
  H   H17       1.0  0.02561  0.38605  0.32208  1.0000
  H   H18       1.0  0.97440  0.61395  0.67792  1.0000
  H   H19       1.0  0.51822  0.40722  0.63020  1.0000
  H   H20       1.0  0.48178  0.59278  0.36980  1.0000
  H   H21       1.0  0.72325  0.16677  0.59229  1.0000
  H   H22       1.0  0.27675  0.83323  0.40771  1.0000
  H   H23       1.0  0.86567  0.17209  0.73710  1.0000
  H   H24       1.0  0.13433  0.82791  0.26290  1.0000
  H   H25       1.0  0.72774  0.65109  0.71387  1.0000
  H   H26       1.0  0.27226  0.34891  0.28613  1.0000
  H   H27       1.0  0.61798  0.96637  0.69935  1.0000
  H   H28       1.0  0.38202  0.03363  0.30065  1.0000
  H   H29       1.0  0.75730  0.90043  0.68431  1.0000
  H   H30       1.0  0.24270  0.09957  0.31569  1.0000
  H   H31       1.0  0.75195  0.52875  0.87919  1.0000
  H   H32       1.0  0.24804  0.47126  0.12081  1.0000
  H   H33       1.0  0.59618  0.89059  0.92851  1.0000
  H   H34       1.0  0.40382  0.10941  0.07149  1.0000
  H   H35       1.0  0.63319  0.05849  0.91006  1.0000
  H   H36       1.0  0.36681  0.94151  0.08994  1.0000
  H   H37       1.0  0.84419  0.27837  0.09176  1.0000
  H   H38       1.0  0.15581  0.72163  0.90825  1.0000
  H   H39       1.0  0.83985  0.89007  0.90882  1.0000
  H   H40       1.0  0.16015  0.10993  0.09118  1.0000
  H   H41       1.0  0.88399  0.06127  0.89957  1.0000
  H   H42       1.0  0.11601  0.93873  0.10043  1.0000
  H   H43       1.0  0.15853  0.55468  0.55856  1.0000
  H   H44       1.0  0.84147  0.44532  0.44144  1.0000
  C   C1        1.0  0.43721  0.39340  0.88343  1.0000
  C   C2        1.0  0.56279  0.60660  0.11657  1.0000
  C   C3        1.0  0.43767  0.19175  0.75030  1.0000
  C   C4        1.0  0.56233  0.80825  0.24971  1.0000
  C   C5        1.0  0.55863  0.75019  0.68287  1.0000
  C   C6        1.0  0.44137  0.24981  0.31713  1.0000
  C   C7        1.0  0.39537  0.71980  0.63674  1.0000
  C   C8        1.0  0.60463  0.28020  0.36326  1.0000
  C   C9        1.0  0.90246  0.41921  0.86975  1.0000
  C   C10       1.0  0.09754  0.58079  0.13025  1.0000
  C   C11       1.0  0.04264  0.40309  0.93899  1.0000
  C   C12       1.0  0.95736  0.59691  0.06100  1.0000
  C   C13       1.0  0.96365  0.29728  0.64231  1.0000
  C   C14       1.0  0.03635  0.70272  0.35769  1.0000
  C   C15       1.0  0.84203  0.98274  0.16466  1.0000
  C   C16       1.0  0.15797  0.01726  0.83534  1.0000
  C   C17       1.0  0.38509  0.50328  0.89061  1.0000
  C   C18       1.0  0.61491  0.49672  0.10939  1.0000
  C   C19       1.0  0.55181  0.38995  0.99323  1.0000
  C   C20       1.0  0.44819  0.61005  0.00676  1.0000
  C   C21       1.0  0.94745  0.05066  0.29339  1.0000
  C   C22       1.0  0.05255  0.94934  0.70661  1.0000
  C   C23       1.0  0.97350  0.27112  0.27579  1.0000
  C   C24       1.0  0.02651  0.72888  0.72421  1.0000
  C   C25       1.0  0.79996  0.06194  0.08736  1.0000
  C   C26       1.0  0.20004  0.93806  0.91264  1.0000
  C   C27       1.0  0.48689  0.49846  0.63459  1.0000
  C   C28       1.0  0.51311  0.50154  0.36541  1.0000
  C   C29       1.0  0.83364  0.23781  0.68004  1.0000
  C   C30       1.0  0.16636  0.76218  0.31996  1.0000
  C   C31       1.0  0.60286  0.63496  0.68098  1.0000
  C   C32       1.0  0.39713  0.36504  0.31902  1.0000
  C   C33       1.0  0.68035  0.89921  0.73043  1.0000
  C   C34       1.0  0.31965  0.10079  0.26957  1.0000
  C   C35       1.0  0.86162  0.51694  0.93209  1.0000
  C   C36       1.0  0.13839  0.48306  0.06791  1.0000
  C   C37       1.0  0.69141  0.99092  0.94713  1.0000
  C   C38       1.0  0.30859  0.00908  0.05286  1.0000
  C   C39       1.0  0.86932  0.20956  0.14606  1.0000
  C   C40       1.0  0.13069  0.79044  0.85394  1.0000
  C   C41       1.0  0.78463  0.96110  0.87523  1.0000
  C   C42       1.0  0.21537  0.03890  0.12477  1.0000
  C   C43       1.0  0.28561  0.58080  0.59292  1.0000
  C   C44       1.0  0.71439  0.41920  0.40709  1.0000
  C   C45       1.0  0.36242  0.10170  0.61029  1.0000
  C   C46       1.0  0.63758  0.89830  0.38971  1.0000
  N   N1        1.0  0.01240  0.19307  0.34862  1.0000
  N   N2        1.0  0.98761  0.80693  0.65138  1.0000
  N   N3        1.0  0.32994  0.47118  0.59197  1.0000
  N   N4        1.0  0.67006  0.52882  0.40803  1.0000
  O   O1        1.0  0.37084  0.29317  0.76512  1.0000
  O   O2        1.0  0.62916  0.70683  0.23488  1.0000
  O   O3        1.0  0.79779  0.34299  0.74344  1.0000
  O   O4        1.0  0.20221  0.65701  0.25656  1.0000
  O   O5        1.0  0.01985  0.20734  0.61079  1.0000
  O   O6        1.0  0.98015  0.79266  0.38921  1.0000
  O   O7        1.0  0.27192  0.13743  0.52527  1.0000
  O   O8        1.0  0.72808  0.86257  0.47473  1.0000
  O   O9        1.0  0.00501  0.42002  0.63928  1.0000
  O   O10       1.0  0.99499  0.57998  0.36072  1.0000
  O   O11       1.0  0.39944  0.99976  0.58890  1.0000
  O   O12       1.0  0.60056  0.00024  0.41110  1.0000
