data_image0
_chemical_formula_structural       NiH16C22N4O10
_chemical_formula_sum              "Ni1 H16 C22 N4 O10"
_cell_length_a       8.75816
_cell_length_b       7.70308
_cell_length_c       8.25635
_cell_angle_alpha    84.0151
_cell_angle_beta     82.2468
_cell_angle_gamma    87.3558

_space_group_name_H-M_alt    "P 1"
_space_group_IT_number       1

loop_
  _space_group_symop_operation_xyz
  'x, y, z'

loop_
  _atom_site_type_symbol
  _atom_site_label
  _atom_site_symmetry_multiplicity
  _atom_site_fract_x
  _atom_site_fract_y
  _atom_site_fract_z
  _atom_site_occupancy
  Ni  Ni1       1.0  0.99999  0.50000  0.00001  1.0000
  H   H1        1.0  0.25441  0.09604  0.04289  1.0000
  H   H2        1.0  0.74559  0.90398  0.95709  1.0000
  H   H3        1.0  0.47764  0.83523  0.80020  1.0000
  H   H4        1.0  0.52235  0.16477  0.19981  1.0000
  H   H5        1.0  0.42020  0.60944  0.30462  1.0000
  H   H6        1.0  0.57980  0.39054  0.69539  1.0000
  H   H7        1.0  0.57563  0.77774  0.07907  1.0000
  H   H8        1.0  0.42437  0.22225  0.92094  1.0000
  H   H9        1.0  0.22623  0.71093  0.76655  1.0000
  H   H10       1.0  0.77376  0.28907  0.23346  1.0000
  H   H11       1.0  0.24622  0.43236  0.47939  1.0000
  H   H12       1.0  0.75378  0.56763  0.52060  1.0000
  H   H13       1.0  0.07384  0.32501  0.49378  1.0000
  H   H14       1.0  0.92616  0.67499  0.50623  1.0000
  H   H15       1.0  0.24958  0.03053  0.45486  1.0000
  H   H16       1.0  0.75043  0.96947  0.54514  1.0000
  C   C1        1.0  0.14190  0.05580  0.02213  1.0000
  C   C2        1.0  0.85810  0.94421  0.97786  1.0000
  C   C3        1.0  0.24198  0.56601  0.15621  1.0000
  C   C4        1.0  0.75801  0.43398  0.84380  1.0000
  C   C5        1.0  0.09943  0.07909  0.86411  1.0000
  C   C6        1.0  0.90057  0.92092  0.13588  1.0000
  C   C7        1.0  0.21968  0.14585  0.72392  1.0000
  C   C8        1.0  0.78032  0.85415  0.27606  1.0000
  C   C9        1.0  0.41424  0.75769  0.90344  1.0000
  C   C10       1.0  0.58575  0.24230  0.09658  1.0000
  C   C11       1.0  0.13321  0.45904  0.27245  1.0000
  C   C12       1.0  0.86679  0.54096  0.72756  1.0000
  C   C13       1.0  0.04708  0.97664  0.15703  1.0000
  C   C14       1.0  0.95292  0.02338  0.84296  1.0000
  C   C15       1.0  0.10880  0.94242  0.31749  1.0000
  C   C16       1.0  0.89121  0.05758  0.68249  1.0000
  C   C17       1.0  0.37951  0.63159  0.18497  1.0000
  C   C18       1.0  0.62048  0.36840  0.81504  1.0000
  C   C19       1.0  0.46703  0.72876  0.05594  1.0000
  C   C20       1.0  0.53297  0.27123  0.94407  1.0000
  C   C21       1.0  0.27432  0.68874  0.88209  1.0000
  C   C22       1.0  0.72567  0.31127  0.11792  1.0000
  N   N1        1.0  0.19087  0.59504  0.00622  1.0000
  N   N2        1.0  0.80912  0.40496  0.99379  1.0000
  N   N3        1.0  0.15254  0.40911  0.42519  1.0000
  N   N4        1.0  0.84746  0.59089  0.57483  1.0000
  O   O1        1.0  0.01312  0.41355  0.21457  1.0000
  O   O2        1.0  0.98688  0.58645  0.78544  1.0000
  O   O3        1.0  0.26499  0.29906  0.72134  1.0000
  O   O4        1.0  0.73502  0.70094  0.27865  1.0000
  O   O5        1.0  0.22414  0.04205  0.33276  1.0000
  O   O6        1.0  0.77587  0.95794  0.66723  1.0000
  O   O7        1.0  0.27132  0.03196  0.62627  1.0000
  O   O8        1.0  0.72869  0.96805  0.37372  1.0000
  O   O9        1.0  0.06018  0.82526  0.42390  1.0000
  O   O10       1.0  0.93983  0.17474  0.57608  1.0000
