data_image0
_chemical_formula_structural       Ca4H40C32S8N8O36
_chemical_formula_sum              "Ca4 H40 C32 S8 N8 O36"
_cell_length_a       7.01537
_cell_length_b       12.9185
_cell_length_c       16.3973
_cell_angle_alpha    109.272
_cell_angle_beta     90
_cell_angle_gamma    90

_space_group_name_H-M_alt    "P 1"
_space_group_IT_number       1

loop_
  _space_group_symop_operation_xyz
  'x, y, z'

loop_
  _atom_site_type_symbol
  _atom_site_label
  _atom_site_symmetry_multiplicity
  _atom_site_fract_x
  _atom_site_fract_y
  _atom_site_fract_z
  _atom_site_occupancy
  Ca  Ca1       1.0  0.22365  0.47825  0.27503  1.0000
  Ca  Ca2       1.0  0.72365  0.52175  0.22497  1.0000
  Ca  Ca3       1.0  0.77636  0.52175  0.72497  1.0000
  Ca  Ca4       1.0  0.27635  0.47825  0.77503  1.0000
  H   H1        1.0  0.70525  0.18503  0.10981  1.0000
  H   H2        1.0  0.20524  0.81498  0.39019  1.0000
  H   H3        1.0  0.29475  0.81497  0.89019  1.0000
  H   H4        1.0  0.79476  0.18503  0.60981  1.0000
  H   H5        1.0  0.75581  0.99148  0.08971  1.0000
  H   H6        1.0  0.25580  0.00852  0.41029  1.0000
  H   H7        1.0  0.24419  0.00852  0.91029  1.0000
  H   H8        1.0  0.74419  0.99148  0.58971  1.0000
  H   H9        1.0  0.54168  0.91444  0.05643  1.0000
  H   H10       1.0  0.04168  0.08557  0.44358  1.0000
  H   H11       1.0  0.45832  0.08556  0.94357  1.0000
  H   H12       1.0  0.95831  0.91443  0.55643  1.0000
  H   H13       1.0  0.62136  0.94427  0.16387  1.0000
  H   H14       1.0  0.12136  0.05574  0.33613  1.0000
  H   H15       1.0  0.37864  0.05574  0.83613  1.0000
  H   H16       1.0  0.87864  0.94426  0.66387  1.0000
  H   H17       1.0  0.71950  0.32872  0.52843  1.0000
  H   H18       1.0  0.21951  0.67127  0.97156  1.0000
  H   H19       1.0  0.28050  0.67128  0.47157  1.0000
  H   H20       1.0  0.78050  0.32872  0.02843  1.0000
  H   H21       1.0  0.77105  0.17468  0.39250  1.0000
  H   H22       1.0  0.27106  0.82532  0.10750  1.0000
  H   H23       1.0  0.22895  0.82532  0.60750  1.0000
  H   H24       1.0  0.72895  0.17468  0.89250  1.0000
  H   H25       1.0  0.61737  0.18261  0.30795  1.0000
  H   H26       1.0  0.11738  0.81739  0.19205  1.0000
  H   H27       1.0  0.38263  0.81740  0.69206  1.0000
  H   H28       1.0  0.88263  0.18260  0.80795  1.0000
  H   H29       1.0  0.56299  0.09038  0.36393  1.0000
  H   H30       1.0  0.06300  0.90962  0.13606  1.0000
  H   H31       1.0  0.43702  0.90962  0.63607  1.0000
  H   H32       1.0  0.93701  0.09038  0.86394  1.0000
  H   H33       1.0  0.38747  0.65677  0.19183  1.0000
  H   H34       1.0  0.88747  0.34323  0.30817  1.0000
  H   H35       1.0  0.61253  0.34323  0.80817  1.0000
  H   H36       1.0  0.11253  0.65677  0.69183  1.0000
  H   H37       1.0  0.35168  0.53354  0.13216  1.0000
  H   H38       1.0  0.85168  0.46646  0.36784  1.0000
  H   H39       1.0  0.64832  0.46646  0.86784  1.0000
  H   H40       1.0  0.14832  0.53354  0.63216  1.0000
  C   C1        1.0  0.50069  0.08040  0.13634  1.0000
  C   C2        1.0  0.00068  0.91960  0.36366  1.0000
  C   C3        1.0  0.49931  0.91959  0.86365  1.0000
  C   C4        1.0  0.99931  0.08040  0.63635  1.0000
  C   C5        1.0  0.56233  0.17890  0.13349  1.0000
  C   C6        1.0  0.06233  0.82110  0.36651  1.0000
  C   C7        1.0  0.43766  0.82110  0.86651  1.0000
  C   C8        1.0  0.93767  0.17890  0.63349  1.0000
  C   C9        1.0  0.61242  0.97730  0.11017  1.0000
  C   C10       1.0  0.11242  0.02271  0.38983  1.0000
  C   C11       1.0  0.38757  0.02270  0.88983  1.0000
  C   C12       1.0  0.88757  0.97729  0.61017  1.0000
  C   C13       1.0  0.45368  0.27805  0.17182  1.0000
  C   C14       1.0  0.95368  0.72195  0.32818  1.0000
  C   C15       1.0  0.54631  0.72195  0.82818  1.0000
  C   C16       1.0  0.04632  0.27805  0.67182  1.0000
  C   C17       1.0  0.43951  0.39839  0.57375  1.0000
  C   C18       1.0  0.93951  0.60161  0.92625  1.0000
  C   C19       1.0  0.56050  0.60161  0.42625  1.0000
  C   C20       1.0  0.06050  0.39839  0.07375  1.0000
  C   C21       1.0  0.57026  0.32914  0.51105  1.0000
  C   C22       1.0  0.07026  0.67086  0.98895  1.0000
  C   C23       1.0  0.42974  0.67086  0.48895  1.0000
  C   C24       1.0  0.92974  0.32914  0.01105  1.0000
  C   C25       1.0  0.50905  0.25730  0.43536  1.0000
  C   C26       1.0  0.00906  0.74270  0.06464  1.0000
  C   C27       1.0  0.49095  0.74270  0.56464  1.0000
  C   C28       1.0  0.99095  0.25730  0.93536  1.0000
  C   C29       1.0  0.62263  0.17172  0.37167  1.0000
  C   C30       1.0  0.12264  0.82828  0.12833  1.0000
  C   C31       1.0  0.37737  0.82829  0.62833  1.0000
  C   C32       1.0  0.87737  0.17171  0.87167  1.0000
  S   S1        1.0  0.15771  0.16301  0.17102  1.0000
  S   S2        1.0  0.65771  0.83699  0.32898  1.0000
  S   S3        1.0  0.84228  0.83699  0.82898  1.0000
  S   S4        1.0  0.34229  0.16301  0.67102  1.0000
  S   S5        1.0  0.19057  0.36464  0.45532  1.0000
  S   S6        1.0  0.69057  0.63536  0.04468  1.0000
  S   S7        1.0  0.80944  0.63536  0.54468  1.0000
  S   S8        1.0  0.30943  0.36464  0.95532  1.0000
  N   N1        1.0  0.27309  0.27490  0.20093  1.0000
  N   N2        1.0  0.77310  0.72510  0.29908  1.0000
  N   N3        1.0  0.72690  0.72510  0.79907  1.0000
  N   N4        1.0  0.22690  0.27489  0.70092  1.0000
  N   N5        1.0  0.25668  0.41271  0.55262  1.0000
  N   N6        1.0  0.75669  0.58729  0.94738  1.0000
  N   N7        1.0  0.74332  0.58729  0.44738  1.0000
  N   N8        1.0  0.24332  0.41271  0.05262  1.0000
  O   O1        1.0  0.02689  0.15892  0.23755  1.0000
  O   O2        1.0  0.52689  0.84108  0.26246  1.0000
  O   O3        1.0  0.97310  0.84108  0.76245  1.0000
  O   O4        1.0  0.47311  0.15891  0.73754  1.0000
  O   O5        1.0  0.08701  0.13270  0.08376  1.0000
  O   O6        1.0  0.58701  0.86731  0.41625  1.0000
  O   O7        1.0  0.91298  0.86730  0.91624  1.0000
  O   O8        1.0  0.41297  0.13268  0.58375  1.0000
  O   O9        1.0  0.32416  0.06820  0.16871  1.0000
  O   O10       1.0  0.82416  0.93181  0.33130  1.0000
  O   O11       1.0  0.67583  0.93180  0.83129  1.0000
  O   O12       1.0  0.17583  0.06819  0.66871  1.0000
  O   O13       1.0  0.99714  0.32655  0.44791  1.0000
  O   O14       1.0  0.49714  0.67345  0.05209  1.0000
  O   O15       1.0  0.00287  0.67345  0.55209  1.0000
  O   O16       1.0  0.50287  0.32655  0.94791  1.0000
  O   O17       1.0  0.24073  0.43754  0.40764  1.0000
  O   O18       1.0  0.74072  0.56246  0.09236  1.0000
  O   O19       1.0  0.75927  0.56246  0.59236  1.0000
  O   O20       1.0  0.25927  0.43754  0.90764  1.0000
  O   O21       1.0  0.31904  0.25324  0.41128  1.0000
  O   O22       1.0  0.81904  0.74676  0.08872  1.0000
  O   O23       1.0  0.68096  0.74676  0.58872  1.0000
  O   O24       1.0  0.18096  0.25324  0.91128  1.0000
  O   O25       1.0  0.52555  0.37278  0.18575  1.0000
  O   O26       1.0  0.02556  0.62722  0.31425  1.0000
  O   O27       1.0  0.47444  0.62722  0.81425  1.0000
  O   O28       1.0  0.97445  0.37278  0.68575  1.0000
  O   O29       1.0  0.49014  0.44312  0.65227  1.0000
  O   O30       1.0  0.99014  0.55687  0.84773  1.0000
  O   O31       1.0  0.50986  0.55688  0.34773  1.0000
  O   O32       1.0  0.00986  0.44312  0.15227  1.0000
  O   O33       1.0  0.38977  0.58104  0.19138  1.0000
  O   O34       1.0  0.88977  0.41896  0.30862  1.0000
  O   O35       1.0  0.61023  0.41896  0.80862  1.0000
  O   O36       1.0  0.11023  0.58104  0.69138  1.0000
