data_image0
_chemical_formula_structural       Zn4H52C56N8O20
_chemical_formula_sum              "Zn4 H52 C56 N8 O20"
_cell_length_a       8.82187
_cell_length_b       11.4087
_cell_length_c       14.505
_cell_angle_alpha    90
_cell_angle_beta     90
_cell_angle_gamma    94.4958

_space_group_name_H-M_alt    "P 1"
_space_group_IT_number       1

loop_
  _space_group_symop_operation_xyz
  'x, y, z'

loop_
  _atom_site_type_symbol
  _atom_site_label
  _atom_site_symmetry_multiplicity
  _atom_site_fract_x
  _atom_site_fract_y
  _atom_site_fract_z
  _atom_site_occupancy
  Zn  Zn1       1.0  0.38969  0.92120  0.90812  1.0000
  Zn  Zn2       1.0  0.11031  0.57880  0.40812  1.0000
  Zn  Zn3       1.0  0.61031  0.07881  0.09188  1.0000
  Zn  Zn4       1.0  0.88969  0.42120  0.59188  1.0000
  H   H1        1.0  0.03306  0.14680  0.68434  1.0000
  H   H2        1.0  0.46694  0.35320  0.18435  1.0000
  H   H3        1.0  0.96694  0.85320  0.31566  1.0000
  H   H4        1.0  0.53306  0.64680  0.81565  1.0000
  H   H5        1.0  0.80976  0.05416  0.75687  1.0000
  H   H6        1.0  0.69024  0.44584  0.25687  1.0000
  H   H7        1.0  0.19024  0.94584  0.24313  1.0000
  H   H8        1.0  0.30976  0.55416  0.74313  1.0000
  H   H9        1.0  0.69310  0.69433  0.67771  1.0000
  H   H10       1.0  0.80690  0.80567  0.17771  1.0000
  H   H11       1.0  0.30690  0.30567  0.32229  1.0000
  H   H12       1.0  0.19310  0.19433  0.82229  1.0000
  H   H13       1.0  0.22674  0.77659  0.73953  1.0000
  H   H14       1.0  0.27326  0.72341  0.23952  1.0000
  H   H15       1.0  0.77326  0.22341  0.26047  1.0000
  H   H16       1.0  0.72674  0.27659  0.76048  1.0000
  H   H17       1.0  0.98233  0.61683  0.77810  1.0000
  H   H18       1.0  0.51767  0.88318  0.27810  1.0000
  H   H19       1.0  0.01767  0.38317  0.22190  1.0000
  H   H20       1.0  0.48233  0.11682  0.72190  1.0000
  H   H21       1.0  0.08771  0.88384  0.56033  1.0000
  H   H22       1.0  0.41229  0.61616  0.06033  1.0000
  H   H23       1.0  0.91228  0.11616  0.43967  1.0000
  H   H24       1.0  0.58771  0.38384  0.93967  1.0000
  H   H25       1.0  0.17300  0.91330  0.04971  1.0000
  H   H26       1.0  0.32700  0.58670  0.54971  1.0000
  H   H27       1.0  0.82700  0.08670  0.95029  1.0000
  H   H28       1.0  0.67300  0.41330  0.45029  1.0000
  H   H29       1.0  0.10063  0.77482  0.09358  1.0000
  H   H30       1.0  0.39937  0.72519  0.59358  1.0000
  H   H31       1.0  0.89937  0.22518  0.90642  1.0000
  H   H32       1.0  0.60063  0.27482  0.40642  1.0000
  H   H33       1.0  0.97313  0.87575  0.05241  1.0000
  H   H34       1.0  0.52687  0.62425  0.55241  1.0000
  H   H35       1.0  0.02687  0.12425  0.94759  1.0000
  H   H36       1.0  0.47313  0.37575  0.44759  1.0000
  H   H37       1.0  0.77471  0.63196  0.92486  1.0000
  H   H38       1.0  0.72529  0.86804  0.42486  1.0000
  H   H39       1.0  0.22529  0.36804  0.07514  1.0000
  H   H40       1.0  0.27471  0.13196  0.57514  1.0000
  H   H41       1.0  0.87025  0.67270  0.02902  1.0000
  H   H42       1.0  0.62975  0.82730  0.52902  1.0000
  H   H43       1.0  0.12975  0.32730  0.97098  1.0000
  H   H44       1.0  0.37025  0.17270  0.47098  1.0000
  H   H45       1.0  0.83100  0.45737  0.01135  1.0000
  H   H46       1.0  0.66901  0.04263  0.51135  1.0000
  H   H47       1.0  0.16900  0.54263  0.98865  1.0000
  H   H48       1.0  0.33100  0.95737  0.48865  1.0000
  H   H49       1.0  0.93175  0.46243  0.90584  1.0000
  H   H50       1.0  0.56825  0.03757  0.40584  1.0000
  H   H51       1.0  0.06825  0.53757  0.09416  1.0000
  H   H52       1.0  0.43175  0.96243  0.59416  1.0000
  C   C1        1.0  0.89369  0.77866  0.61346  1.0000
  C   C2        1.0  0.60631  0.72134  0.11346  1.0000
  C   C3        1.0  0.10631  0.22134  0.38654  1.0000
  C   C4        1.0  0.39368  0.27866  0.88654  1.0000
  C   C5        1.0  0.73667  0.87458  0.72238  1.0000
  C   C6        1.0  0.76332  0.62542  0.22238  1.0000
  C   C7        1.0  0.26333  0.12542  0.27762  1.0000
  C   C8        1.0  0.23668  0.37458  0.77762  1.0000
  C   C9        1.0  0.96323  0.98041  0.65935  1.0000
  C   C10       1.0  0.53677  0.51959  0.15935  1.0000
  C   C11       1.0  0.03677  0.01959  0.34065  1.0000
  C   C12       1.0  0.46323  0.48041  0.84065  1.0000
  C   C13       1.0  0.59598  0.86985  0.78028  1.0000
  C   C14       1.0  0.90402  0.63015  0.28029  1.0000
  C   C15       1.0  0.40402  0.13015  0.21972  1.0000
  C   C16       1.0  0.09598  0.36985  0.71971  1.0000
  C   C17       1.0  0.83475  0.97725  0.71684  1.0000
  C   C18       1.0  0.66526  0.52275  0.21684  1.0000
  C   C19       1.0  0.16525  0.02275  0.28316  1.0000
  C   C20       1.0  0.33474  0.47725  0.78316  1.0000
  C   C21       1.0  0.76742  0.77461  0.67200  1.0000
  C   C22       1.0  0.73258  0.72539  0.17200  1.0000
  C   C23       1.0  0.23258  0.22539  0.32800  1.0000
  C   C24       1.0  0.26742  0.27461  0.82800  1.0000
  C   C25       1.0  0.16045  0.76381  0.80191  1.0000
  C   C26       1.0  0.33955  0.73619  0.30191  1.0000
  C   C27       1.0  0.83955  0.23619  0.19809  1.0000
  C   C28       1.0  0.66045  0.26381  0.69809  1.0000
  C   C29       1.0  0.04003  0.68455  0.82034  1.0000
  C   C30       1.0  0.45997  0.81545  0.32034  1.0000
  C   C31       1.0  0.95997  0.31545  0.17966  1.0000
  C   C32       1.0  0.54003  0.18455  0.67966  1.0000
  C   C33       1.0  0.99032  0.88118  0.60657  1.0000
  C   C34       1.0  0.50968  0.61882  0.10657  1.0000
  C   C35       1.0  0.00968  0.11882  0.39343  1.0000
  C   C36       1.0  0.49032  0.38118  0.89343  1.0000
  C   C37       1.0  0.92682  0.67241  0.55930  1.0000
  C   C38       1.0  0.57318  0.82759  0.05930  1.0000
  C   C39       1.0  0.07318  0.32759  0.44070  1.0000
  C   C40       1.0  0.42682  0.17241  0.94070  1.0000
  C   C41       1.0  0.08455  0.84137  0.04043  1.0000
  C   C42       1.0  0.41544  0.65863  0.54043  1.0000
  C   C43       1.0  0.91545  0.15863  0.95957  1.0000
  C   C44       1.0  0.58455  0.34137  0.45957  1.0000
  C   C45       1.0  0.09370  0.79262  0.94579  1.0000
  C   C46       1.0  0.40630  0.70739  0.44579  1.0000
  C   C47       1.0  0.90630  0.20738  0.05421  1.0000
  C   C48       1.0  0.59370  0.29262  0.55421  1.0000
  C   C49       1.0  0.88322  0.63125  0.96168  1.0000
  C   C50       1.0  0.61678  0.86875  0.46168  1.0000
  C   C51       1.0  0.11678  0.36875  0.03832  1.0000
  C   C52       1.0  0.38322  0.13125  0.53832  1.0000
  C   C53       1.0  0.92553  0.50478  0.97390  1.0000
  C   C54       1.0  0.57447  0.99522  0.47390  1.0000
  C   C55       1.0  0.07447  0.49522  0.02610  1.0000
  C   C56       1.0  0.42553  0.00478  0.52610  1.0000
  N   N1        1.0  0.99932  0.70340  0.91094  1.0000
  N   N2        1.0  0.50068  0.79660  0.41094  1.0000
  N   N3        1.0  0.00068  0.29660  0.08906  1.0000
  N   N4        1.0  0.49932  0.20340  0.58907  1.0000
  N   N5        1.0  0.19335  0.83033  0.88014  1.0000
  N   N6        1.0  0.30665  0.66967  0.38014  1.0000
  N   N7        1.0  0.80665  0.16967  0.11986  1.0000
  N   N8        1.0  0.69335  0.33033  0.61986  1.0000
  O   O1        1.0  0.04984  0.67795  0.51301  1.0000
  O   O2        1.0  0.45015  0.82205  0.01301  1.0000
  O   O3        1.0  0.95016  0.32205  0.48699  1.0000
  O   O4        1.0  0.54984  0.17795  0.98699  1.0000
  O   O5        1.0  0.83039  0.58266  0.56345  1.0000
  O   O6        1.0  0.66961  0.91734  0.06345  1.0000
  O   O7        1.0  0.16962  0.41734  0.43656  1.0000
  O   O8        1.0  0.33039  0.08266  0.93655  1.0000
  O   O9        1.0  0.50575  0.77795  0.78097  1.0000
  O   O10       1.0  0.99426  0.72205  0.28097  1.0000
  O   O11       1.0  0.49426  0.22205  0.21903  1.0000
  O   O12       1.0  0.00575  0.27795  0.71903  1.0000
  O   O13       1.0  0.56891  0.96231  0.82721  1.0000
  O   O14       1.0  0.93109  0.53769  0.32721  1.0000
  O   O15       1.0  0.43109  0.03769  0.17279  1.0000
  O   O16       1.0  0.06891  0.46231  0.67279  1.0000
  O   O17       1.0  0.06501  0.07489  0.65181  1.0000
  O   O18       1.0  0.43500  0.42511  0.15181  1.0000
  O   O19       1.0  0.93499  0.92511  0.34819  1.0000
  O   O20       1.0  0.56501  0.57489  0.84819  1.0000
