data_image0
_chemical_formula_structural       Ag8H16C16S4O16
_chemical_formula_sum              "Ag8 H16 C16 S4 O16"
_cell_length_a       5.20902
_cell_length_b       6.61168
_cell_length_c       20.4633
_cell_angle_alpha    89.9997
_cell_angle_beta     90
_cell_angle_gamma    109.158

_space_group_name_H-M_alt    "P 1"
_space_group_IT_number       1

loop_
  _space_group_symop_operation_xyz
  'x, y, z'

loop_
  _atom_site_type_symbol
  _atom_site_label
  _atom_site_symmetry_multiplicity
  _atom_site_fract_x
  _atom_site_fract_y
  _atom_site_fract_z
  _atom_site_occupancy
  Ag  Ag1       1.0  0.36974  0.37405  0.09774  1.0000
  Ag  Ag2       1.0  0.63027  0.12596  0.59774  1.0000
  Ag  Ag3       1.0  0.63026  0.62594  0.90226  1.0000
  Ag  Ag4       1.0  0.36975  0.87406  0.40226  1.0000
  Ag  Ag5       1.0  0.65335  0.11106  0.15416  1.0000
  Ag  Ag6       1.0  0.34666  0.38895  0.65416  1.0000
  Ag  Ag7       1.0  0.34665  0.88894  0.84584  1.0000
  Ag  Ag8       1.0  0.65334  0.61105  0.34585  1.0000
  H   H1        1.0  0.06154  0.41924  0.43574  1.0000
  H   H2        1.0  0.93845  0.08076  0.93574  1.0000
  H   H3        1.0  0.93846  0.58076  0.56426  1.0000
  H   H4        1.0  0.06155  0.91924  0.06425  1.0000
  H   H5        1.0  0.90586  0.13723  0.44053  1.0000
  H   H6        1.0  0.09414  0.36277  0.94053  1.0000
  H   H7        1.0  0.09415  0.86277  0.55946  1.0000
  H   H8        1.0  0.90586  0.63723  0.05947  1.0000
  H   H9        1.0  0.92704  0.03183  0.31292  1.0000
  H   H10       1.0  0.07297  0.46817  0.81292  1.0000
  H   H11       1.0  0.07296  0.96818  0.68708  1.0000
  H   H12       1.0  0.92703  0.53183  0.18708  1.0000
  H   H13       1.0  0.98930  0.31245  0.30791  1.0000
  H   H14       1.0  0.01070  0.18755  0.80790  1.0000
  H   H15       1.0  0.01070  0.68756  0.69210  1.0000
  H   H16       1.0  0.98930  0.81245  0.19210  1.0000
  C   C1        1.0  0.10219  0.26747  0.44204  1.0000
  C   C2        1.0  0.89781  0.23252  0.94203  1.0000
  C   C3        1.0  0.89782  0.73253  0.55796  1.0000
  C   C4        1.0  0.10219  0.76747  0.05796  1.0000
  C   C5        1.0  0.08709  0.18878  0.30831  1.0000
  C   C6        1.0  0.91292  0.31122  0.80831  1.0000
  C   C7        1.0  0.91291  0.81122  0.69169  1.0000
  C   C8        1.0  0.08708  0.68878  0.19169  1.0000
  C   C9        1.0  0.23769  0.26683  0.50779  1.0000
  C   C10       1.0  0.76231  0.23316  0.00778  1.0000
  C   C11       1.0  0.76230  0.73316  0.49222  1.0000
  C   C12       1.0  0.23769  0.76683  0.99222  1.0000
  C   C13       1.0  0.24361  0.19456  0.24522  1.0000
  C   C14       1.0  0.75639  0.30544  0.74522  1.0000
  C   C15       1.0  0.75638  0.80544  0.75478  1.0000
  C   C16       1.0  0.24362  0.69456  0.25478  1.0000
  S   S1        1.0  0.32031  0.23191  0.37676  1.0000
  S   S2        1.0  0.67969  0.26809  0.87675  1.0000
  S   S3        1.0  0.67969  0.76810  0.62324  1.0000
  S   S4        1.0  0.32031  0.73191  0.12325  1.0000
  O   O1        1.0  0.10882  0.29411  0.55801  1.0000
  O   O2        1.0  0.89117  0.20589  0.05801  1.0000
  O   O3        1.0  0.89118  0.70590  0.44199  1.0000
  O   O4        1.0  0.10883  0.79411  0.94199  1.0000
  O   O5        1.0  0.46644  0.23764  0.50806  1.0000
  O   O6        1.0  0.53356  0.26236  0.00805  1.0000
  O   O7        1.0  0.53356  0.76234  0.49194  1.0000
  O   O8        1.0  0.46645  0.73763  0.99194  1.0000
  O   O9        1.0  0.11860  0.19551  0.19181  1.0000
  O   O10       1.0  0.88141  0.30449  0.69181  1.0000
  O   O11       1.0  0.88139  0.80449  0.80819  1.0000
  O   O12       1.0  0.11860  0.69552  0.30819  1.0000
  O   O13       1.0  0.48651  0.19466  0.24968  1.0000
  O   O14       1.0  0.51350  0.30534  0.74968  1.0000
  O   O15       1.0  0.51348  0.80533  0.75032  1.0000
  O   O16       1.0  0.48650  0.69466  0.25032  1.0000
