data_image0
_chemical_formula_structural       Cd4H16C24I4N4O8
_chemical_formula_sum              "Cd4 H16 C24 I4 N4 O8"
_cell_length_a       4.36067
_cell_length_b       10.9932
_cell_length_c       17.1239
_cell_angle_alpha    89.9999
_cell_angle_beta     89.9998
_cell_angle_gamma    90.0004

_space_group_name_H-M_alt    "P 1"
_space_group_IT_number       1

loop_
  _space_group_symop_operation_xyz
  'x, y, z'

loop_
  _atom_site_type_symbol
  _atom_site_label
  _atom_site_symmetry_multiplicity
  _atom_site_fract_x
  _atom_site_fract_y
  _atom_site_fract_z
  _atom_site_occupancy
  Cd  Cd1       1.0  0.60150  0.34283  0.46621  1.0000
  Cd  Cd2       1.0  0.10150  0.65717  0.53379  1.0000
  Cd  Cd3       1.0  0.60150  0.84283  0.03379  1.0000
  Cd  Cd4       1.0  0.10150  0.15717  0.96621  1.0000
  H   H1        1.0  0.88842  0.25692  0.29548  1.0000
  H   H2        1.0  0.38842  0.74308  0.70452  1.0000
  H   H3        1.0  0.88842  0.75692  0.20452  1.0000
  H   H4        1.0  0.38842  0.24308  0.79547  1.0000
  H   H5        1.0  0.85646  0.31398  0.15472  1.0000
  H   H6        1.0  0.35645  0.68602  0.84528  1.0000
  H   H7        1.0  0.85644  0.81397  0.34528  1.0000
  H   H8        1.0  0.35645  0.18603  0.65472  1.0000
  H   H9        1.0  0.54902  0.49945  0.11722  1.0000
  H   H10       1.0  0.04899  0.50055  0.88278  1.0000
  H   H11       1.0  0.54898  0.99944  0.38278  1.0000
  H   H12       1.0  0.04899  0.00055  0.61722  1.0000
  H   H13       1.0  0.28956  0.61882  0.22416  1.0000
  H   H14       1.0  0.78953  0.38119  0.77584  1.0000
  H   H15       1.0  0.28953  0.11881  0.27584  1.0000
  H   H16       1.0  0.78953  0.88119  0.72416  1.0000
  C   C1        1.0  0.75806  0.33652  0.27678  1.0000
  C   C2        1.0  0.25805  0.66348  0.72322  1.0000
  C   C3        1.0  0.75805  0.83651  0.22322  1.0000
  C   C4        1.0  0.25804  0.16348  0.77677  1.0000
  C   C5        1.0  0.73980  0.36921  0.19826  1.0000
  C   C6        1.0  0.23979  0.63079  0.80174  1.0000
  C   C7        1.0  0.73978  0.86920  0.30174  1.0000
  C   C8        1.0  0.23978  0.13079  0.69826  1.0000
  C   C9        1.0  0.57040  0.47195  0.17815  1.0000
  C   C10       1.0  0.07038  0.52805  0.82185  1.0000
  C   C11       1.0  0.57037  0.97195  0.32184  1.0000
  C   C12       1.0  0.07037  0.02805  0.67815  1.0000
  C   C13       1.0  0.42582  0.53828  0.23686  1.0000
  C   C14       1.0  0.92580  0.46173  0.76314  1.0000
  C   C15       1.0  0.42579  0.03827  0.26314  1.0000
  C   C16       1.0  0.92579  0.96173  0.73686  1.0000
  C   C17       1.0  0.45340  0.49957  0.31408  1.0000
  C   C18       1.0  0.95339  0.50043  0.68592  1.0000
  C   C19       1.0  0.45339  0.99956  0.18592  1.0000
  C   C20       1.0  0.95338  0.00043  0.81408  1.0000
  C   C21       1.0  0.29552  0.56812  0.37875  1.0000
  C   C22       1.0  0.79551  0.43188  0.62125  1.0000
  C   C23       1.0  0.29551  0.06812  0.12125  1.0000
  C   C24       1.0  0.79552  0.93187  0.87874  1.0000
  I   I1        1.0  0.10751  0.17358  0.46664  1.0000
  I   I2        1.0  0.60752  0.82641  0.53336  1.0000
  I   I3        1.0  0.10751  0.67358  0.03336  1.0000
  I   I4        1.0  0.60752  0.32642  0.96664  1.0000
  N   N1        1.0  0.61799  0.39995  0.33349  1.0000
  N   N2        1.0  0.11798  0.60005  0.66651  1.0000
  N   N3        1.0  0.61798  0.89995  0.16651  1.0000
  N   N4        1.0  0.11798  0.10005  0.83349  1.0000
  O   O1        1.0  0.32750  0.52439  0.44871  1.0000
  O   O2        1.0  0.82750  0.47561  0.55129  1.0000
  O   O3        1.0  0.32749  0.02439  0.05129  1.0000
  O   O4        1.0  0.82749  0.97561  0.94871  1.0000
  O   O5        1.0  0.14408  0.66131  0.36380  1.0000
  O   O6        1.0  0.64408  0.33869  0.63620  1.0000
  O   O7        1.0  0.14408  0.16131  0.13620  1.0000
  O   O8        1.0  0.64408  0.83868  0.86380  1.0000
