data_image0
_chemical_formula_structural       Pr2H24C24N2O12
_chemical_formula_sum              "Pr2 H24 C24 N2 O12"
_cell_length_a       7.75498
_cell_length_b       9.60722
_cell_length_c       11.4371
_cell_angle_alpha    95.5944
_cell_angle_beta     105.482
_cell_angle_gamma    103.576

_space_group_name_H-M_alt    "P 1"
_space_group_IT_number       1

loop_
  _space_group_symop_operation_xyz
  'x, y, z'

loop_
  _atom_site_type_symbol
  _atom_site_label
  _atom_site_symmetry_multiplicity
  _atom_site_fract_x
  _atom_site_fract_y
  _atom_site_fract_z
  _atom_site_occupancy
  Pr  Pr1       1.0  0.29015  0.58409  0.52113  1.0000
  Pr  Pr2       1.0  0.70984  0.41591  0.47887  1.0000
  H   H1        1.0  0.04179  0.73213  0.69291  1.0000
  H   H2        1.0  0.95820  0.26788  0.30709  1.0000
  H   H3        1.0  0.95570  0.95576  0.75990  1.0000
  H   H4        1.0  0.04429  0.04424  0.24010  1.0000
  H   H5        1.0  0.08585  0.18745  0.69058  1.0000
  H   H6        1.0  0.91414  0.81255  0.30942  1.0000
  H   H7        1.0  0.36648  0.95162  0.49975  1.0000
  H   H8        1.0  0.63351  0.04838  0.50025  1.0000
  H   H9        1.0  0.71841  0.58491  0.19971  1.0000
  H   H10       1.0  0.28160  0.41509  0.80029  1.0000
  H   H11       1.0  0.77349  0.43197  0.14239  1.0000
  H   H12       1.0  0.22651  0.56803  0.85761  1.0000
  H   H13       1.0  0.01356  0.60156  0.06294  1.0000
  H   H14       1.0  0.98645  0.39844  0.93706  1.0000
  H   H15       1.0  0.93135  0.74683  0.10792  1.0000
  H   H16       1.0  0.06865  0.25317  0.89208  1.0000
  H   H17       1.0  0.68464  0.46974  0.92683  1.0000
  H   H18       1.0  0.31537  0.53025  0.07317  1.0000
  H   H19       1.0  0.61161  0.62348  0.96776  1.0000
  H   H20       1.0  0.38839  0.37652  0.03224  1.0000
  H   H21       1.0  0.84112  0.77645  0.87988  1.0000
  H   H22       1.0  0.15889  0.22355  0.12012  1.0000
  H   H23       1.0  0.90068  0.61756  0.83013  1.0000
  H   H24       1.0  0.09931  0.38244  0.16986  1.0000
  C   C1        1.0  0.09620  0.83535  0.66655  1.0000
  C   C2        1.0  0.90379  0.16464  0.33346  1.0000
  C   C3        1.0  0.05020  0.96023  0.70406  1.0000
  C   C4        1.0  0.94980  0.03977  0.29594  1.0000
  C   C5        1.0  0.12329  0.08881  0.66652  1.0000
  C   C6        1.0  0.87671  0.91118  0.33348  1.0000
  C   C7        1.0  0.24317  0.08916  0.59450  1.0000
  C   C8        1.0  0.75682  0.91084  0.40550  1.0000
  C   C9        1.0  0.27868  0.95756  0.55910  1.0000
  C   C10       1.0  0.72132  0.04244  0.44090  1.0000
  C   C11       1.0  0.33037  0.22679  0.55513  1.0000
  C   C12       1.0  0.66964  0.77321  0.44486  1.0000
  C   C13       1.0  0.98484  0.57056  0.29459  1.0000
  C   C14       1.0  0.01516  0.42944  0.70541  1.0000
  C   C15       1.0  0.83183  0.54977  0.17539  1.0000
  C   C16       1.0  0.16818  0.45023  0.82461  1.0000
  C   C17       1.0  0.88909  0.62844  0.07652  1.0000
  C   C18       1.0  0.11091  0.37156  0.92348  1.0000
  C   C19       1.0  0.73205  0.58891  0.95522  1.0000
  C   C20       1.0  0.26796  0.41109  0.04477  1.0000
  C   C21       1.0  0.78911  0.65764  0.85102  1.0000
  C   C22       1.0  0.21089  0.34236  0.14898  1.0000
  C   C23       1.0  0.62516  0.62697  0.73616  1.0000
  C   C24       1.0  0.37484  0.37304  0.26384  1.0000
  N   N1        1.0  0.20653  0.83242  0.59351  1.0000
  N   N2        1.0  0.79346  0.16758  0.40649  1.0000
  O   O1        1.0  0.95639  0.48462  0.37270  1.0000
  O   O2        1.0  0.04362  0.51538  0.62730  1.0000
  O   O3        1.0  0.13744  0.66642  0.31845  1.0000
  O   O4        1.0  0.86256  0.33358  0.68155  1.0000
  O   O5        1.0  0.62706  0.55355  0.63644  1.0000
  O   O6        1.0  0.37294  0.44646  0.36356  1.0000
  O   O7        1.0  0.48609  0.67280  0.74060  1.0000
  O   O8        1.0  0.51391  0.32721  0.25940  1.0000
  O   O9        1.0  0.46332  0.22490  0.51011  1.0000
  O   O10       1.0  0.53667  0.77510  0.48989  1.0000
  O   O11       1.0  0.26533  0.33472  0.57087  1.0000
  O   O12       1.0  0.73466  0.66528  0.42913  1.0000
