data_image0
_chemical_formula_structural       Sm4H36C42N6O22
_chemical_formula_sum              "Sm4 H36 C42 N6 O22"
_cell_length_a       7.69019
_cell_length_b       11.5728
_cell_length_c       14.081
_cell_angle_alpha    102.949
_cell_angle_beta     95.0439
_cell_angle_gamma    101.774

_space_group_name_H-M_alt    "P 1"
_space_group_IT_number       1

loop_
  _space_group_symop_operation_xyz
  'x, y, z'

loop_
  _atom_site_type_symbol
  _atom_site_label
  _atom_site_symmetry_multiplicity
  _atom_site_fract_x
  _atom_site_fract_y
  _atom_site_fract_z
  _atom_site_occupancy
  Sm  Sm1       1.0  0.35906  0.00845  0.88075  1.0000
  Sm  Sm2       1.0  0.64106  0.99148  0.11912  1.0000
  Sm  Sm3       1.0  0.87006  0.13336  0.92304  1.0000
  Sm  Sm4       1.0  0.12999  0.86664  0.07692  1.0000
  H   H1        1.0  0.15810  0.62861  0.63379  1.0000
  H   H2        1.0  0.84198  0.37139  0.36626  1.0000
  H   H3        1.0  0.03940  0.40550  0.54598  1.0000
  H   H4        1.0  0.96062  0.59450  0.45404  1.0000
  H   H5        1.0  0.86973  0.26730  0.63865  1.0000
  H   H6        1.0  0.13020  0.73271  0.36134  1.0000
  H   H7        1.0  0.91145  0.55365  0.88228  1.0000
  H   H8        1.0  0.08859  0.44638  0.11775  1.0000
  H   H9        1.0  0.40081  0.90565  0.54218  1.0000
  H   H10       1.0  0.59917  0.09425  0.45775  1.0000
  H   H11       1.0  0.45053  0.75499  0.39277  1.0000
  H   H12       1.0  0.54948  0.24492  0.60709  1.0000
  H   H13       1.0  0.66931  0.62668  0.41530  1.0000
  H   H14       1.0  0.33080  0.37326  0.58459  1.0000
  H   H15       1.0  0.79019  0.78918  0.71442  1.0000
  H   H16       1.0  0.20981  0.21073  0.28547  1.0000
  H   H17       1.0  0.47382  0.33835  0.74508  1.0000
  H   H18       1.0  0.52636  0.66184  0.25505  1.0000
  H   H19       1.0  0.60465  0.54186  0.71180  1.0000
  H   H20       1.0  0.39530  0.45837  0.28834  1.0000
  H   H21       1.0  0.25507  0.53124  0.98672  1.0000
  H   H22       1.0  0.74500  0.46879  0.01346  1.0000
  H   H23       1.0  0.21174  0.05050  0.64727  1.0000
  H   H24       1.0  0.78824  0.94946  0.35266  1.0000
  H   H25       1.0  0.05980  0.91138  0.62971  1.0000
  H   H26       1.0  0.94016  0.08859  0.37029  1.0000
  H   H27       1.0  0.82438  0.00085  0.54426  1.0000
  H   H28       1.0  0.17557  0.99908  0.45567  1.0000
  H   H29       1.0  0.99667  0.13053  0.55256  1.0000
  H   H30       1.0  0.00330  0.86941  0.44736  1.0000
  H   H31       1.0  0.56465  0.73125  0.82755  1.0000
  H   H32       1.0  0.43520  0.26893  0.17266  1.0000
  H   H33       1.0  0.59724  0.26991  0.87987  1.0000
  H   H34       1.0  0.40283  0.73025  0.12026  1.0000
  H   H35       1.0  0.77694  0.32223  0.82985  1.0000
  H   H36       1.0  0.22305  0.67783  0.17022  1.0000
  C   C1        1.0  0.11527  0.73565  0.82254  1.0000
  C   C2        1.0  0.88457  0.26430  0.17748  1.0000
  C   C3        1.0  0.04383  0.60632  0.76453  1.0000
  C   C4        1.0  0.95613  0.39362  0.23549  1.0000
  C   C5        1.0  0.07925  0.56464  0.66865  1.0000
  C   C6        1.0  0.92076  0.43532  0.33137  1.0000
  C   C7        1.0  0.01412  0.44191  0.62065  1.0000
  C   C8        1.0  0.98588  0.55805  0.37937  1.0000
  C   C9        1.0  0.91762  0.36497  0.67078  1.0000
  C   C10       1.0  0.08230  0.63501  0.32922  1.0000
  C   C11       1.0  0.94223  0.52294  0.80786  1.0000
  C   C12       1.0  0.05772  0.47702  0.19215  1.0000
  C   C13       1.0  0.56344  0.94557  0.72727  1.0000
  C   C14       1.0  0.43655  0.05440  0.27256  1.0000
  C   C15       1.0  0.49505  0.84781  0.54711  1.0000
  C   C16       1.0  0.50496  0.15210  0.45278  1.0000
  C   C17       1.0  0.52242  0.76440  0.46527  1.0000
  C   C18       1.0  0.47757  0.23551  0.53463  1.0000
  C   C19       1.0  0.64503  0.69327  0.47815  1.0000
  C   C20       1.0  0.35500  0.30665  0.52174  1.0000
  C   C21       1.0  0.71233  0.78234  0.64378  1.0000
  C   C22       1.0  0.28768  0.21759  0.35612  1.0000
  C   C23       1.0  0.27875  0.30162  0.89363  1.0000
  C   C24       1.0  0.72135  0.69843  0.10647  1.0000
  C   C25       1.0  0.35500  0.41912  0.86865  1.0000
  C   C26       1.0  0.64509  0.58094  0.13150  1.0000
  C   C27       1.0  0.45470  0.42308  0.79056  1.0000
  C   C28       1.0  0.54537  0.57705  0.20959  1.0000
  C   C29       1.0  0.52820  0.53541  0.77283  1.0000
  C   C30       1.0  0.47177  0.46475  0.22732  1.0000
  C   C31       1.0  0.59211  0.85769  0.63857  1.0000
  C   C32       1.0  0.40792  0.14224  0.36131  1.0000
  C   C33       1.0  0.33382  0.52993  0.92578  1.0000
  C   C34       1.0  0.66623  0.47010  0.07438  1.0000
  C   C35       1.0  0.00134  0.05548  0.73391  1.0000
  C   C36       1.0  0.99870  0.94457  0.26608  1.0000
  C   C37       1.0  0.06707  0.00926  0.63796  1.0000
  C   C38       1.0  0.93290  0.99072  0.36200  1.0000
  C   C39       1.0  0.97030  0.03196  0.54723  1.0000
  C   C40       1.0  0.02968  0.96797  0.45267  1.0000
  C   C41       1.0  0.50542  0.64087  0.83669  1.0000
  C   C42       1.0  0.49450  0.35928  0.16349  1.0000
  N   N1        1.0  0.88071  0.40486  0.76236  1.0000
  N   N2        1.0  0.11923  0.59512  0.23763  1.0000
  N   N3        1.0  0.73952  0.70125  0.56529  1.0000
  N   N4        1.0  0.26048  0.29866  0.43463  1.0000
  N   N5        1.0  0.41010  0.63817  0.91178  1.0000
  N   N6        1.0  0.58984  0.36189  0.08842  1.0000
  O   O1        1.0  0.22513  0.80493  0.78536  1.0000
  O   O2        1.0  0.77465  0.19505  0.21464  1.0000
  O   O3        1.0  0.64115  0.94798  0.81302  1.0000
  O   O4        1.0  0.35887  0.05211  0.18683  1.0000
  O   O5        1.0  0.45376  0.01202  0.71820  1.0000
  O   O6        1.0  0.54612  0.98788  0.28160  1.0000
  O   O7        1.0  0.36945  0.21939  0.87741  1.0000
  O   O8        1.0  0.63056  0.78062  0.12264  1.0000
  O   O9        1.0  0.05973  0.02330  0.81125  1.0000
  O   O10       1.0  0.94039  0.97673  0.18872  1.0000
  O   O11       1.0  0.08291  0.03773  0.00852  1.0000
  O   O12       1.0  0.91713  0.96231  0.99154  1.0000
  O   O13       1.0  0.39275  0.91032  0.00156  1.0000
  O   O14       1.0  0.60731  0.08945  0.99826  1.0000
  O   O15       1.0  0.06032  0.76777  0.90483  1.0000
  O   O16       1.0  0.93945  0.23212  0.09517  1.0000
  O   O17       1.0  0.72913  0.27972  0.88206  1.0000
  O   O18       1.0  0.27088  0.72036  0.11799  1.0000
  O   O19       1.0  0.13286  0.29068  0.92942  1.0000
  O   O20       1.0  0.86726  0.70934  0.07067  1.0000
  O   O21       1.0  0.89064  0.12281  0.74037  1.0000
  O   O22       1.0  0.10945  0.87731  0.25958  1.0000
