data_image0
_chemical_formula_structural       K2H14C8O12
_chemical_formula_sum              "K2 H14 C8 O12"
_cell_length_a       7.4616
_cell_length_b       7.46158
_cell_length_c       7.61602
_cell_angle_alpha    67.8177
_cell_angle_beta     67.8178
_cell_angle_gamma    89.1918

_space_group_name_H-M_alt    "P 1"
_space_group_IT_number       1

loop_
  _space_group_symop_operation_xyz
  'x, y, z'

loop_
  _atom_site_type_symbol
  _atom_site_label
  _atom_site_symmetry_multiplicity
  _atom_site_fract_x
  _atom_site_fract_y
  _atom_site_fract_z
  _atom_site_occupancy
  K   K1        1.0  0.06506  0.94529  0.48905  1.0000
  K   K2        1.0  0.94529  0.06507  0.98905  1.0000
  H   H1        1.0  0.34616  0.23577  0.72440  1.0000
  H   H2        1.0  0.23577  0.34616  0.22440  1.0000
  H   H3        1.0  0.50485  0.84529  0.24290  1.0000
  H   H4        1.0  0.84529  0.50485  0.74289  1.0000
  H   H5        1.0  0.54501  0.31499  0.16757  1.0000
  H   H6        1.0  0.31500  0.54501  0.66757  1.0000
  H   H7        1.0  0.41781  0.21829  0.41456  1.0000
  H   H8        1.0  0.21829  0.41780  0.91456  1.0000
  H   H9        1.0  0.57158  0.71329  0.81563  1.0000
  H   H10       1.0  0.71329  0.57158  0.31563  1.0000
  H   H11       1.0  0.33004  0.74037  0.82468  1.0000
  H   H12       1.0  0.74037  0.33004  0.32468  1.0000
  H   H13       1.0  0.64586  0.07679  0.69514  1.0000
  H   H14       1.0  0.07679  0.64586  0.19514  1.0000
  C   C1        1.0  0.56193  0.84813  0.51629  1.0000
  C   C2        1.0  0.84813  0.56193  0.01629  1.0000
  C   C3        1.0  0.48335  0.81083  0.74511  1.0000
  C   C4        1.0  0.81083  0.48335  0.24511  1.0000
  C   C5        1.0  0.49320  0.00312  0.77197  1.0000
  C   C6        1.0  0.00312  0.49320  0.27197  1.0000
  C   C7        1.0  0.42115  0.95164  0.00402  1.0000
  C   C8        1.0  0.95164  0.42115  0.50402  1.0000
  O   O1        1.0  0.44925  0.76956  0.46112  1.0000
  O   O2        1.0  0.76957  0.44925  0.96112  1.0000
  O   O3        1.0  0.72566  0.95007  0.39572  1.0000
  O   O4        1.0  0.95007  0.72566  0.89572  1.0000
  O   O5        1.0  0.37214  0.12037  0.68334  1.0000
  O   O6        1.0  0.12037  0.37214  0.18335  1.0000
  O   O7        1.0  0.24865  0.95276  0.11095  1.0000
  O   O8        1.0  0.95276  0.24865  0.61096  1.0000
  O   O9        1.0  0.55737  0.89883  0.07588  1.0000
  O   O10       1.0  0.89882  0.55737  0.57588  1.0000
  O   O11       1.0  0.41184  0.25671  0.27747  1.0000
  O   O12       1.0  0.25671  0.41184  0.77747  1.0000
