data_image0
_chemical_formula_structural       K2B2H14C28O2F30
_chemical_formula_sum              "K2 B2 H14 C28 O2 F30"
_cell_length_a       8.85085
_cell_length_b       9.0315
_cell_length_c       11.8996
_cell_angle_alpha    78.0474
_cell_angle_beta     82.2085
_cell_angle_gamma    85.2997

_space_group_name_H-M_alt    "P 1"
_space_group_IT_number       1

loop_
  _space_group_symop_operation_xyz
  'x, y, z'

loop_
  _atom_site_type_symbol
  _atom_site_label
  _atom_site_symmetry_multiplicity
  _atom_site_fract_x
  _atom_site_fract_y
  _atom_site_fract_z
  _atom_site_occupancy
  K   K1        1.0  0.78571  0.29196  0.02756  1.0000
  K   K2        1.0  0.21429  0.70803  0.97244  1.0000
  B   B1        1.0  0.20778  0.19041  0.18718  1.0000
  B   B2        1.0  0.79223  0.80959  0.81282  1.0000
  H   H1        1.0  0.30331  0.04251  0.33939  1.0000
  H   H2        1.0  0.69670  0.95749  0.66061  1.0000
  H   H3        1.0  0.41000  0.02993  0.20554  1.0000
  H   H4        1.0  0.59000  0.97007  0.79446  1.0000
  H   H5        1.0  0.69722  0.34664  0.32814  1.0000
  H   H6        1.0  0.30278  0.65336  0.67187  1.0000
  H   H7        1.0  0.73922  0.39711  0.51872  1.0000
  H   H8        1.0  0.26077  0.60289  0.48129  1.0000
  H   H9        1.0  0.55342  0.31078  0.69242  1.0000
  H   H10       1.0  0.44657  0.68922  0.30758  1.0000
  H   H11       1.0  0.32846  0.17301  0.67470  1.0000
  H   H12       1.0  0.67153  0.82700  0.32529  1.0000
  H   H13       1.0  0.28973  0.11838  0.48641  1.0000
  H   H14       1.0  0.71026  0.88164  0.51358  1.0000
  C   C1        1.0  0.08349  0.28878  0.26531  1.0000
  C   C2        1.0  0.91651  0.71121  0.73469  1.0000
  C   C3        1.0  0.11176  0.44986  0.28294  1.0000
  C   C4        1.0  0.88823  0.55014  0.71706  1.0000
  C   C5        1.0  0.11658  0.04716  0.16319  1.0000
  C   C6        1.0  0.88341  0.95284  0.83681  1.0000
  C   C7        1.0  0.01784  0.94153  0.26143  1.0000
  C   C8        1.0  0.98216  0.05847  0.73857  1.0000
  C   C9        1.0  0.26093  0.30197  0.06066  1.0000
  C   C10       1.0  0.73907  0.69803  0.93934  1.0000
  C   C11       1.0  0.35824  0.24389  0.95749  1.0000
  C   C12       1.0  0.64176  0.75611  0.04251  1.0000
  C   C13       1.0  0.35200  0.11035  0.25718  1.0000
  C   C14       1.0  0.64801  0.88966  0.74282  1.0000
  C   C15       1.0  0.47797  0.20014  0.27689  1.0000
  C   C16       1.0  0.52204  0.79986  0.72311  1.0000
  C   C17       1.0  0.49183  0.22936  0.39361  1.0000
  C   C18       1.0  0.50817  0.77064  0.60639  1.0000
  C   C19       1.0  0.61766  0.30854  0.40481  1.0000
  C   C20       1.0  0.38234  0.69146  0.59520  1.0000
  C   C21       1.0  0.64066  0.33657  0.51146  1.0000
  C   C22       1.0  0.35934  0.66343  0.48854  1.0000
  C   C23       1.0  0.53640  0.28780  0.60881  1.0000
  C   C24       1.0  0.46359  0.71220  0.39119  1.0000
  C   C25       1.0  0.40997  0.21046  0.59886  1.0000
  C   C26       1.0  0.59002  0.78954  0.40114  1.0000
  C   C27       1.0  0.38800  0.18028  0.49212  1.0000
  C   C28       1.0  0.61199  0.81973  0.50787  1.0000
  O   O1        1.0  0.57824  0.24441  0.19563  1.0000
  O   O2        1.0  0.42177  0.75559  0.80437  1.0000
  F   F1        1.0  0.94047  0.31235  0.22189  1.0000
  F   F2        1.0  0.05953  0.68764  0.77811  1.0000
  F   F3        1.0  0.05536  0.20518  0.37735  1.0000
  F   F4        1.0  0.94464  0.79482  0.62265  1.0000
  F   F5        1.0  0.25316  0.45848  0.31142  1.0000
  F   F6        1.0  0.74683  0.54153  0.68858  1.0000
  F   F7        1.0  0.00877  0.49229  0.36707  1.0000
  F   F8        1.0  0.99122  0.50771  0.63293  1.0000
  F   F9        1.0  0.09617  0.55541  0.18380  1.0000
  F   F10       1.0  0.90382  0.44459  0.81620  1.0000
  F   F11       1.0  0.22275  0.94464  0.11621  1.0000
  F   F12       1.0  0.77725  0.05536  0.88379  1.0000
  F   F13       1.0  0.01688  0.09484  0.07853  1.0000
  F   F14       1.0  0.98312  0.90516  0.92147  1.0000
  F   F15       1.0  0.09782  0.87985  0.35068  1.0000
  F   F16       1.0  0.90218  0.12015  0.64932  1.0000
  F   F17       1.0  0.88940  0.01502  0.30267  1.0000
  F   F18       1.0  0.11060  0.98498  0.69733  1.0000
  F   F19       1.0  0.97211  0.82549  0.21909  1.0000
  F   F20       1.0  0.02789  0.17451  0.78091  1.0000
  F   F21       1.0  0.34567  0.41852  0.07774  1.0000
  F   F22       1.0  0.65432  0.58148  0.92226  1.0000
  F   F23       1.0  0.13428  0.37972  0.00896  1.0000
  F   F24       1.0  0.86573  0.62028  0.99104  1.0000
  F   F25       1.0  0.48877  0.16600  0.98912  1.0000
  F   F26       1.0  0.51123  0.83400  0.01088  1.0000
  F   F27       1.0  0.28024  0.15278  0.91181  1.0000
  F   F28       1.0  0.71976  0.84722  0.08820  1.0000
  F   F29       1.0  0.40006  0.36375  0.87136  1.0000
  F   F30       1.0  0.59995  0.63625  0.12864  1.0000
