data_image0
_chemical_formula_structural       Cu4H44C56N20O8
_chemical_formula_sum              "Cu4 H44 C56 N20 O8"
_cell_length_a       8.54654
_cell_length_b       12.7249
_cell_length_c       13.133
_cell_angle_alpha    102.088
_cell_angle_beta     90
_cell_angle_gamma    90

_space_group_name_H-M_alt    "P 1"
_space_group_IT_number       1

loop_
  _space_group_symop_operation_xyz
  'x, y, z'

loop_
  _atom_site_type_symbol
  _atom_site_label
  _atom_site_symmetry_multiplicity
  _atom_site_fract_x
  _atom_site_fract_y
  _atom_site_fract_z
  _atom_site_occupancy
  Cu  Cu1       1.0  0.99163  0.65085  0.75588  1.0000
  Cu  Cu2       1.0  0.49163  0.84916  0.74412  1.0000
  Cu  Cu3       1.0  0.00838  0.34915  0.24412  1.0000
  Cu  Cu4       1.0  0.50838  0.15084  0.25588  1.0000
  H   H1        1.0  0.79498  0.60971  0.55607  1.0000
  H   H2        1.0  0.29498  0.89030  0.94394  1.0000
  H   H3        1.0  0.20502  0.39030  0.44395  1.0000
  H   H4        1.0  0.70501  0.10970  0.05606  1.0000
  H   H5        1.0  0.72473  0.44247  0.42556  1.0000
  H   H6        1.0  0.22474  0.05754  0.07444  1.0000
  H   H7        1.0  0.27527  0.55754  0.57446  1.0000
  H   H8        1.0  0.77525  0.94246  0.92555  1.0000
  H   H9        1.0  0.80312  0.26268  0.46436  1.0000
  H   H10       1.0  0.30312  0.23733  0.03563  1.0000
  H   H11       1.0  0.19688  0.73733  0.53564  1.0000
  H   H12       1.0  0.69689  0.76267  0.96437  1.0000
  H   H13       1.0  0.94092  0.25789  0.62895  1.0000
  H   H14       1.0  0.44093  0.24211  0.87104  1.0000
  H   H15       1.0  0.05909  0.74212  0.37105  1.0000
  H   H16       1.0  0.55909  0.75788  0.12896  1.0000
  H   H17       1.0  0.95475  0.71586  0.93234  1.0000
  H   H18       1.0  0.45476  0.78414  0.56765  1.0000
  H   H19       1.0  0.04524  0.28415  0.06766  1.0000
  H   H20       1.0  0.54526  0.21583  0.43236  1.0000
  H   H21       1.0  0.98982  0.87678  0.07206  1.0000
  H   H22       1.0  0.48983  0.62323  0.42793  1.0000
  H   H23       1.0  0.01020  0.12325  0.92793  1.0000
  H   H24       1.0  0.51020  0.37675  0.57207  1.0000
  H   H25       1.0  0.18228  0.87351  0.21647  1.0000
  H   H26       1.0  0.68229  0.62649  0.28352  1.0000
  H   H27       1.0  0.81774  0.12651  0.78351  1.0000
  H   H28       1.0  0.31773  0.37349  0.71648  1.0000
  H   H29       1.0  0.33383  0.70996  0.21674  1.0000
  H   H30       1.0  0.83385  0.79004  0.28325  1.0000
  H   H31       1.0  0.66618  0.29006  0.78325  1.0000
  H   H32       1.0  0.16617  0.20995  0.71675  1.0000
  H   H33       1.0  0.54935  0.46461  0.26076  1.0000
  H   H34       1.0  0.04939  0.03539  0.23924  1.0000
  H   H35       1.0  0.45058  0.53539  0.73927  1.0000
  H   H36       1.0  0.95059  0.96461  0.76075  1.0000
  H   H37       1.0  0.57924  0.42097  0.12290  1.0000
  H   H38       1.0  0.07926  0.07904  0.37709  1.0000
  H   H39       1.0  0.42074  0.57906  0.87713  1.0000
  H   H40       1.0  0.92075  0.92095  0.62290  1.0000
  H   H41       1.0  0.41731  0.37020  0.18510  1.0000
  H   H42       1.0  0.91733  0.12979  0.31488  1.0000
  H   H43       1.0  0.58265  0.62980  0.81489  1.0000
  H   H44       1.0  0.08266  0.87020  0.68512  1.0000
  C   C1        1.0  0.82574  0.53004  0.56826  1.0000
  C   C2        1.0  0.32575  0.96997  0.93174  1.0000
  C   C3        1.0  0.17426  0.46997  0.43175  1.0000
  C   C4        1.0  0.67425  0.03002  0.06826  1.0000
  C   C5        1.0  0.78645  0.43726  0.49680  1.0000
  C   C6        1.0  0.28645  0.06275  0.00320  1.0000
  C   C7        1.0  0.21355  0.56275  0.50321  1.0000
  C   C8        1.0  0.71354  0.93725  0.99679  1.0000
  C   C9        1.0  0.83076  0.33777  0.51813  1.0000
  C   C10       1.0  0.33077  0.16223  0.98186  1.0000
  C   C11       1.0  0.16924  0.66224  0.48187  1.0000
  C   C12       1.0  0.66924  0.83776  0.01813  1.0000
  C   C13       1.0  0.90943  0.33399  0.60931  1.0000
  C   C14       1.0  0.40944  0.16601  0.89068  1.0000
  C   C15       1.0  0.09058  0.66601  0.39069  1.0000
  C   C16       1.0  0.59057  0.83398  0.10931  1.0000
  C   C17       1.0  0.94790  0.43112  0.67851  1.0000
  C   C18       1.0  0.44791  0.06888  0.82148  1.0000
  C   C19       1.0  0.05212  0.56889  0.32149  1.0000
  C   C20       1.0  0.55210  0.93111  0.17851  1.0000
  C   C21       1.0  0.13192  0.62187  0.98968  1.0000
  C   C22       1.0  0.63192  0.87813  0.51031  1.0000
  C   C23       1.0  0.86807  0.37813  0.01032  1.0000
  C   C24       1.0  0.36807  0.12186  0.48969  1.0000
  C   C25       1.0  0.04372  0.71608  0.99201  1.0000
  C   C26       1.0  0.54372  0.78393  0.50798  1.0000
  C   C27       1.0  0.95628  0.28394  0.00799  1.0000
  C   C28       1.0  0.45629  0.21606  0.49202  1.0000
  C   C29       1.0  0.06188  0.80593  0.07179  1.0000
  C   C30       1.0  0.56189  0.69407  0.42820  1.0000
  C   C31       1.0  0.93814  0.19409  0.92820  1.0000
  C   C32       1.0  0.43814  0.30591  0.57180  1.0000
  C   C33       1.0  0.16755  0.80435  0.15264  1.0000
  C   C34       1.0  0.66756  0.69565  0.34736  1.0000
  C   C35       1.0  0.83246  0.19567  0.84736  1.0000
  C   C36       1.0  0.33245  0.30433  0.65264  1.0000
  C   C37       1.0  0.25350  0.71171  0.15286  1.0000
  C   C38       1.0  0.75351  0.78829  0.34713  1.0000
  C   C39       1.0  0.74652  0.28831  0.84713  1.0000
  C   C40       1.0  0.24650  0.21169  0.65287  1.0000
  C   C41       1.0  0.23775  0.61994  0.07316  1.0000
  C   C42       1.0  0.73776  0.88006  0.42683  1.0000
  C   C43       1.0  0.76224  0.38007  0.92684  1.0000
  C   C44       1.0  0.26223  0.11993  0.57317  1.0000
  C   C45       1.0  0.32669  0.52115  0.07901  1.0000
  C   C46       1.0  0.82669  0.97886  0.42098  1.0000
  C   C47       1.0  0.67329  0.47886  0.92100  1.0000
  C   C48       1.0  0.17328  0.02114  0.57900  1.0000
  C   C49       1.0  0.49195  0.44017  0.18508  1.0000
  C   C50       1.0  0.99198  0.05982  0.31492  1.0000
  C   C51       1.0  0.50800  0.55983  0.81494  1.0000
  C   C52       1.0  0.00801  0.94017  0.68508  1.0000
  C   C53       1.0  0.82053  0.74901  0.75340  1.0000
  C   C54       1.0  0.32054  0.75100  0.74659  1.0000
  C   C55       1.0  0.17947  0.25099  0.24660  1.0000
  C   C56       1.0  0.67946  0.24900  0.25340  1.0000
  N   N1        1.0  0.04987  0.52423  0.82779  1.0000
  N   N2        1.0  0.54988  0.97576  0.67221  1.0000
  N   N3        1.0  0.95013  0.47577  0.17222  1.0000
  N   N4        1.0  0.45013  0.02422  0.32779  1.0000
  N   N5        1.0  0.02592  0.42874  0.76855  1.0000
  N   N6        1.0  0.52592  0.07125  0.73144  1.0000
  N   N7        1.0  0.97409  0.57126  0.23145  1.0000
  N   N8        1.0  0.47409  0.92874  0.26856  1.0000
  N   N9        1.0  0.10990  0.52771  0.91691  1.0000
  N   N10       1.0  0.60991  0.97228  0.58309  1.0000
  N   N11       1.0  0.89009  0.47229  0.08311  1.0000
  N   N12       1.0  0.39009  0.02770  0.41690  1.0000
  N   N13       1.0  0.90652  0.52717  0.65559  1.0000
  N   N14       1.0  0.40652  0.97283  0.84441  1.0000
  N   N15       1.0  0.09349  0.47283  0.34442  1.0000
  N   N16       1.0  0.59348  0.02717  0.15559  1.0000
  N   N17       1.0  0.69935  0.78931  0.74351  1.0000
  N   N18       1.0  0.19935  0.71069  0.75648  1.0000
  N   N19       1.0  0.30067  0.21068  0.25649  1.0000
  N   N20       1.0  0.80067  0.28931  0.24351  1.0000
  O   O1        1.0  0.33529  0.43884  0.01096  1.0000
  O   O2        1.0  0.83526  0.06117  0.48901  1.0000
  O   O3        1.0  0.66469  0.56117  0.98904  1.0000
  O   O4        1.0  0.16468  0.93883  0.51097  1.0000
  O   O5        1.0  0.39899  0.53119  0.17278  1.0000
  O   O6        1.0  0.89903  0.96880  0.32722  1.0000
  O   O7        1.0  0.60097  0.46881  0.82723  1.0000
  O   O8        1.0  0.10098  0.03119  0.67278  1.0000
