data_image0
_chemical_formula_structural       CuH10C16N2O4F12
_chemical_formula_sum              "Cu1 H10 C16 N2 O4 F12"
_cell_length_a       7.77259
_cell_length_b       8.60696
_cell_length_c       8.79776
_cell_angle_alpha    94.8793
_cell_angle_beta     114.341
_cell_angle_gamma    99.6528

_space_group_name_H-M_alt    "P 1"
_space_group_IT_number       1

loop_
  _space_group_symop_operation_xyz
  'x, y, z'

loop_
  _atom_site_type_symbol
  _atom_site_label
  _atom_site_symmetry_multiplicity
  _atom_site_fract_x
  _atom_site_fract_y
  _atom_site_fract_z
  _atom_site_occupancy
  Cu  Cu1       1.0  0.00000  0.00000  0.00000  1.0000
  H   H1        1.0  0.22177  0.77835  0.90328  1.0000
  H   H2        1.0  0.77823  0.22165  0.09672  1.0000
  H   H3        1.0  0.50614  0.32104  0.26041  1.0000
  H   H4        1.0  0.49386  0.67897  0.73959  1.0000
  H   H5        1.0  0.31241  0.31773  0.06258  1.0000
  H   H6        1.0  0.68759  0.68227  0.93742  1.0000
  H   H7        1.0  0.55693  0.40155  0.10114  1.0000
  H   H8        1.0  0.44307  0.59845  0.89886  1.0000
  H   H9        1.0  0.25249  0.88322  0.50973  1.0000
  H   H10       1.0  0.74752  0.11678  0.49027  1.0000
  C   C1        1.0  0.34761  0.87800  0.94648  1.0000
  C   C2        1.0  0.65238  0.12200  0.05352  1.0000
  C   C3        1.0  0.48037  0.14506  0.05879  1.0000
  C   C4        1.0  0.51963  0.85494  0.94120  1.0000
  C   C5        1.0  0.46263  0.30526  0.12324  1.0000
  C   C6        1.0  0.53737  0.69474  0.87676  1.0000
  C   C7        1.0  0.10702  0.61362  0.27333  1.0000
  C   C8        1.0  0.89298  0.38637  0.72666  1.0000
  C   C9        1.0  0.10845  0.78796  0.24329  1.0000
  C   C10       1.0  0.89156  0.21205  0.75672  1.0000
  C   C11       1.0  0.19032  0.91196  0.38325  1.0000
  C   C12       1.0  0.80968  0.08804  0.61675  1.0000
  C   C13       1.0  0.18623  0.07117  0.36400  1.0000
  C   C14       1.0  0.81377  0.92882  0.63601  1.0000
  C   C15       1.0  0.27369  0.20082  0.52402  1.0000
  C   C16       1.0  0.72631  0.79918  0.47598  1.0000
  N   N1        1.0  0.32743  0.01966  0.00393  1.0000
  N   N2        1.0  0.67257  0.98034  0.99607  1.0000
  O   O1        1.0  0.03009  0.79775  0.08754  1.0000
  O   O2        1.0  0.96991  0.20225  0.91246  1.0000
  O   O3        1.0  0.11715  0.12865  0.22895  1.0000
  O   O4        1.0  0.88285  0.87135  0.77105  1.0000
  F   F1        1.0  0.92127  0.52517  0.20266  1.0000
  F   F2        1.0  0.07873  0.47483  0.79734  1.0000
  F   F3        1.0  0.18742  0.60156  0.43998  1.0000
  F   F4        1.0  0.81259  0.39844  0.56002  1.0000
  F   F5        1.0  0.20490  0.54593  0.19886  1.0000
  F   F6        1.0  0.79510  0.45407  0.80114  1.0000
  F   F7        1.0  0.13652  0.27727  0.52995  1.0000
  F   F8        1.0  0.86348  0.72272  0.47005  1.0000
  F   F9        1.0  0.41889  0.31224  0.52237  1.0000
  F   F10       1.0  0.58110  0.68777  0.47763  1.0000
  F   F11       1.0  0.34790  0.14109  0.67056  1.0000
  F   F12       1.0  0.65211  0.85891  0.32945  1.0000
