data_image0
_chemical_formula_structural       Cu2P2H30C30I2N12O2
_chemical_formula_sum              "Cu2 P2 H30 C30 I2 N12 O2"
_cell_length_a       8.96894
_cell_length_b       10.7732
_cell_length_c       10.7394
_cell_angle_alpha    116.104
_cell_angle_beta     102.355
_cell_angle_gamma    96.8279

_space_group_name_H-M_alt    "P 1"
_space_group_IT_number       1

loop_
  _space_group_symop_operation_xyz
  'x, y, z'

loop_
  _atom_site_type_symbol
  _atom_site_label
  _atom_site_symmetry_multiplicity
  _atom_site_fract_x
  _atom_site_fract_y
  _atom_site_fract_z
  _atom_site_occupancy
  Cu  Cu1       1.0  0.96959  0.05040  0.12358  1.0000
  Cu  Cu2       1.0  0.03041  0.94960  0.87642  1.0000
  P   P1        1.0  0.43009  0.54936  0.81643  1.0000
  P   P2        1.0  0.56991  0.45064  0.18357  1.0000
  H   H1        1.0  0.28947  0.52506  0.59173  1.0000
  H   H2        1.0  0.71053  0.47495  0.40828  1.0000
  H   H3        1.0  0.64049  0.72026  0.85525  1.0000
  H   H4        1.0  0.35951  0.27974  0.14475  1.0000
  H   H5        1.0  0.60058  0.45505  0.92077  1.0000
  H   H6        1.0  0.39942  0.54495  0.07923  1.0000
  H   H7        1.0  0.08957  0.91587  0.30022  1.0000
  H   H8        1.0  0.91042  0.08413  0.69977  1.0000
  H   H9        1.0  0.23242  0.74225  0.85465  1.0000
  H   H10       1.0  0.76758  0.25775  0.14535  1.0000
  H   H11       1.0  0.94083  0.32379  0.49482  1.0000
  H   H12       1.0  0.05916  0.67621  0.50519  1.0000
  H   H13       1.0  0.16693  0.32825  0.36273  1.0000
  H   H14       1.0  0.83307  0.67176  0.63727  1.0000
  H   H15       1.0  0.00201  0.30277  0.72364  1.0000
  H   H16       1.0  0.99799  0.69723  0.27636  1.0000
  H   H17       1.0  0.66171  0.91595  0.80293  1.0000
  H   H18       1.0  0.33829  0.08405  0.19707  1.0000
  H   H19       1.0  0.30983  0.26307  0.73645  1.0000
  H   H20       1.0  0.69016  0.73692  0.26355  1.0000
  H   H21       1.0  0.82258  0.36537  0.87890  1.0000
  H   H22       1.0  0.17742  0.63463  0.12110  1.0000
  H   H23       1.0  0.55215  0.47803  0.57760  1.0000
  H   H24       1.0  0.44785  0.52197  0.42241  1.0000
  H   H25       1.0  0.54282  0.11553  0.80326  1.0000
  H   H26       1.0  0.45719  0.88447  0.19674  1.0000
  H   H27       1.0  0.20987  0.00095  0.56610  1.0000
  H   H28       1.0  0.79012  0.99905  0.43390  1.0000
  H   H29       1.0  0.27299  0.11914  0.83480  1.0000
  H   H30       1.0  0.72701  0.88086  0.16520  1.0000
  C   C1        1.0  0.66952  0.42407  0.73874  1.0000
  C   C2        1.0  0.33048  0.57593  0.26126  1.0000
  C   C3        1.0  0.45463  0.81134  0.82510  1.0000
  C   C4        1.0  0.54537  0.18866  0.17490  1.0000
  C   C5        1.0  0.13518  0.02877  0.37819  1.0000
  C   C6        1.0  0.86481  0.97123  0.62180  1.0000
  C   C7        1.0  0.25067  0.31820  0.56331  1.0000
  C   C8        1.0  0.74932  0.68180  0.43669  1.0000
  C   C9        1.0  0.30388  0.82090  0.83936  1.0000
  C   C10       1.0  0.69612  0.17910  0.16065  1.0000
  C   C11       1.0  0.86626  0.35144  0.56610  1.0000
  C   C12       1.0  0.13374  0.64856  0.43390  1.0000
  C   C13       1.0  0.17918  0.25973  0.41291  1.0000
  C   C14       1.0  0.82082  0.74027  0.58709  1.0000
  C   C15       1.0  0.89797  0.33766  0.69188  1.0000
  C   C16       1.0  0.10203  0.66234  0.30812  1.0000
  C   C17       1.0  0.54274  0.91855  0.81097  1.0000
  C   C18       1.0  0.45726  0.08145  0.18903  1.0000
  C   C19       1.0  0.25926  0.22297  0.62028  1.0000
  C   C20       1.0  0.74074  0.77703  0.37972  1.0000
  C   C21       1.0  0.79875  0.37302  0.77881  1.0000
  C   C22       1.0  0.20125  0.62698  0.22120  1.0000
  C   C23       1.0  0.64800  0.43536  0.61107  1.0000
  C   C24       1.0  0.35200  0.56464  0.38894  1.0000
  C   C25       1.0  0.47683  0.02921  0.81154  1.0000
  C   C26       1.0  0.52317  0.97079  0.18846  1.0000
  C   C27       1.0  0.20279  0.07738  0.52559  1.0000
  C   C28       1.0  0.79721  0.92262  0.47441  1.0000
  C   C29       1.0  0.32712  0.03172  0.82744  1.0000
  C   C30       1.0  0.67289  0.96828  0.17256  1.0000
  I   I1        1.0  0.05378  0.22600  0.02805  1.0000
  I   I2        1.0  0.94622  0.77400  0.97194  1.0000
  N   N1        1.0  0.12148  0.11920  0.32304  1.0000
  N   N2        1.0  0.87852  0.88080  0.67696  1.0000
  N   N3        1.0  0.31054  0.46487  0.64661  1.0000
  N   N4        1.0  0.68947  0.53513  0.35339  1.0000
  N   N5        1.0  0.51936  0.70097  0.82896  1.0000
  N   N6        1.0  0.48064  0.29903  0.17105  1.0000
  N   N7        1.0  0.57162  0.46548  0.82682  1.0000
  N   N8        1.0  0.42839  0.53452  0.17318  1.0000
  N   N9        1.0  0.24234  0.92952  0.84202  1.0000
  N   N10       1.0  0.75767  0.07048  0.15798  1.0000
  N   N11       1.0  0.74333  0.40025  0.52731  1.0000
  N   N12       1.0  0.25667  0.59975  0.47270  1.0000
  O   O1        1.0  0.34991  0.56248  0.92826  1.0000
  O   O2        1.0  0.65009  0.43752  0.07174  1.0000
