data_image0
_chemical_formula_structural       Cu4P4H48C28N4O20
_chemical_formula_sum              "Cu4 P4 H48 C28 N4 O20"
_cell_length_a       7.01627
_cell_length_b       8.22983
_cell_length_c       16.8642
_cell_angle_alpha    90
_cell_angle_beta     90
_cell_angle_gamma    90

_space_group_name_H-M_alt    "P 1"
_space_group_IT_number       1

loop_
  _space_group_symop_operation_xyz
  'x, y, z'

loop_
  _atom_site_type_symbol
  _atom_site_label
  _atom_site_symmetry_multiplicity
  _atom_site_fract_x
  _atom_site_fract_y
  _atom_site_fract_z
  _atom_site_occupancy
  Cu  Cu1       1.0  0.77661  0.07325  0.00899  1.0000
  Cu  Cu2       1.0  0.72339  0.92675  0.50899  1.0000
  Cu  Cu3       1.0  0.22340  0.57325  0.49102  1.0000
  Cu  Cu4       1.0  0.27661  0.42675  0.99101  1.0000
  P   P1        1.0  0.06959  0.82311  0.04373  1.0000
  P   P2        1.0  0.43041  0.17689  0.54373  1.0000
  P   P3        1.0  0.93041  0.32311  0.45627  1.0000
  P   P4        1.0  0.56959  0.67690  0.95627  1.0000
  H   H1        1.0  0.78796  0.75990  0.11658  1.0000
  H   H2        1.0  0.71205  0.24010  0.61657  1.0000
  H   H3        1.0  0.21205  0.25991  0.38342  1.0000
  H   H4        1.0  0.28795  0.74009  0.88342  1.0000
  H   H5        1.0  0.97075  0.81872  0.18426  1.0000
  H   H6        1.0  0.52925  0.18127  0.68426  1.0000
  H   H7        1.0  0.02925  0.31873  0.31573  1.0000
  H   H8        1.0  0.47075  0.68128  0.81573  1.0000
  H   H9        1.0  0.08859  0.12809  0.12228  1.0000
  H   H10       1.0  0.41141  0.87191  0.62228  1.0000
  H   H11       1.0  0.91141  0.62810  0.37773  1.0000
  H   H12       1.0  0.58859  0.37191  0.87773  1.0000
  H   H13       1.0  0.99607  0.09828  0.21971  1.0000
  H   H14       1.0  0.50393  0.90173  0.71971  1.0000
  H   H15       1.0  0.00392  0.59828  0.28030  1.0000
  H   H16       1.0  0.49608  0.40172  0.78029  1.0000
  H   H17       1.0  0.85670  0.34404  0.09465  1.0000
  H   H18       1.0  0.64330  0.65596  0.59465  1.0000
  H   H19       1.0  0.14330  0.84405  0.40535  1.0000
  H   H20       1.0  0.35670  0.15595  0.90535  1.0000
  H   H21       1.0  0.98442  0.38891  0.18078  1.0000
  H   H22       1.0  0.51557  0.61109  0.68078  1.0000
  H   H23       1.0  0.01557  0.88892  0.31922  1.0000
  H   H24       1.0  0.48444  0.11108  0.81922  1.0000
  H   H25       1.0  0.62496  0.43622  0.19518  1.0000
  H   H26       1.0  0.87503  0.56378  0.69519  1.0000
  H   H27       1.0  0.37503  0.93623  0.30481  1.0000
  H   H28       1.0  0.12497  0.06377  0.80481  1.0000
  H   H29       1.0  0.71555  0.29826  0.26667  1.0000
  H   H30       1.0  0.78444  0.70174  0.76668  1.0000
  H   H31       1.0  0.28444  0.79827  0.23332  1.0000
  H   H32       1.0  0.21557  0.20173  0.73332  1.0000
  H   H33       1.0  0.42878  0.17866  0.21686  1.0000
  H   H34       1.0  0.07122  0.82134  0.71686  1.0000
  H   H35       1.0  0.57122  0.67866  0.28314  1.0000
  H   H36       1.0  0.92879  0.32133  0.78314  1.0000
  H   H37       1.0  0.67993  0.98323  0.23703  1.0000
  H   H38       1.0  0.82007  0.01678  0.73703  1.0000
  H   H39       1.0  0.32006  0.48323  0.26297  1.0000
  H   H40       1.0  0.17994  0.51677  0.76297  1.0000
  H   H41       1.0  0.54678  0.92337  0.15174  1.0000
  H   H42       1.0  0.95321  0.07662  0.65174  1.0000
  H   H43       1.0  0.45321  0.42338  0.34827  1.0000
  H   H44       1.0  0.04679  0.57662  0.84826  1.0000
  H   H45       1.0  0.38512  0.86363  0.03997  1.0000
  H   H46       1.0  0.11487  0.13638  0.53997  1.0000
  H   H47       1.0  0.61488  0.36363  0.46004  1.0000
  H   H48       1.0  0.88512  0.63637  0.96003  1.0000
  C   C1        1.0  0.90356  0.84751  0.12689  1.0000
  C   C2        1.0  0.59644  0.15249  0.62689  1.0000
  C   C3        1.0  0.09644  0.34751  0.37311  1.0000
  C   C4        1.0  0.40356  0.65249  0.87311  1.0000
  C   C5        1.0  0.95910  0.13433  0.15821  1.0000
  C   C6        1.0  0.54090  0.86567  0.65821  1.0000
  C   C7        1.0  0.04090  0.63434  0.34179  1.0000
  C   C8        1.0  0.45911  0.36566  0.84179  1.0000
  C   C9        1.0  0.87693  0.30549  0.15650  1.0000
  C   C10       1.0  0.62307  0.69451  0.65650  1.0000
  C   C11       1.0  0.12307  0.80550  0.34350  1.0000
  C   C12       1.0  0.37693  0.19450  0.84350  1.0000
  C   C13       1.0  0.69040  0.31583  0.20274  1.0000
  C   C14       1.0  0.80959  0.68417  0.70274  1.0000
  C   C15       1.0  0.30959  0.81583  0.29726  1.0000
  C   C16       1.0  0.19041  0.18417  0.79726  1.0000
  C   C17       1.0  0.54902  0.18323  0.17512  1.0000
  C   C18       1.0  0.95097  0.81676  0.67512  1.0000
  C   C19       1.0  0.45097  0.68324  0.32488  1.0000
  C   C20       1.0  0.04903  0.31676  0.82488  1.0000
  C   C21       1.0  0.64374  0.01605  0.17513  1.0000
  C   C22       1.0  0.85625  0.98395  0.67513  1.0000
  C   C23       1.0  0.35625  0.51606  0.32487  1.0000
  C   C24       1.0  0.14375  0.48394  0.82487  1.0000
  C   C25       1.0  0.46551  0.23287  0.09547  1.0000
  C   C26       1.0  0.03449  0.76713  0.59548  1.0000
  C   C27       1.0  0.53450  0.73287  0.40452  1.0000
  C   C28       1.0  0.96550  0.26712  0.90452  1.0000
  N   N1        1.0  0.82054  0.01292  0.12725  1.0000
  N   N2        1.0  0.67946  0.98707  0.62725  1.0000
  N   N3        1.0  0.17946  0.51293  0.37275  1.0000
  N   N4        1.0  0.32054  0.48707  0.87275  1.0000
  O   O1        1.0  0.31534  0.31987  0.09759  1.0000
  O   O2        1.0  0.18465  0.68014  0.59760  1.0000
  O   O3        1.0  0.68465  0.81987  0.40241  1.0000
  O   O4        1.0  0.81535  0.18013  0.90240  1.0000
  O   O5        1.0  0.54574  0.19676  0.02987  1.0000
  O   O6        1.0  0.95425  0.80324  0.52986  1.0000
  O   O7        1.0  0.45426  0.69676  0.47013  1.0000
  O   O8        1.0  0.04574  0.30325  0.97013  1.0000
  O   O9        1.0  0.00528  0.94758  0.98194  1.0000
  O   O10       1.0  0.49472  0.05243  0.48193  1.0000
  O   O11       1.0  0.99473  0.44757  0.51807  1.0000
  O   O12       1.0  0.50528  0.55243  0.01807  1.0000
  O   O13       1.0  0.05957  0.64817  0.01383  1.0000
  O   O14       1.0  0.44042  0.35183  0.51383  1.0000
  O   O15       1.0  0.94043  0.14817  0.48617  1.0000
  O   O16       1.0  0.55958  0.85183  0.98617  1.0000
  O   O17       1.0  0.27111  0.86632  0.07964  1.0000
  O   O18       1.0  0.22889  0.13367  0.57964  1.0000
  O   O19       1.0  0.72889  0.36634  0.42037  1.0000
  O   O20       1.0  0.77111  0.63367  0.92036  1.0000
