data_image0
_chemical_formula_structural       Cu4P4H64C32N4O24
_chemical_formula_sum              "Cu4 P4 H64 C32 N4 O24"
_cell_length_a       6.99901
_cell_length_b       11.1848
_cell_length_c       14.25
_cell_angle_alpha    90
_cell_angle_beta     90
_cell_angle_gamma    90

_space_group_name_H-M_alt    "P 1"
_space_group_IT_number       1

loop_
  _space_group_symop_operation_xyz
  'x, y, z'

loop_
  _atom_site_type_symbol
  _atom_site_label
  _atom_site_symmetry_multiplicity
  _atom_site_fract_x
  _atom_site_fract_y
  _atom_site_fract_z
  _atom_site_occupancy
  Cu  Cu1       1.0  0.71736  0.40786  0.99958  1.0000
  Cu  Cu2       1.0  0.78265  0.59215  0.49958  1.0000
  Cu  Cu3       1.0  0.28264  0.90786  0.50041  1.0000
  Cu  Cu4       1.0  0.21736  0.09215  0.00042  1.0000
  P   P1        1.0  0.93790  0.63530  0.96559  1.0000
  P   P2        1.0  0.56210  0.36471  0.46558  1.0000
  P   P3        1.0  0.06210  0.13531  0.53441  1.0000
  P   P4        1.0  0.43790  0.86470  0.03441  1.0000
  H   H1        1.0  0.87550  0.46676  0.74121  1.0000
  H   H2        1.0  0.62451  0.53324  0.24120  1.0000
  H   H3        1.0  0.12450  0.96677  0.75879  1.0000
  H   H4        1.0  0.37550  0.03324  0.25879  1.0000
  H   H5        1.0  0.00542  0.43869  0.84715  1.0000
  H   H6        1.0  0.49458  0.56131  0.34714  1.0000
  H   H7        1.0  0.99457  0.93869  0.65286  1.0000
  H   H8        1.0  0.50543  0.06132  0.15286  1.0000
  H   H9        1.0  0.84103  0.24619  0.86772  1.0000
  H   H10       1.0  0.65898  0.75380  0.36772  1.0000
  H   H11       1.0  0.15896  0.74619  0.63228  1.0000
  H   H12       1.0  0.34104  0.25381  0.13228  1.0000
  H   H13       1.0  0.94358  0.25195  0.75502  1.0000
  H   H14       1.0  0.55643  0.74805  0.25502  1.0000
  H   H15       1.0  0.05641  0.75195  0.74498  1.0000
  H   H16       1.0  0.44358  0.24805  0.24498  1.0000
  H   H17       1.0  0.60469  0.17510  0.74773  1.0000
  H   H18       1.0  0.89532  0.82490  0.24773  1.0000
  H   H19       1.0  0.39531  0.67510  0.75226  1.0000
  H   H20       1.0  0.10469  0.32490  0.25226  1.0000
  H   H21       1.0  0.63943  0.30658  0.68131  1.0000
  H   H22       1.0  0.86057  0.69342  0.18130  1.0000
  H   H23       1.0  0.36057  0.80658  0.81869  1.0000
  H   H24       1.0  0.13943  0.19343  0.31870  1.0000
  H   H25       1.0  0.34576  0.33254  0.76314  1.0000
  H   H26       1.0  0.15425  0.66745  0.26314  1.0000
  H   H27       1.0  0.65424  0.83255  0.73685  1.0000
  H   H28       1.0  0.84576  0.16746  0.23686  1.0000
  H   H29       1.0  0.53400  0.50861  0.75030  1.0000
  H   H30       1.0  0.96600  0.49138  0.25029  1.0000
  H   H31       1.0  0.46599  0.00862  0.74970  1.0000
  H   H32       1.0  0.03401  0.99139  0.24970  1.0000
  H   H33       1.0  0.41929  0.51283  0.86260  1.0000
  H   H34       1.0  0.08071  0.48716  0.36260  1.0000
  H   H35       1.0  0.58070  0.01284  0.63739  1.0000
  H   H36       1.0  0.91930  0.98717  0.13740  1.0000
  H   H37       1.0  0.63055  0.65893  0.89895  1.0000
  H   H38       1.0  0.86945  0.34106  0.39895  1.0000
  H   H39       1.0  0.36944  0.15893  0.60105  1.0000
  H   H40       1.0  0.13056  0.84107  0.10105  1.0000
  H   H41       1.0  0.80151  0.64873  0.80602  1.0000
  H   H42       1.0  0.69847  0.35126  0.30602  1.0000
  H   H43       1.0  0.19848  0.14873  0.69398  1.0000
  H   H44       1.0  0.30153  0.85127  0.19398  1.0000
  H   H45       1.0  0.33671  0.45499  0.18386  1.0000
  H   H46       1.0  0.16330  0.54501  0.68386  1.0000
  H   H47       1.0  0.66329  0.95498  0.31615  1.0000
  H   H48       1.0  0.83672  0.04502  0.81614  1.0000
  H   H49       1.0  0.24929  0.43706  0.06654  1.0000
  H   H50       1.0  0.25071  0.56294  0.56654  1.0000
  H   H51       1.0  0.75070  0.93705  0.43347  1.0000
  H   H52       1.0  0.74930  0.06294  0.93347  1.0000
  H   H53       1.0  0.22531  0.57683  0.12410  1.0000
  H   H54       1.0  0.27469  0.42317  0.62410  1.0000
  H   H55       1.0  0.77469  0.07682  0.37591  1.0000
  H   H56       1.0  0.72531  0.92317  0.87590  1.0000
  H   H57       1.0  0.24428  0.68044  0.94549  1.0000
  H   H58       1.0  0.25571  0.31956  0.44549  1.0000
  H   H59       1.0  0.75571  0.18044  0.55452  1.0000
  H   H60       1.0  0.74429  0.81956  0.05451  1.0000
  H   H61       1.0  0.48674  0.61261  0.04999  1.0000
  H   H62       1.0  0.01326  0.38739  0.54999  1.0000
  H   H63       1.0  0.51326  0.11261  0.45001  1.0000
  H   H64       1.0  0.98674  0.88739  0.95001  1.0000
  C   C1        1.0  0.86952  0.42307  0.81073  1.0000
  C   C2        1.0  0.63048  0.57693  0.31072  1.0000
  C   C3        1.0  0.13047  0.92307  0.68928  1.0000
  C   C4        1.0  0.36952  0.07694  0.18928  1.0000
  C   C5        1.0  0.83074  0.29063  0.79913  1.0000
  C   C6        1.0  0.66926  0.70937  0.29913  1.0000
  C   C7        1.0  0.16925  0.79063  0.70087  1.0000
  C   C8        1.0  0.33074  0.20937  0.20087  1.0000
  C   C9        1.0  0.63685  0.27063  0.75315  1.0000
  C   C10       1.0  0.86316  0.72937  0.25315  1.0000
  C   C11       1.0  0.36315  0.77063  0.74685  1.0000
  C   C12       1.0  0.13685  0.22938  0.24685  1.0000
  C   C13       1.0  0.47549  0.33511  0.80649  1.0000
  C   C14       1.0  0.02451  0.66488  0.30649  1.0000
  C   C15       1.0  0.52451  0.83511  0.69350  1.0000
  C   C16       1.0  0.97549  0.16489  0.19351  1.0000
  C   C17       1.0  0.52726  0.46625  0.82035  1.0000
  C   C18       1.0  0.97274  0.53375  0.32034  1.0000
  C   C19       1.0  0.47273  0.96625  0.67965  1.0000
  C   C20       1.0  0.02727  0.03375  0.17965  1.0000
  C   C21       1.0  0.42537  0.26898  0.89652  1.0000
  C   C22       1.0  0.07463  0.73102  0.39651  1.0000
  C   C23       1.0  0.57462  0.76898  0.60347  1.0000
  C   C24       1.0  0.92538  0.23102  0.10348  1.0000
  C   C25       1.0  0.75900  0.61163  0.87462  1.0000
  C   C26       1.0  0.74099  0.38836  0.37462  1.0000
  C   C27       1.0  0.24098  0.11163  0.62537  1.0000
  C   C28       1.0  0.25901  0.88837  0.12538  1.0000
  C   C29       1.0  0.31930  0.49896  0.11549  1.0000
  C   C30       1.0  0.18071  0.50103  0.61549  1.0000
  C   C31       1.0  0.68070  0.99896  0.38452  1.0000
  C   C32       1.0  0.81930  0.00104  0.88451  1.0000
  N   N1        1.0  0.71552  0.48244  0.86636  1.0000
  N   N2        1.0  0.78448  0.51755  0.36636  1.0000
  N   N3        1.0  0.28447  0.98245  0.63363  1.0000
  N   N4        1.0  0.21553  0.01756  0.13364  1.0000
  O   O1        1.0  0.13873  0.62935  0.91448  1.0000
  O   O2        1.0  0.36127  0.37065  0.41448  1.0000
  O   O3        1.0  0.86126  0.12935  0.58552  1.0000
  O   O4        1.0  0.63873  0.87065  0.08552  1.0000
  O   O5        1.0  0.91458  0.76023  0.00786  1.0000
  O   O6        1.0  0.58542  0.23977  0.50786  1.0000
  O   O7        1.0  0.08541  0.26024  0.49214  1.0000
  O   O8        1.0  0.41458  0.73976  0.99214  1.0000
  O   O9        1.0  0.90835  0.53145  0.03366  1.0000
  O   O10       1.0  0.59165  0.46855  0.53365  1.0000
  O   O11       1.0  0.09164  0.03146  0.46634  1.0000
  O   O12       1.0  0.40836  0.96855  0.96634  1.0000
  O   O13       1.0  0.51416  0.28920  0.97341  1.0000
  O   O14       1.0  0.98583  0.71079  0.47341  1.0000
  O   O15       1.0  0.48584  0.78919  0.52660  1.0000
  O   O16       1.0  0.01417  0.21081  0.02660  1.0000
  O   O17       1.0  0.29355  0.19099  0.88940  1.0000
  O   O18       1.0  0.20644  0.80900  0.38940  1.0000
  O   O19       1.0  0.70646  0.69100  0.61060  1.0000
  O   O20       1.0  0.79355  0.30900  0.11060  1.0000
  O   O21       1.0  0.50397  0.53476  0.08242  1.0000
  O   O22       1.0  0.99603  0.46524  0.58242  1.0000
  O   O23       1.0  0.49602  0.03476  0.41758  1.0000
  O   O24       1.0  0.00398  0.96524  0.91758  1.0000
