data_image0
_chemical_formula_structural       Cd8P4H64C28N4Cl8O28
_chemical_formula_sum              "Cd8 P4 H64 C28 N4 Cl8 O28"
_cell_length_a       8.75079
_cell_length_b       12.6067
_cell_length_c       13.574
_cell_angle_alpha    90
_cell_angle_beta     90
_cell_angle_gamma    90

_space_group_name_H-M_alt    "P 1"
_space_group_IT_number       1

loop_
  _space_group_symop_operation_xyz
  'x, y, z'

loop_
  _atom_site_type_symbol
  _atom_site_label
  _atom_site_symmetry_multiplicity
  _atom_site_fract_x
  _atom_site_fract_y
  _atom_site_fract_z
  _atom_site_occupancy
  Cd  Cd1       1.0  0.77389  0.85748  0.66801  1.0000
  Cd  Cd2       1.0  0.72611  0.14252  0.16801  1.0000
  Cd  Cd3       1.0  0.22611  0.35748  0.83199  1.0000
  Cd  Cd4       1.0  0.27389  0.64252  0.33199  1.0000
  Cd  Cd5       1.0  0.77464  0.94416  0.41151  1.0000
  Cd  Cd6       1.0  0.72536  0.05584  0.91151  1.0000
  Cd  Cd7       1.0  0.22537  0.44416  0.08849  1.0000
  Cd  Cd8       1.0  0.27464  0.55584  0.58849  1.0000
  P   P1        1.0  0.96754  0.71427  0.48794  1.0000
  P   P2        1.0  0.53246  0.28573  0.98794  1.0000
  P   P3        1.0  0.03246  0.21427  0.01206  1.0000
  P   P4        1.0  0.46755  0.78573  0.51206  1.0000
  H   H1        1.0  0.70871  0.65151  0.44330  1.0000
  H   H2        1.0  0.79129  0.34849  0.94330  1.0000
  H   H3        1.0  0.29129  0.15151  0.05670  1.0000
  H   H4        1.0  0.20871  0.84849  0.55670  1.0000
  H   H5        1.0  0.85206  0.61539  0.35602  1.0000
  H   H6        1.0  0.64794  0.38461  0.85602  1.0000
  H   H7        1.0  0.14794  0.11539  0.14398  1.0000
  H   H8        1.0  0.35207  0.88461  0.64398  1.0000
  H   H9        1.0  0.64019  0.51507  0.56828  1.0000
  H   H10       1.0  0.85981  0.48493  0.06828  1.0000
  H   H11       1.0  0.35981  0.01507  0.93172  1.0000
  H   H12       1.0  0.14019  0.98493  0.43172  1.0000
  H   H13       1.0  0.80274  0.57894  0.62091  1.0000
  H   H14       1.0  0.69726  0.42106  0.12091  1.0000
  H   H15       1.0  0.19726  0.07894  0.87909  1.0000
  H   H16       1.0  0.30274  0.92106  0.37909  1.0000
  H   H17       1.0  0.74955  0.40224  0.70053  1.0000
  H   H18       1.0  0.75045  0.59776  0.20053  1.0000
  H   H19       1.0  0.25045  0.90224  0.79947  1.0000
  H   H20       1.0  0.24955  0.09776  0.29947  1.0000
  H   H21       1.0  0.62565  0.31610  0.56516  1.0000
  H   H22       1.0  0.87435  0.68390  0.06516  1.0000
  H   H23       1.0  0.37435  0.81610  0.93484  1.0000
  H   H24       1.0  0.12565  0.18390  0.43484  1.0000
  H   H25       1.0  0.78388  0.23607  0.59824  1.0000
  H   H26       1.0  0.71612  0.76394  0.09825  1.0000
  H   H27       1.0  0.21612  0.73606  0.90175  1.0000
  H   H28       1.0  0.28388  0.26393  0.40175  1.0000
  H   H29       1.0  0.93406  0.30376  0.45797  1.0000
  H   H30       1.0  0.56594  0.69624  0.95797  1.0000
  H   H31       1.0  0.06594  0.80376  0.04203  1.0000
  H   H32       1.0  0.43406  0.19624  0.54203  1.0000
  H   H33       1.0  0.75491  0.25899  0.41405  1.0000
  H   H34       1.0  0.74509  0.74101  0.91405  1.0000
  H   H35       1.0  0.24509  0.75899  0.08595  1.0000
  H   H36       1.0  0.25491  0.24101  0.58595  1.0000
  H   H37       1.0  0.83773  0.43603  0.34243  1.0000
  H   H38       1.0  0.66227  0.56397  0.84243  1.0000
  H   H39       1.0  0.16227  0.93603  0.15757  1.0000
  H   H40       1.0  0.33773  0.06397  0.65757  1.0000
  H   H41       1.0  0.65656  0.44246  0.40387  1.0000
  H   H42       1.0  0.84344  0.55754  0.90387  1.0000
  H   H43       1.0  0.34344  0.94246  0.09613  1.0000
  H   H44       1.0  0.15656  0.05754  0.59613  1.0000
  H   H45       1.0  0.95360  0.49737  0.49542  1.0000
  H   H46       1.0  0.54640  0.50264  0.99542  1.0000
  H   H47       1.0  0.04640  0.99737  0.00458  1.0000
  H   H48       1.0  0.45360  0.00264  0.50458  1.0000
  H   H49       1.0  0.56589  0.75228  0.77848  1.0000
  H   H50       1.0  0.93411  0.24772  0.27848  1.0000
  H   H51       1.0  0.43410  0.25228  0.72152  1.0000
  H   H52       1.0  0.06589  0.74772  0.22152  1.0000
  H   H53       1.0  0.55969  0.69564  0.67506  1.0000
  H   H54       1.0  0.94031  0.30436  0.17506  1.0000
  H   H55       1.0  0.44031  0.19564  0.82494  1.0000
  H   H56       1.0  0.05969  0.80436  0.32494  1.0000
  H   H57       1.0  0.63456  0.87842  0.22736  1.0000
  H   H58       1.0  0.86544  0.12158  0.72736  1.0000
  H   H59       1.0  0.36544  0.37842  0.27264  1.0000
  H   H60       1.0  0.13456  0.62158  0.77264  1.0000
  H   H61       1.0  0.56793  0.80812  0.31672  1.0000
  H   H62       1.0  0.93207  0.19188  0.81672  1.0000
  H   H63       1.0  0.43207  0.30812  0.18328  1.0000
  H   H64       1.0  0.06793  0.69188  0.68328  1.0000
  C   C1        1.0  0.82610  0.62252  0.43485  1.0000
  C   C2        1.0  0.67390  0.37748  0.93485  1.0000
  C   C3        1.0  0.17390  0.12252  0.06515  1.0000
  C   C4        1.0  0.32610  0.87748  0.56515  1.0000
  C   C5        1.0  0.76405  0.50953  0.57934  1.0000
  C   C6        1.0  0.73595  0.49047  0.07934  1.0000
  C   C7        1.0  0.23595  0.00953  0.92066  1.0000
  C   C8        1.0  0.26405  0.99047  0.42066  1.0000
  C   C9        1.0  0.80775  0.40548  0.62909  1.0000
  C   C10       1.0  0.69225  0.59452  0.12909  1.0000
  C   C11       1.0  0.19225  0.90548  0.87091  1.0000
  C   C12       1.0  0.30775  0.09452  0.37091  1.0000
  C   C13       1.0  0.75151  0.31229  0.56546  1.0000
  C   C14       1.0  0.74849  0.68771  0.06546  1.0000
  C   C15       1.0  0.24849  0.81229  0.93454  1.0000
  C   C16       1.0  0.25151  0.18770  0.43454  1.0000
  C   C17       1.0  0.81032  0.31980  0.45966  1.0000
  C   C18       1.0  0.68968  0.68020  0.95966  1.0000
  C   C19       1.0  0.18968  0.81980  0.04034  1.0000
  C   C20       1.0  0.31032  0.18020  0.54034  1.0000
  C   C21       1.0  0.77944  0.42799  0.41350  1.0000
  C   C22       1.0  0.72056  0.57202  0.91350  1.0000
  C   C23       1.0  0.22056  0.92798  0.08650  1.0000
  C   C24       1.0  0.27944  0.07202  0.58650  1.0000
  C   C25       1.0  0.97998  0.40079  0.65011  1.0000
  C   C26       1.0  0.52002  0.59921  0.15011  1.0000
  C   C27       1.0  0.02002  0.90079  0.84988  1.0000
  C   C28       1.0  0.47998  0.09920  0.34989  1.0000
  N   N1        1.0  0.83818  0.51478  0.47947  1.0000
  N   N2        1.0  0.66182  0.48522  0.97947  1.0000
  N   N3        1.0  0.16182  0.01478  0.02053  1.0000
  N   N4        1.0  0.33818  0.98522  0.52053  1.0000
  Cl  Cl1       1.0  0.56814  0.95653  0.77859  1.0000
  Cl  Cl2       1.0  0.93186  0.04347  0.27859  1.0000
  Cl  Cl3       1.0  0.43186  0.45653  0.72141  1.0000
  Cl  Cl4       1.0  0.06814  0.54347  0.22141  1.0000
  Cl  Cl5       1.0  0.87268  0.02859  0.57842  1.0000
  Cl  Cl6       1.0  0.62732  0.97141  0.07842  1.0000
  Cl  Cl7       1.0  0.12732  0.52859  0.92158  1.0000
  Cl  Cl8       1.0  0.37267  0.47141  0.42158  1.0000
  O   O1        1.0  0.12208  0.65592  0.47561  1.0000
  O   O2        1.0  0.37792  0.34408  0.97561  1.0000
  O   O3        1.0  0.87792  0.15592  0.02439  1.0000
  O   O4        1.0  0.62208  0.84408  0.52439  1.0000
  O   O5        1.0  0.93170  0.73281  0.59697  1.0000
  O   O6        1.0  0.56831  0.26719  0.09696  1.0000
  O   O7        1.0  0.06831  0.23281  0.90303  1.0000
  O   O8        1.0  0.43169  0.76719  0.40303  1.0000
  O   O9        1.0  0.95956  0.81480  0.42399  1.0000
  O   O10       1.0  0.54044  0.18520  0.92399  1.0000
  O   O11       1.0  0.04045  0.31480  0.07601  1.0000
  O   O12       1.0  0.45956  0.68520  0.57601  1.0000
  O   O13       1.0  0.06996  0.43960  0.58443  1.0000
  O   O14       1.0  0.43005  0.56040  0.08443  1.0000
  O   O15       1.0  0.93004  0.93960  0.91556  1.0000
  O   O16       1.0  0.56995  0.06039  0.41557  1.0000
  O   O17       1.0  0.02079  0.35850  0.72991  1.0000
  O   O18       1.0  0.47921  0.64150  0.22991  1.0000
  O   O19       1.0  0.97921  0.85850  0.77009  1.0000
  O   O20       1.0  0.52079  0.14150  0.27009  1.0000
  O   O21       1.0  0.63015  0.71382  0.73176  1.0000
  O   O22       1.0  0.86985  0.28618  0.23176  1.0000
  O   O23       1.0  0.36984  0.21382  0.76825  1.0000
  O   O24       1.0  0.13015  0.78618  0.26824  1.0000
  O   O25       1.0  0.66126  0.84257  0.28910  1.0000
  O   O26       1.0  0.83874  0.15743  0.78910  1.0000
  O   O27       1.0  0.33874  0.34257  0.21090  1.0000
  O   O28       1.0  0.16126  0.65743  0.71090  1.0000
