data_image0
_chemical_formula_structural       K2Cu12H24C36N36Cl2O24
_chemical_formula_sum              "K2 Cu12 H24 C36 N36 Cl2 O24"
_cell_length_a       10.4238
_cell_length_b       12.6694
_cell_length_c       13.11
_cell_angle_alpha    83.5788
_cell_angle_beta     81.8531
_cell_angle_gamma    68.0586

_space_group_name_H-M_alt    "P 1"
_space_group_IT_number       1

loop_
  _space_group_symop_operation_xyz
  'x, y, z'

loop_
  _atom_site_type_symbol
  _atom_site_label
  _atom_site_symmetry_multiplicity
  _atom_site_fract_x
  _atom_site_fract_y
  _atom_site_fract_z
  _atom_site_occupancy
  K   K1        1.0  0.33103  0.45921  0.02684  1.0000
  K   K2        1.0  0.66898  0.54079  0.97316  1.0000
  Cu  Cu1       1.0  0.93360  0.75097  0.47587  1.0000
  Cu  Cu2       1.0  0.06640  0.24903  0.52413  1.0000
  Cu  Cu3       1.0  0.66802  0.97909  0.36791  1.0000
  Cu  Cu4       1.0  0.33198  0.02091  0.63209  1.0000
  Cu  Cu5       1.0  0.54511  0.09143  0.61331  1.0000
  Cu  Cu6       1.0  0.45489  0.90857  0.38669  1.0000
  Cu  Cu7       1.0  0.81595  0.86167  0.71652  1.0000
  Cu  Cu8       1.0  0.18405  0.13833  0.28348  1.0000
  Cu  Cu9       1.0  0.92490  0.05465  0.67674  1.0000
  Cu  Cu10      1.0  0.07510  0.94535  0.32325  1.0000
  Cu  Cu11      1.0  0.79688  0.17377  0.44328  1.0000
  Cu  Cu12      1.0  0.20312  0.82623  0.55672  1.0000
  H   H1        1.0  0.05587  0.61491  0.27994  1.0000
  H   H2        1.0  0.94413  0.38509  0.72006  1.0000
  H   H3        1.0  0.74115  0.91115  0.14270  1.0000
  H   H4        1.0  0.25885  0.08886  0.85730  1.0000
  H   H5        1.0  0.47513  0.17911  0.23986  1.0000
  H   H6        1.0  0.52487  0.82089  0.76014  1.0000
  H   H7        1.0  0.32505  0.31701  0.54352  1.0000
  H   H8        1.0  0.67495  0.68299  0.45648  1.0000
  H   H9        1.0  0.42409  0.22015  0.81247  1.0000
  H   H10       1.0  0.57590  0.77985  0.18753  1.0000
  H   H11       1.0  0.75181  0.92777  0.94224  1.0000
  H   H12       1.0  0.24819  0.07223  0.05776  1.0000
  H   H13       1.0  0.00048  0.65405  0.84837  1.0000
  H   H14       1.0  0.99952  0.34595  0.15163  1.0000
  H   H15       1.0  0.16172  0.52498  0.54252  1.0000
  H   H16       1.0  0.83828  0.47502  0.45748  1.0000
  H   H17       1.0  0.32447  0.69824  0.75544  1.0000
  H   H18       1.0  0.67553  0.30176  0.24456  1.0000
  H   H19       1.0  0.99053  0.98550  0.89727  1.0000
  H   H20       1.0  0.00947  0.01450  0.10273  1.0000
  H   H21       1.0  0.74761  0.25154  0.81266  1.0000
  H   H22       1.0  0.25239  0.74846  0.18734  1.0000
  H   H23       1.0  0.58019  0.40220  0.52117  1.0000
  H   H24       1.0  0.41981  0.59780  0.47882  1.0000
  C   C1        1.0  0.97184  0.69473  0.26331  1.0000
  C   C2        1.0  0.02815  0.30528  0.73669  1.0000
  C   C3        1.0  0.91811  0.74380  0.16946  1.0000
  C   C4        1.0  0.08189  0.25620  0.83054  1.0000
  C   C5        1.0  0.80925  0.84705  0.19274  1.0000
  C   C6        1.0  0.19075  0.15295  0.80726  1.0000
  C   C7        1.0  0.45303  0.19455  0.32152  1.0000
  C   C8        1.0  0.54697  0.80545  0.67848  1.0000
  C   C9        1.0  0.35964  0.29045  0.37222  1.0000
  C   C10       1.0  0.64036  0.70955  0.62779  1.0000
  C   C11       1.0  0.37549  0.26582  0.47795  1.0000
  C   C12       1.0  0.62451  0.73418  0.52205  1.0000
  C   C13       1.0  0.50969  0.14085  0.82729  1.0000
  C   C14       1.0  0.49031  0.85915  0.17271  1.0000
  C   C15       1.0  0.57077  0.09388  0.91903  1.0000
  C   C16       1.0  0.42923  0.90612  0.08097  1.0000
  C   C17       1.0  0.67996  0.99121  0.89399  1.0000
  C   C18       1.0  0.32004  0.00879  0.10602  1.0000
  C   C19       1.0  0.02354  0.64044  0.76637  1.0000
  C   C20       1.0  0.97646  0.35956  0.23363  1.0000
  C   C21       1.0  0.12400  0.54841  0.71430  1.0000
  C   C22       1.0  0.87601  0.45159  0.28571  1.0000
  C   C23       1.0  0.10735  0.57398  0.60870  1.0000
  C   C24       1.0  0.89265  0.42602  0.39130  1.0000
  C   C25       1.0  0.23667  0.77625  0.77233  1.0000
  C   C26       1.0  0.76333  0.22375  0.22767  1.0000
  C   C27       1.0  0.17543  0.82272  0.86772  1.0000
  C   C28       1.0  0.82457  0.17728  0.13228  1.0000
  C   C29       1.0  0.06385  0.92368  0.84581  1.0000
  C   C30       1.0  0.93615  0.07632  0.15419  1.0000
  C   C31       1.0  0.72228  0.27077  0.73340  1.0000
  C   C32       1.0  0.27772  0.72923  0.26660  1.0000
  C   C33       1.0  0.62370  0.36763  0.68854  1.0000
  C   C34       1.0  0.37630  0.63237  0.31146  1.0000
  C   C35       1.0  0.63633  0.34898  0.58319  1.0000
  C   C36       1.0  0.36367  0.65102  0.41681  1.0000
  N   N1        1.0  0.89935  0.76478  0.33759  1.0000
  N   N2        1.0  0.10064  0.23522  0.66241  1.0000
  N   N3        1.0  0.79853  0.85863  0.29397  1.0000
  N   N4        1.0  0.20146  0.14137  0.70603  1.0000
  N   N5        1.0  0.52167  0.11819  0.39290  1.0000
  N   N6        1.0  0.47833  0.88181  0.60710  1.0000
  N   N7        1.0  0.47384  0.16217  0.48939  1.0000
  N   N8        1.0  0.52616  0.83783  0.51061  1.0000
  N   N9        1.0  0.57800  0.07035  0.75264  1.0000
  N   N10       1.0  0.42200  0.92965  0.24736  1.0000
  N   N11       1.0  0.68333  0.97798  0.79373  1.0000
  N   N12       1.0  0.31667  0.02202  0.20627  1.0000
  N   N13       1.0  0.95276  0.71629  0.69592  1.0000
  N   N14       1.0  0.04724  0.28371  0.30408  1.0000
  N   N15       1.0  0.00461  0.67506  0.59839  1.0000
  N   N16       1.0  0.99539  0.32494  0.40161  1.0000
  N   N17       1.0  0.96354  0.69857  0.07199  1.0000
  N   N18       1.0  0.03646  0.30143  0.92801  1.0000
  N   N19       1.0  0.27287  0.39244  0.32584  1.0000
  N   N20       1.0  0.72713  0.60756  0.67416  1.0000
  N   N21       1.0  0.53157  0.46360  0.73881  1.0000
  N   N22       1.0  0.46843  0.53640  0.26119  1.0000
  N   N23       1.0  0.52874  0.13958  0.01634  1.0000
  N   N24       1.0  0.47126  0.86042  0.98366  1.0000
  N   N25       1.0  0.21883  0.77761  0.96492  1.0000
  N   N26       1.0  0.78117  0.22239  0.03508  1.0000
  N   N27       1.0  0.22200  0.45112  0.75840  1.0000
  N   N28       1.0  0.77800  0.54888  0.24160  1.0000
  N   N29       1.0  0.16635  0.84569  0.69813  1.0000
  N   N30       1.0  0.83366  0.15431  0.30187  1.0000
  N   N31       1.0  0.05888  0.93623  0.74360  1.0000
  N   N32       1.0  0.94112  0.06377  0.25640  1.0000
  N   N33       1.0  0.78872  0.19901  0.65928  1.0000
  N   N34       1.0  0.21128  0.80099  0.34072  1.0000
  N   N35       1.0  0.73516  0.24689  0.56669  1.0000
  N   N36       1.0  0.26483  0.75311  0.43331  1.0000
  Cl  Cl1       1.0  0.81222  0.95855  0.53048  1.0000
  Cl  Cl2       1.0  0.18777  0.04145  0.46952  1.0000
  O   O1        1.0  0.06273  0.60481  0.06510  1.0000
  O   O2        1.0  0.93726  0.39520  0.93491  1.0000
  O   O3        1.0  0.90339  0.75363  0.99579  1.0000
  O   O4        1.0  0.09660  0.24637  0.00421  1.0000
  O   O5        1.0  0.27492  0.40137  0.22955  1.0000
  O   O6        1.0  0.72508  0.59863  0.77045  1.0000
  O   O7        1.0  0.19677  0.47088  0.38241  1.0000
  O   O8        1.0  0.80323  0.52912  0.61758  1.0000
  O   O9        1.0  0.45867  0.54683  0.68483  1.0000
  O   O10       1.0  0.54133  0.45316  0.31517  1.0000
  O   O11       1.0  0.52567  0.46241  0.83531  1.0000
  O   O12       1.0  0.47433  0.53759  0.16469  1.0000
  O   O13       1.0  0.42519  0.23024  0.02553  1.0000
  O   O14       1.0  0.57481  0.76976  0.97448  1.0000
  O   O15       1.0  0.59571  0.08727  0.09065  1.0000
  O   O16       1.0  0.40429  0.91273  0.90935  1.0000
  O   O17       1.0  0.15572  0.83212  0.04272  1.0000
  O   O18       1.0  0.84428  0.16788  0.95728  1.0000
  O   O19       1.0  0.31973  0.68462  0.97037  1.0000
  O   O20       1.0  0.68027  0.31538  0.02963  1.0000
  O   O21       1.0  0.22434  0.44221  0.85439  1.0000
  O   O22       1.0  0.77566  0.55779  0.14561  1.0000
  O   O23       1.0  0.30371  0.37603  0.70056  1.0000
  O   O24       1.0  0.69629  0.62397  0.29944  1.0000
