data_image0
_chemical_formula_structural       K2Cu12H24C36I2N36O24
_chemical_formula_sum              "K2 Cu12 H24 C36 I2 N36 O24"
_cell_length_a       10.1742
_cell_length_b       13.0782
_cell_length_c       13.12
_cell_angle_alpha    89.9278
_cell_angle_beta     80.9035
_cell_angle_gamma    69.7135

_space_group_name_H-M_alt    "P 1"
_space_group_IT_number       1

loop_
  _space_group_symop_operation_xyz
  'x, y, z'

loop_
  _atom_site_type_symbol
  _atom_site_label
  _atom_site_symmetry_multiplicity
  _atom_site_fract_x
  _atom_site_fract_y
  _atom_site_fract_z
  _atom_site_occupancy
  K   K1        1.0  0.20228  0.94263  0.47468  1.0000
  K   K2        1.0  0.79772  0.05737  0.52532  1.0000
  Cu  Cu1       1.0  0.34180  0.33905  0.77805  1.0000
  Cu  Cu2       1.0  0.65820  0.66095  0.22195  1.0000
  Cu  Cu3       1.0  0.36259  0.57851  0.88721  1.0000
  Cu  Cu4       1.0  0.63741  0.42149  0.11279  1.0000
  Cu  Cu5       1.0  0.35929  0.46419  0.13240  1.0000
  Cu  Cu6       1.0  0.64071  0.53581  0.86760  1.0000
  Cu  Cu7       1.0  0.33494  0.22688  0.02174  1.0000
  Cu  Cu8       1.0  0.66506  0.77312  0.97826  1.0000
  Cu  Cu9       1.0  0.00705  0.67610  0.05864  1.0000
  Cu  Cu10      1.0  0.99295  0.32390  0.94136  1.0000
  Cu  Cu11      1.0  0.00247  0.55809  0.82256  1.0000
  Cu  Cu12      1.0  0.99753  0.44191  0.17743  1.0000
  H   H1        1.0  0.34886  0.70886  0.68897  1.0000
  H   H2        1.0  0.65114  0.29114  0.31103  1.0000
  H   H3        1.0  0.33228  0.40893  0.55500  1.0000
  H   H4        1.0  0.66772  0.59107  0.44500  1.0000
  H   H5        1.0  0.35143  0.13732  0.64871  1.0000
  H   H6        1.0  0.64857  0.86268  0.35129  1.0000
  H   H7        1.0  0.32732  0.00386  0.95360  1.0000
  H   H8        1.0  0.67268  0.99614  0.04640  1.0000
  H   H9        1.0  0.33704  0.09710  0.21945  1.0000
  H   H10       1.0  0.66296  0.90290  0.78055  1.0000
  H   H11       1.0  0.34939  0.39642  0.35759  1.0000
  H   H12       1.0  0.65061  0.60358  0.64241  1.0000
  H   H13       1.0  0.34690  0.66581  0.26108  1.0000
  H   H14       1.0  0.65310  0.33419  0.73892  1.0000
  H   H15       1.0  0.34911  0.80612  0.95855  1.0000
  H   H16       1.0  0.65089  0.19388  0.04145  1.0000
  H   H17       1.0  0.00513  0.48434  0.59795  1.0000
  H   H18       1.0  0.99487  0.51566  0.40205  1.0000
  H   H19       1.0  0.99700  0.18719  0.74656  1.0000
  H   H20       1.0  0.00300  0.81281  0.25344  1.0000
  H   H21       1.0  0.00532  0.90114  0.98375  1.0000
  H   H22       1.0  0.99468  0.09886  0.01625  1.0000
  H   H23       1.0  0.00108  0.75221  0.68727  1.0000
  H   H24       1.0  0.99892  0.24779  0.31273  1.0000
  C   C1        1.0  0.34748  0.62776  0.67301  1.0000
  C   C2        1.0  0.65252  0.37224  0.32699  1.0000
  C   C3        1.0  0.33569  0.57921  0.58084  1.0000
  C   C4        1.0  0.66431  0.42079  0.41915  1.0000
  C   C5        1.0  0.33750  0.47379  0.60402  1.0000
  C   C6        1.0  0.66250  0.52621  0.39598  1.0000
  C   C7        1.0  0.34570  0.12195  0.73044  1.0000
  C   C8        1.0  0.65430  0.87806  0.26956  1.0000
  C   C9        1.0  0.33579  0.03000  0.78240  1.0000
  C   C10       1.0  0.66421  0.97000  0.21760  1.0000
  C   C11       1.0  0.33256  0.05324  0.88757  1.0000
  C   C12       1.0  0.66744  0.94676  0.11243  1.0000
  C   C13       1.0  0.34151  0.17714  0.23600  1.0000
  C   C14       1.0  0.65849  0.82286  0.76400  1.0000
  C   C15       1.0  0.34122  0.22809  0.33046  1.0000
  C   C16       1.0  0.65878  0.77191  0.66954  1.0000
  C   C17       1.0  0.34791  0.33122  0.30721  1.0000
  C   C18       1.0  0.65209  0.66878  0.69279  1.0000
  C   C19       1.0  0.35203  0.68209  0.17958  1.0000
  C   C20       1.0  0.64797  0.31790  0.82042  1.0000
  C   C21       1.0  0.34344  0.77900  0.12964  1.0000
  C   C22       1.0  0.65656  0.22100  0.87036  1.0000
  C   C23       1.0  0.35270  0.75466  0.02378  1.0000
  C   C24       1.0  0.64730  0.24534  0.97622  1.0000
  C   C25       1.0  0.00303  0.42065  0.65060  1.0000
  C   C26       1.0  0.99697  0.57935  0.34940  1.0000
  C   C27       1.0  0.00310  0.31488  0.63130  1.0000
  C   C28       1.0  0.99690  0.68512  0.36870  1.0000
  C   C29       1.0  0.99848  0.26777  0.72755  1.0000
  C   C30       1.0  0.00152  0.73223  0.27245  1.0000
  C   C31       1.0  0.00457  0.84835  0.92030  1.0000
  C   C32       1.0  0.99543  0.15165  0.07970  1.0000
  C   C33       1.0  0.00280  0.86750  0.81495  1.0000
  C   C34       1.0  0.99720  0.13250  0.18505  1.0000
  C   C35       1.0  0.00294  0.77115  0.76757  1.0000
  C   C36       1.0  0.99706  0.22885  0.23243  1.0000
  I   I1        1.0  0.20741  0.44472  0.97376  1.0000
  I   I2        1.0  0.79259  0.55528  0.02624  1.0000
  N   N1        1.0  0.34968  0.46049  0.70358  1.0000
  N   N2        1.0  0.65032  0.53951  0.29642  1.0000
  N   N3        1.0  0.35569  0.55571  0.74624  1.0000
  N   N4        1.0  0.64431  0.44429  0.25376  1.0000
  N   N5        1.0  0.32642  0.62614  0.48470  1.0000
  N   N6        1.0  0.67358  0.37386  0.51530  1.0000
  N   N7        1.0  0.36380  0.65024  0.01166  1.0000
  N   N8        1.0  0.63620  0.34976  0.98834  1.0000
  N   N9        1.0  0.36344  0.60544  0.10780  1.0000
  N   N10       1.0  0.63656  0.39456  0.89220  1.0000
  N   N11       1.0  0.32618  0.88009  0.17655  1.0000
  N   N12       1.0  0.67382  0.11992  0.82345  1.0000
  N   N13       1.0  0.35228  0.34109  0.20545  1.0000
  N   N14       1.0  0.64772  0.65891  0.79455  1.0000
  N   N15       1.0  0.34829  0.24584  0.16135  1.0000
  N   N16       1.0  0.65171  0.75416  0.83865  1.0000
  N   N17       1.0  0.33807  0.18386  0.42811  1.0000
  N   N18       1.0  0.66193  0.81613  0.57189  1.0000
  N   N19       1.0  0.33917  0.15284  0.89774  1.0000
  N   N20       1.0  0.66083  0.84716  0.10226  1.0000
  N   N21       1.0  0.34688  0.19556  0.80053  1.0000
  N   N22       1.0  0.65313  0.80444  0.19947  1.0000
  N   N23       1.0  0.32964  0.93439  0.73853  1.0000
  N   N24       1.0  0.67036  0.06562  0.26147  1.0000
  N   N25       1.0  0.00584  0.74685  0.93454  1.0000
  N   N26       1.0  0.99416  0.25315  0.06546  1.0000
  N   N27       1.0  0.00454  0.69933  0.84024  1.0000
  N   N28       1.0  0.99546  0.30067  0.15976  1.0000
  N   N29       1.0  0.99601  0.34092  0.79948  1.0000
  N   N30       1.0  0.00399  0.65908  0.20052  1.0000
  N   N31       1.0  0.99898  0.43528  0.75195  1.0000
  N   N32       1.0  0.00102  0.56472  0.24804  1.0000
  N   N33       1.0  0.00539  0.26612  0.53581  1.0000
  N   N34       1.0  0.99461  0.73388  0.46419  1.0000
  N   N35       1.0  0.00197  0.96285  0.76615  1.0000
  N   N36       1.0  0.99803  0.03715  0.23385  1.0000
  O   O1        1.0  0.31669  0.57126  0.40964  1.0000
  O   O2        1.0  0.68331  0.42874  0.59036  1.0000
  O   O3        1.0  0.32950  0.72081  0.47725  1.0000
  O   O4        1.0  0.67051  0.27920  0.52276  1.0000
  O   O5        1.0  0.32037  0.95896  0.12056  1.0000
  O   O6        1.0  0.67963  0.04104  0.87944  1.0000
  O   O7        1.0  0.31830  0.88736  0.27262  1.0000
  O   O8        1.0  0.68170  0.11264  0.72738  1.0000
  O   O9        1.0  0.33869  0.24066  0.50487  1.0000
  O   O10       1.0  0.66131  0.75934  0.49513  1.0000
  O   O11       1.0  0.33517  0.08918  0.43451  1.0000
  O   O12       1.0  0.66483  0.91082  0.56549  1.0000
  O   O13       1.0  0.31877  0.86041  0.79676  1.0000
  O   O14       1.0  0.68123  0.13959  0.20324  1.0000
  O   O15       1.0  0.33603  0.92585  0.64258  1.0000
  O   O16       1.0  0.66396  0.07415  0.35742  1.0000
  O   O17       1.0  0.00486  0.17026  0.53292  1.0000
  O   O18       1.0  0.99514  0.82974  0.46708  1.0000
  O   O19       1.0  0.00757  0.32035  0.45688  1.0000
  O   O20       1.0  0.99243  0.67965  0.54312  1.0000
  O   O21       1.0  0.99871  0.04300  0.82045  1.0000
  O   O22       1.0  0.00129  0.95700  0.17955  1.0000
  O   O23       1.0  0.00465  0.96438  0.67013  1.0000
  O   O24       1.0  0.99535  0.03563  0.32987  1.0000
