data_image0
_chemical_formula_structural       K2Cu12H24C36Br2N36O24
_chemical_formula_sum              "K2 Cu12 H24 C36 Br2 N36 O24"
_cell_length_a       10.1206
_cell_length_b       13.0765
_cell_length_c       13.1326
_cell_angle_alpha    89.8996
_cell_angle_beta     80.9704
_cell_angle_gamma    68.854

_space_group_name_H-M_alt    "P 1"
_space_group_IT_number       1

loop_
  _space_group_symop_operation_xyz
  'x, y, z'

loop_
  _atom_site_type_symbol
  _atom_site_label
  _atom_site_symmetry_multiplicity
  _atom_site_fract_x
  _atom_site_fract_y
  _atom_site_fract_z
  _atom_site_occupancy
  K   K1        1.0  0.20562  0.44397  0.97416  1.0000
  K   K2        1.0  0.79439  0.55602  0.02584  1.0000
  Cu  Cu1       1.0  0.35595  0.96784  0.63262  1.0000
  Cu  Cu2       1.0  0.64405  0.03216  0.36738  1.0000
  Cu  Cu3       1.0  0.36015  0.08142  0.38813  1.0000
  Cu  Cu4       1.0  0.63985  0.91858  0.61187  1.0000
  Cu  Cu5       1.0  0.33289  0.84489  0.28063  1.0000
  Cu  Cu6       1.0  0.66711  0.15511  0.71937  1.0000
  Cu  Cu7       1.0  0.32730  0.73343  0.52269  1.0000
  Cu  Cu8       1.0  0.67270  0.26657  0.47732  1.0000
  Cu  Cu9       1.0  0.01313  0.17598  0.55785  1.0000
  Cu  Cu10      1.0  0.98687  0.82402  0.44215  1.0000
  Cu  Cu11      1.0  0.00602  0.05655  0.32211  1.0000
  Cu  Cu12      1.0  0.99398  0.94345  0.67789  1.0000
  H   H1        1.0  0.34812  0.16754  0.76061  1.0000
  H   H2        1.0  0.65188  0.83246  0.23939  1.0000
  H   H3        1.0  0.34973  0.30813  0.45843  1.0000
  H   H4        1.0  0.65027  0.69187  0.54157  1.0000
  H   H5        1.0  0.35064  0.21084  0.19017  1.0000
  H   H6        1.0  0.64936  0.78916  0.80983  1.0000
  H   H7        1.0  0.32718  0.91332  0.05706  1.0000
  H   H8        1.0  0.67282  0.08668  0.94294  1.0000
  H   H9        1.0  0.34702  0.64213  0.15067  1.0000
  H   H10       1.0  0.65298  0.35787  0.84933  1.0000
  H   H11       1.0  0.32324  0.50897  0.45538  1.0000
  H   H12       1.0  0.67676  0.49103  0.54461  1.0000
  H   H13       1.0  0.33512  0.60120  0.71878  1.0000
  H   H14       1.0  0.66488  0.39880  0.28122  1.0000
  H   H15       1.0  0.34636  0.90045  0.85739  1.0000
  H   H16       1.0  0.65363  0.09956  0.14261  1.0000
  H   H17       1.0  0.99123  0.01687  0.90078  1.0000
  H   H18       1.0  0.00877  0.98313  0.09922  1.0000
  H   H19       1.0  0.00888  0.31154  0.75214  1.0000
  H   H20       1.0  0.99112  0.68846  0.24786  1.0000
  H   H21       1.0  0.00742  0.40027  0.48205  1.0000
  H   H22       1.0  0.99258  0.59973  0.51795  1.0000
  H   H23       1.0  0.00111  0.25009  0.18720  1.0000
  H   H24       1.0  0.99889  0.74991  0.81280  1.0000
  C   C1        1.0  0.35275  0.18389  0.67925  1.0000
  C   C2        1.0  0.64725  0.81611  0.32075  1.0000
  C   C3        1.0  0.34556  0.28057  0.62922  1.0000
  C   C4        1.0  0.65444  0.71943  0.37079  1.0000
  C   C5        1.0  0.35307  0.25664  0.52363  1.0000
  C   C6        1.0  0.64693  0.74336  0.47637  1.0000
  C   C7        1.0  0.34727  0.13035  0.17448  1.0000
  C   C8        1.0  0.65273  0.86965  0.82552  1.0000
  C   C9        1.0  0.33535  0.08211  0.08233  1.0000
  C   C10       1.0  0.66465  0.91789  0.91767  1.0000
  C   C11       1.0  0.33329  0.97772  0.10599  1.0000
  C   C12       1.0  0.66671  0.02228  0.89401  1.0000
  C   C13       1.0  0.34055  0.62711  0.23237  1.0000
  C   C14       1.0  0.65945  0.37289  0.76763  1.0000
  C   C15       1.0  0.33251  0.53468  0.28422  1.0000
  C   C16       1.0  0.66748  0.46532  0.71578  1.0000
  C   C17       1.0  0.32755  0.55852  0.38944  1.0000
  C   C18       1.0  0.67245  0.44148  0.61056  1.0000
  C   C19       1.0  0.33874  0.68141  0.73553  1.0000
  C   C20       1.0  0.66126  0.31860  0.26447  1.0000
  C   C21       1.0  0.33952  0.73186  0.82984  1.0000
  C   C22       1.0  0.66048  0.26815  0.17016  1.0000
  C   C23       1.0  0.34461  0.83548  0.80702  1.0000
  C   C24       1.0  0.65539  0.16452  0.19298  1.0000
  C   C25       1.0  0.99584  0.07991  0.84808  1.0000
  C   C26       1.0  0.00416  0.92009  0.15192  1.0000
  C   C27       1.0  0.99829  0.18487  0.86728  1.0000
  C   C28       1.0  0.00171  0.81513  0.13272  1.0000
  C   C29       1.0  0.00554  0.23145  0.77100  1.0000
  C   C30       1.0  0.99446  0.76855  0.22900  1.0000
  C   C31       1.0  0.00649  0.34712  0.41907  1.0000
  C   C32       1.0  0.99352  0.65288  0.58093  1.0000
  C   C33       1.0  0.00344  0.36591  0.31389  1.0000
  C   C34       1.0  0.99656  0.63409  0.68611  1.0000
  C   C35       1.0  0.00382  0.26923  0.26715  1.0000
  C   C36       1.0  0.99618  0.73077  0.73285  1.0000
  Br  Br1       1.0  0.21081  0.94728  0.47352  1.0000
  Br  Br2       1.0  0.78919  0.05272  0.52648  1.0000
  N   N1        1.0  0.36170  0.10776  0.60776  1.0000
  N   N2        1.0  0.63830  0.89224  0.39224  1.0000
  N   N3        1.0  0.36179  0.15262  0.51180  1.0000
  N   N4        1.0  0.63821  0.84737  0.48820  1.0000
  N   N5        1.0  0.32995  0.38146  0.67596  1.0000
  N   N6        1.0  0.67005  0.61854  0.32404  1.0000
  N   N7        1.0  0.35208  0.05905  0.24810  1.0000
  N   N8        1.0  0.64792  0.94095  0.75190  1.0000
  N   N9        1.0  0.34342  0.96480  0.20585  1.0000
  N   N10       1.0  0.65658  0.03520  0.79415  1.0000
  N   N11       1.0  0.32913  0.12861  0.98586  1.0000
  N   N12       1.0  0.67087  0.87139  0.01414  1.0000
  N   N13       1.0  0.33906  0.70153  0.30256  1.0000
  N   N14       1.0  0.66093  0.29847  0.69744  1.0000
  N   N15       1.0  0.33131  0.65898  0.39971  1.0000
  N   N16       1.0  0.66869  0.34102  0.60029  1.0000
  N   N17       1.0  0.32866  0.43841  0.24020  1.0000
  N   N18       1.0  0.67134  0.56159  0.75980  1.0000
  N   N19       1.0  0.34329  0.75093  0.66136  1.0000
  N   N20       1.0  0.65671  0.24907  0.33864  1.0000
  N   N21       1.0  0.34710  0.84600  0.70556  1.0000
  N   N22       1.0  0.65290  0.15401  0.29444  1.0000
  N   N23       1.0  0.33792  0.68676  0.92714  1.0000
  N   N24       1.0  0.66208  0.31324  0.07287  1.0000
  N   N25       1.0  0.00087  0.06526  0.74665  1.0000
  N   N26       1.0  0.99912  0.93474  0.25335  1.0000
  N   N27       1.0  0.00728  0.15864  0.69909  1.0000
  N   N28       1.0  0.99272  0.84136  0.30091  1.0000
  N   N29       1.0  0.99595  0.23349  0.96282  1.0000
  N   N30       1.0  0.00405  0.76651  0.03718  1.0000
  N   N31       1.0  0.00892  0.24538  0.43382  1.0000
  N   N32       1.0  0.99108  0.75462  0.56618  1.0000
  N   N33       1.0  0.00686  0.19746  0.34008  1.0000
  N   N34       1.0  0.99314  0.80254  0.65992  1.0000
  N   N35       1.0  0.00127  0.46148  0.26484  1.0000
  N   N36       1.0  0.99873  0.53852  0.73516  1.0000
  O   O1        1.0  0.32224  0.38871  0.77192  1.0000
  O   O2        1.0  0.67776  0.61129  0.22808  1.0000
  O   O3        1.0  0.32485  0.46031  0.61999  1.0000
  O   O4        1.0  0.67515  0.53969  0.38001  1.0000
  O   O5        1.0  0.33636  0.22202  0.97816  1.0000
  O   O6        1.0  0.66364  0.77798  0.02184  1.0000
  O   O7        1.0  0.31781  0.07466  0.91084  1.0000
  O   O8        1.0  0.68219  0.92534  0.08916  1.0000
  O   O9        1.0  0.33491  0.42996  0.14435  1.0000
  O   O10       1.0  0.66509  0.57004  0.85565  1.0000
  O   O11       1.0  0.31969  0.36382  0.29814  1.0000
  O   O12       1.0  0.68031  0.63618  0.70186  1.0000
  O   O13       1.0  0.33526  0.59194  0.93301  1.0000
  O   O14       1.0  0.66474  0.40806  0.06699  1.0000
  O   O15       1.0  0.33934  0.74292  0.00402  1.0000
  O   O16       1.0  0.66066  0.25708  0.99598  1.0000
  O   O17       1.0  0.99195  0.17962  0.04179  1.0000
  O   O18       1.0  0.00805  0.82038  0.95821  1.0000
  O   O19       1.0  0.99826  0.32886  0.96558  1.0000
  O   O20       1.0  0.00174  0.67114  0.03442  1.0000
  O   O21       1.0  0.99683  0.54211  0.31903  1.0000
  O   O22       1.0  0.00317  0.45788  0.68097  1.0000
  O   O23       1.0  0.00395  0.46263  0.16892  1.0000
  O   O24       1.0  0.99605  0.53737  0.83108  1.0000
