data_image0
_chemical_formula_structural       CaH46C68N8O10
_chemical_formula_sum              "Ca1 H46 C68 N8 O10"
_cell_length_a       12.4456
_cell_length_b       12.3424
_cell_length_c       14.02
_cell_angle_alpha    99.0801
_cell_angle_beta     115.602
_cell_angle_gamma    107.825

_space_group_name_H-M_alt    "P 1"
_space_group_IT_number       1

loop_
  _space_group_symop_operation_xyz
  'x, y, z'

loop_
  _atom_site_type_symbol
  _atom_site_label
  _atom_site_symmetry_multiplicity
  _atom_site_fract_x
  _atom_site_fract_y
  _atom_site_fract_z
  _atom_site_occupancy
  Ca  Ca1       1.0  0.00000  1.00000  0.00000  1.0000
  H   H1        1.0  0.35677  0.45541  0.68085  1.0000
  H   H2        1.0  0.64323  0.54459  0.31915  1.0000
  H   H3        1.0  0.18435  0.42354  0.51736  1.0000
  H   H4        1.0  0.81565  0.57646  0.48264  1.0000
  H   H5        1.0  0.96977  0.08353  0.33435  1.0000
  H   H6        1.0  0.03022  0.91646  0.66565  1.0000
  H   H7        1.0  0.54370  0.78947  0.88082  1.0000
  H   H8        1.0  0.45631  0.21052  0.11918  1.0000
  H   H9        1.0  0.86080  0.57667  0.33272  1.0000
  H   H10       1.0  0.13920  0.42333  0.66728  1.0000
  H   H11       1.0  0.77949  0.70166  0.22145  1.0000
  H   H12       1.0  0.22051  0.29834  0.77855  1.0000
  H   H13       1.0  0.66610  0.46059  0.97641  1.0000
  H   H14       1.0  0.33390  0.53941  0.02358  1.0000
  H   H15       1.0  0.42564  0.90554  0.76841  1.0000
  H   H16       1.0  0.57436  0.09446  0.23159  1.0000
  H   H17       1.0  0.67857  0.68715  0.00737  1.0000
  H   H18       1.0  0.32143  0.31286  0.99263  1.0000
  H   H19       1.0  0.31056  0.03310  0.64546  1.0000
  H   H20       1.0  0.68944  0.96690  0.35454  1.0000
  H   H21       1.0  0.08493  0.96704  0.44842  1.0000
  H   H22       1.0  0.91505  0.03295  0.55158  1.0000
  H   H23       1.0  0.88278  0.41731  0.21580  1.0000
  H   H24       1.0  0.11722  0.58270  0.78420  1.0000
  H   H25       1.0  0.46581  0.24051  0.94418  1.0000
  H   H26       1.0  0.53418  0.75949  0.05581  1.0000
  H   H27       1.0  0.24264  0.75788  0.37582  1.0000
  H   H28       1.0  0.75735  0.24212  0.62418  1.0000
  H   H29       1.0  0.58803  0.12767  0.04180  1.0000
  H   H30       1.0  0.41198  0.87233  0.95820  1.0000
  H   H31       1.0  0.58677  0.19714  0.70131  1.0000
  H   H32       1.0  0.41323  0.80286  0.29869  1.0000
  H   H33       1.0  0.84434  0.18661  0.20260  1.0000
  H   H34       1.0  0.15566  0.81340  0.79740  1.0000
  H   H35       1.0  0.22497  0.84411  0.55724  1.0000
  H   H36       1.0  0.77503  0.15589  0.44276  1.0000
  H   H37       1.0  0.15880  0.88138  0.26189  1.0000
  H   H38       1.0  0.84120  0.11862  0.73811  1.0000
  H   H39       1.0  0.71134  0.08562  0.80095  1.0000
  H   H40       1.0  0.28867  0.91439  0.19906  1.0000
  H   H41       1.0  0.76195  0.94359  0.09709  1.0000
  H   H42       1.0  0.23805  0.05641  0.90292  1.0000
  H   H43       1.0  0.19479  0.27021  0.12061  1.0000
  H   H44       1.0  0.80521  0.72979  0.87939  1.0000
  H   H45       1.0  0.13441  0.23671  0.19471  1.0000
  H   H46       1.0  0.86559  0.76328  0.80529  1.0000
  C   C1        1.0  0.14795  0.16942  0.49187  1.0000
  C   C2        1.0  0.85205  0.83058  0.50813  1.0000
  C   C3        1.0  0.02496  0.27086  0.37282  1.0000
  C   C4        1.0  0.97504  0.72913  0.62718  1.0000
  C   C5        1.0  0.65778  0.10078  0.92716  1.0000
  C   C6        1.0  0.34223  0.89923  0.07284  1.0000
  C   C7        1.0  0.50410  0.60502  0.83308  1.0000
  C   C8        1.0  0.49590  0.39498  0.16692  1.0000
  C   C9        1.0  0.04455  0.17109  0.39762  1.0000
  C   C10       1.0  0.95544  0.82891  0.60238  1.0000
  C   C11       1.0  0.21817  0.65677  0.54426  1.0000
  C   C12       1.0  0.78182  0.34323  0.45574  1.0000
  C   C13       1.0  0.05472  0.46392  0.38629  1.0000
  C   C14       1.0  0.94528  0.53608  0.61371  1.0000
  C   C15       1.0  0.37958  0.70600  0.71466  1.0000
  C   C16       1.0  0.62042  0.29400  0.28534  1.0000
  C   C17       1.0  0.47735  0.70337  0.81235  1.0000
  C   C18       1.0  0.52265  0.29663  0.18764  1.0000
  C   C19       1.0  0.49139  0.41510  0.80832  1.0000
  C   C20       1.0  0.50861  0.58491  0.19167  1.0000
  C   C21       1.0  0.11119  0.59049  0.43337  1.0000
  C   C22       1.0  0.88881  0.40951  0.56664  1.0000
  C   C23       1.0  0.92592  0.64210  0.31594  1.0000
  C   C24       1.0  0.07408  0.35790  0.68406  1.0000
  C   C25       1.0  0.96418  0.79837  0.23387  1.0000
  C   C26       1.0  0.03582  0.20163  0.76613  1.0000
  C   C27       1.0  0.05735  0.65897  0.36191  1.0000
  C   C28       1.0  0.94265  0.34103  0.63809  1.0000
  C   C29       1.0  0.88007  0.71173  0.25332  1.0000
  C   C30       1.0  0.11993  0.28827  0.74668  1.0000
  C   C31       1.0  0.60229  0.49146  0.91745  1.0000
  C   C32       1.0  0.39771  0.50853  0.08255  1.0000
  C   C33       1.0  0.51907  0.22648  0.81705  1.0000
  C   C34       1.0  0.48093  0.77351  0.18295  1.0000
  C   C35       1.0  0.32872  0.22221  0.65024  1.0000
  C   C36       1.0  0.67128  0.77779  0.34976  1.0000
  C   C37       1.0  0.91865  0.87784  0.17128  1.0000
  C   C38       1.0  0.08134  0.12216  0.82872  1.0000
  C   C39       1.0  0.36617  0.81706  0.70320  1.0000
  C   C40       1.0  0.63383  0.18294  0.29679  1.0000
  C   C41       1.0  0.60945  0.60712  0.93297  1.0000
  C   C42       1.0  0.39055  0.39288  0.06703  1.0000
  C   C43       1.0  0.27038  0.09051  0.60477  1.0000
  C   C44       1.0  0.72962  0.90949  0.39523  1.0000
  C   C45       1.0  0.15695  0.05747  0.50622  1.0000
  C   C46       1.0  0.84304  0.94252  0.49379  1.0000
  C   C47       1.0  0.94187  0.38635  0.27828  1.0000
  C   C48       1.0  0.05813  0.61365  0.72173  1.0000
  C   C49       1.0  0.52127  0.20799  0.91394  1.0000
  C   C50       1.0  0.47873  0.79201  0.08605  1.0000
  C   C51       1.0  0.72836  0.02999  0.98072  1.0000
  C   C52       1.0  0.27165  0.97002  0.01929  1.0000
  C   C53       1.0  0.14075  0.74506  0.34088  1.0000
  C   C54       1.0  0.85925  0.25494  0.65912  1.0000
  C   C55       1.0  0.58920  0.14479  0.96831  1.0000
  C   C56       1.0  0.41080  0.85521  0.03169  1.0000
  C   C57       1.0  0.58822  0.18235  0.77643  1.0000
  C   C58       1.0  0.41178  0.81764  0.22357  1.0000
  C   C59       1.0  0.92254  0.26882  0.27099  1.0000
  C   C60       1.0  0.07746  0.73118  0.72901  1.0000
  C   C61       1.0  0.26578  0.78646  0.59677  1.0000
  C   C62       1.0  0.73422  0.21354  0.40322  1.0000
  C   C63       1.0  0.09456  0.81338  0.27725  1.0000
  C   C64       1.0  0.90544  0.18661  0.72275  1.0000
  C   C65       1.0  0.65763  0.12083  0.83144  1.0000
  C   C66       1.0  0.34238  0.87918  0.16857  1.0000
  C   C67       1.0  0.44368  0.29041  0.75603  1.0000
  C   C68       1.0  0.55632  0.70959  0.24397  1.0000
  N   N1        1.0  0.25284  0.26828  0.58037  1.0000
  N   N2        1.0  0.74716  0.73172  0.41963  1.0000
  N   N3        1.0  0.28781  0.60949  0.61776  1.0000
  N   N4        1.0  0.71219  0.39052  0.38223  1.0000
  N   N5        1.0  0.43555  0.48756  0.76081  1.0000
  N   N6        1.0  0.56445  0.51245  0.23918  1.0000
  N   N7        1.0  0.10159  0.39019  0.43972  1.0000
  N   N8        1.0  0.89841  0.60980  0.56029  1.0000
  O   O1        1.0  0.71152  0.00178  0.06069  1.0000
  O   O2        1.0  0.28849  0.99822  0.93932  1.0000
  O   O3        1.0  0.80287  0.86914  0.14487  1.0000
  O   O4        1.0  0.19714  0.13086  0.85514  1.0000
  O   O5        1.0  0.99478  0.94882  0.14863  1.0000
  O   O6        1.0  0.00521  0.05117  0.85137  1.0000
  O   O7        1.0  0.79697  0.99932  0.94763  1.0000
  O   O8        1.0  0.20303  0.00068  0.05237  1.0000
  O   O9        1.0  0.11930  0.21293  0.11884  1.0000
  O   O10       1.0  0.88070  0.78707  0.88116  1.0000
