data_image0
_chemical_formula_structural       Ni4H40C40S4N24O24
_chemical_formula_sum              "Ni4 H40 C40 S4 N24 O24"
_cell_length_a       8.79677
_cell_length_b       11.2328
_cell_length_c       14.2323
_cell_angle_alpha    90
_cell_angle_beta     90
_cell_angle_gamma    92.8456

_space_group_name_H-M_alt    "P 1"
_space_group_IT_number       1

loop_
  _space_group_symop_operation_xyz
  'x, y, z'

loop_
  _atom_site_type_symbol
  _atom_site_label
  _atom_site_symmetry_multiplicity
  _atom_site_fract_x
  _atom_site_fract_y
  _atom_site_fract_z
  _atom_site_occupancy
  Ni  Ni1       1.0  0.91099  0.77846  0.74413  1.0000
  Ni  Ni2       1.0  0.58906  0.72154  0.24413  1.0000
  Ni  Ni3       1.0  0.08906  0.22154  0.25588  1.0000
  Ni  Ni4       1.0  0.41099  0.27846  0.75587  1.0000
  H   H1        1.0  0.71927  0.95429  0.85129  1.0000
  H   H2        1.0  0.78075  0.54576  0.35130  1.0000
  H   H3        1.0  0.28074  0.04575  0.14870  1.0000
  H   H4        1.0  0.21927  0.45429  0.64871  1.0000
  H   H5        1.0  0.70998  0.02990  0.01784  1.0000
  H   H6        1.0  0.79001  0.47011  0.51784  1.0000
  H   H7        1.0  0.29002  0.97011  0.98216  1.0000
  H   H8        1.0  0.20998  0.52990  0.48216  1.0000
  H   H9        1.0  0.05192  0.80468  0.09096  1.0000
  H   H10       1.0  0.44807  0.69531  0.59098  1.0000
  H   H11       1.0  0.94807  0.19531  0.90902  1.0000
  H   H12       1.0  0.55192  0.30468  0.40904  1.0000
  H   H13       1.0  0.00809  0.60189  0.93811  1.0000
  H   H14       1.0  0.49187  0.89811  0.43814  1.0000
  H   H15       1.0  0.99187  0.39811  0.06186  1.0000
  H   H16       1.0  0.50809  0.10189  0.56189  1.0000
  H   H17       1.0  0.17343  0.68936  0.96768  1.0000
  H   H18       1.0  0.32654  0.81063  0.46770  1.0000
  H   H19       1.0  0.82654  0.31062  0.03231  1.0000
  H   H20       1.0  0.67343  0.18936  0.53233  1.0000
  H   H21       1.0  0.32386  0.80967  0.85871  1.0000
  H   H22       1.0  0.17613  0.69029  0.35869  1.0000
  H   H23       1.0  0.67613  0.19029  0.14131  1.0000
  H   H24       1.0  0.82386  0.30967  0.64129  1.0000
  H   H25       1.0  0.34697  0.77346  0.73855  1.0000
  H   H26       1.0  0.15302  0.72654  0.23854  1.0000
  H   H27       1.0  0.65302  0.22655  0.26146  1.0000
  H   H28       1.0  0.84696  0.27346  0.76146  1.0000
  H   H29       1.0  0.91470  0.03281  0.65771  1.0000
  H   H30       1.0  0.58531  0.46719  0.15771  1.0000
  H   H31       1.0  0.08531  0.96719  0.34229  1.0000
  H   H32       1.0  0.41470  0.53280  0.84229  1.0000
  H   H33       1.0  0.09488  0.21501  0.66408  1.0000
  H   H34       1.0  0.40520  0.28498  0.16416  1.0000
  H   H35       1.0  0.90520  0.78498  0.33584  1.0000
  H   H36       1.0  0.59488  0.71500  0.83591  1.0000
  H   H37       1.0  0.41781  0.01391  0.79456  1.0000
  H   H38       1.0  0.08225  0.48609  0.29464  1.0000
  H   H39       1.0  0.58224  0.98609  0.20536  1.0000
  H   H40       1.0  0.91781  0.51390  0.70544  1.0000
  C   C1        1.0  0.79039  0.91934  0.90635  1.0000
  C   C2        1.0  0.70962  0.58069  0.40637  1.0000
  C   C3        1.0  0.20962  0.08069  0.09363  1.0000
  C   C4        1.0  0.29039  0.41934  0.59365  1.0000
  C   C5        1.0  0.78781  0.96137  0.99827  1.0000
  C   C6        1.0  0.71219  0.53865  0.49828  1.0000
  C   C7        1.0  0.21219  0.03864  0.00172  1.0000
  C   C8        1.0  0.28781  0.46137  0.50173  1.0000
  C   C9        1.0  0.97322  0.83698  0.03882  1.0000
  C   C10       1.0  0.52677  0.66302  0.53884  1.0000
  C   C11       1.0  0.02677  0.16302  0.96116  1.0000
  C   C12       1.0  0.47322  0.33698  0.46118  1.0000
  C   C13       1.0  0.97324  0.78883  0.94803  1.0000
  C   C14       1.0  0.52675  0.71117  0.44804  1.0000
  C   C15       1.0  0.02675  0.21117  0.05195  1.0000
  C   C16       1.0  0.47324  0.28884  0.55197  1.0000
  C   C17       1.0  0.07038  0.68764  0.92412  1.0000
  C   C18       1.0  0.42958  0.81236  0.42414  1.0000
  C   C19       1.0  0.92958  0.31236  0.07586  1.0000
  C   C20       1.0  0.57038  0.18764  0.57588  1.0000
  C   C21       1.0  0.26388  0.80097  0.79103  1.0000
  C   C22       1.0  0.23611  0.69904  0.29102  1.0000
  C   C23       1.0  0.73611  0.19904  0.20897  1.0000
  C   C24       1.0  0.76388  0.30096  0.70897  1.0000
  C   C25       1.0  0.20679  0.91747  0.75924  1.0000
  C   C26       1.0  0.29324  0.58253  0.25928  1.0000
  C   C27       1.0  0.79323  0.08253  0.24072  1.0000
  C   C28       1.0  0.70679  0.41747  0.74076  1.0000
  C   C29       1.0  0.02688  0.03014  0.68981  1.0000
  C   C30       1.0  0.47317  0.46985  0.18986  1.0000
  C   C31       1.0  0.97317  0.96985  0.31014  1.0000
  C   C32       1.0  0.52689  0.53013  0.81019  1.0000
  C   C33       1.0  0.12657  0.13004  0.69283  1.0000
  C   C34       1.0  0.37351  0.36994  0.19292  1.0000
  C   C35       1.0  0.87351  0.86994  0.30708  1.0000
  C   C36       1.0  0.62657  0.63004  0.80717  1.0000
  C   C37       1.0  0.30505  0.01923  0.76380  1.0000
  C   C38       1.0  0.19500  0.48075  0.26389  1.0000
  C   C39       1.0  0.69500  0.98075  0.23611  1.0000
  C   C40       1.0  0.80506  0.51923  0.73620  1.0000
  S   S1        1.0  0.12125  0.68048  0.80084  1.0000
  S   S2        1.0  0.37872  0.81954  0.30086  1.0000
  S   S3        1.0  0.87872  0.31953  0.19914  1.0000
  S   S4        1.0  0.62125  0.18048  0.69916  1.0000
  N   N1        1.0  0.88328  0.83355  0.88140  1.0000
  N   N2        1.0  0.61672  0.66648  0.38142  1.0000
  N   N3        1.0  0.11672  0.16647  0.11858  1.0000
  N   N4        1.0  0.38328  0.33355  0.61860  1.0000
  N   N5        1.0  0.88139  0.92239  0.06434  1.0000
  N   N6        1.0  0.61861  0.57761  0.56436  1.0000
  N   N7        1.0  0.11862  0.07761  0.93564  1.0000
  N   N8        1.0  0.38139  0.42239  0.43566  1.0000
  N   N9        1.0  0.26543  0.12506  0.73205  1.0000
  N   N10       1.0  0.23460  0.37497  0.23205  1.0000
  N   N11       1.0  0.73460  0.87497  0.26795  1.0000
  N   N12       1.0  0.76544  0.62506  0.76795  1.0000
  N   N13       1.0  0.06579  0.92403  0.72415  1.0000
  N   N14       1.0  0.43417  0.57598  0.22409  1.0000
  N   N15       1.0  0.93416  0.07598  0.27591  1.0000
  N   N16       1.0  0.56579  0.42403  0.77585  1.0000
  N   N17       1.0  0.04281  0.71101  0.55830  1.0000
  N   N18       1.0  0.45713  0.78899  0.05830  1.0000
  N   N19       1.0  0.95712  0.28899  0.44170  1.0000
  N   N20       1.0  0.54283  0.21101  0.94170  1.0000
  N   N21       1.0  0.65624  0.90231  0.63491  1.0000
  N   N22       1.0  0.84376  0.59767  0.13492  1.0000
  N   N23       1.0  0.34376  0.09767  0.36508  1.0000
  N   N24       1.0  0.15624  0.40231  0.86509  1.0000
  O   O1        1.0  0.91980  0.72041  0.60657  1.0000
  O   O2        1.0  0.58015  0.77962  0.10656  1.0000
  O   O3        1.0  0.08015  0.27963  0.39344  1.0000
  O   O4        1.0  0.41981  0.22042  0.89344  1.0000
  O   O5        1.0  0.17111  0.72351  0.59690  1.0000
  O   O6        1.0  0.32883  0.77646  0.09689  1.0000
  O   O7        1.0  0.82882  0.27646  0.40311  1.0000
  O   O8        1.0  0.67112  0.22350  0.90310  1.0000
  O   O9        1.0  0.02887  0.68741  0.47203  1.0000
  O   O10       1.0  0.47108  0.81259  0.97204  1.0000
  O   O11       1.0  0.97108  0.31260  0.52797  1.0000
  O   O12       1.0  0.52888  0.18741  0.02796  1.0000
  O   O13       1.0  0.70895  0.86224  0.71383  1.0000
  O   O14       1.0  0.79103  0.63773  0.21385  1.0000
  O   O15       1.0  0.29104  0.13773  0.28616  1.0000
  O   O16       1.0  0.20895  0.36224  0.78617  1.0000
  O   O17       1.0  0.74438  0.93378  0.56984  1.0000
  O   O18       1.0  0.75562  0.56621  0.06985  1.0000
  O   O19       1.0  0.25562  0.06621  0.43015  1.0000
  O   O20       1.0  0.24438  0.43378  0.93016  1.0000
  O   O21       1.0  0.51419  0.90933  0.62907  1.0000
  O   O22       1.0  0.98581  0.59066  0.12908  1.0000
  O   O23       1.0  0.48581  0.09066  0.37092  1.0000
  O   O24       1.0  0.01418  0.40933  0.87093  1.0000
