data_image0
_chemical_formula_structural       Ba2H56C40O20
_chemical_formula_sum              "Ba2 H56 C40 O20"
_cell_length_a       7.14866
_cell_length_b       12.9837
_cell_length_c       14.9522
_cell_angle_alpha    114.906
_cell_angle_beta     102.087
_cell_angle_gamma    94.1779

_space_group_name_H-M_alt    "P 1"
_space_group_IT_number       1

loop_
  _space_group_symop_operation_xyz
  'x, y, z'

loop_
  _atom_site_type_symbol
  _atom_site_label
  _atom_site_symmetry_multiplicity
  _atom_site_fract_x
  _atom_site_fract_y
  _atom_site_fract_z
  _atom_site_occupancy
  Ba  Ba1       1.0  0.14624  0.35419  0.89784  1.0000
  Ba  Ba2       1.0  0.74892  0.45651  0.10169  1.0000
  H   H1        1.0  0.26615  0.30955  0.55885  1.0000
  H   H2        1.0  0.20732  0.75090  0.44110  1.0000
  H   H3        1.0  0.20514  0.37744  0.47718  1.0000
  H   H4        1.0  0.23100  0.90116  0.52398  1.0000
  H   H5        1.0  0.04015  0.35491  0.54419  1.0000
  H   H6        1.0  0.99743  0.81222  0.45661  1.0000
  H   H7        1.0  0.35670  0.58095  0.55431  1.0000
  H   H8        1.0  0.30530  0.02858  0.44820  1.0000
  H   H9        1.0  0.42258  0.66718  0.69579  1.0000
  H   H10       1.0  0.22837  0.97285  0.30682  1.0000
  H   H11       1.0  0.35018  0.60098  0.88744  1.0000
  H   H12       1.0  0.96259  0.71482  0.11388  1.0000
  H   H13       1.0  0.14365  0.93403  0.68824  1.0000
  H   H14       1.0  0.95273  0.24725  0.31019  1.0000
  H   H15       1.0  0.97035  0.89395  0.74065  1.0000
  H   H16       1.0  0.72794  0.15271  0.25669  1.0000
  H   H17       1.0  0.13278  0.79871  0.69354  1.0000
  H   H18       1.0  0.93886  0.10652  0.30474  1.0000
  H   H19       1.0  0.38537  0.80141  0.83455  1.0000
  H   H20       1.0  0.05312  0.96845  0.16496  1.0000
  H   H21       1.0  0.48818  0.94082  0.95115  1.0000
  H   H22       1.0  0.03954  0.99020  0.04851  1.0000
  H   H23       1.0  0.37919  0.20765  0.02868  1.0000
  H   H24       1.0  0.84911  0.17763  0.97015  1.0000
  H   H25       1.0  0.78988  0.41762  0.74289  1.0000
  H   H26       1.0  0.55074  0.67529  0.25869  1.0000
  H   H27       1.0  0.74075  0.02380  0.54772  1.0000
  H   H28       1.0  0.69334  0.47251  0.44846  1.0000
  H   H29       1.0  0.94664  0.07580  0.52198  1.0000
  H   H30       1.0  0.92597  0.55210  0.47845  1.0000
  H   H31       1.0  0.72807  0.00621  0.42122  1.0000
  H   H32       1.0  0.80319  0.58071  0.57658  1.0000
  H   H33       1.0  0.32561  0.91248  0.07171  1.0000
  H   H34       1.0  0.75337  0.84139  0.93004  1.0000
  H   H35       1.0  0.22397  0.76061  0.97574  1.0000
  H   H36       1.0  0.74670  0.78531  0.02507  1.0000
  H   H37       1.0  0.72427  0.85593  0.21423  1.0000
  H   H38       1.0  0.01298  0.64261  0.78860  1.0000
  H   H39       1.0  0.53383  0.85479  0.27270  1.0000
  H   H40       1.0  0.76369  0.58291  0.72883  1.0000
  H   H41       1.0  0.56481  0.95694  0.22409  1.0000
  H   H42       1.0  0.84466  0.73433  0.77911  1.0000
  H   H43       1.0  0.38710  0.23200  0.68877  1.0000
  H   H44       1.0  0.20355  0.54338  0.31258  1.0000
  H   H45       1.0  0.23934  0.13661  0.71242  1.0000
  H   H46       1.0  0.02965  0.42419  0.28695  1.0000
  H   H47       1.0  0.35672  0.07954  0.61306  1.0000
  H   H48       1.0  0.24733  0.46462  0.38596  1.0000
  H   H49       1.0  0.57837  0.97234  0.67085  1.0000
  H   H50       1.0  0.40868  0.29894  0.32568  1.0000
  H   H51       1.0  0.76344  0.05021  0.79665  1.0000
  H   H52       1.0  0.46628  0.25146  0.19991  1.0000
  H   H53       1.0  0.55894  0.14573  0.38191  1.0000
  H   H54       1.0  0.67473  0.76006  0.61755  1.0000
  H   H55       1.0  0.56981  0.29178  0.48725  1.0000
  H   H56       1.0  0.58322  0.80261  0.51373  1.0000
  C   C1        1.0  0.28901  0.50034  0.74092  1.0000
  C   C2        1.0  0.04914  0.76038  0.26012  1.0000
  C   C3        1.0  0.28409  0.49324  0.63804  1.0000
  C   C4        1.0  0.14771  0.85637  0.36348  1.0000
  C   C5        1.0  0.19455  0.37775  0.54935  1.0000
  C   C6        1.0  0.14683  0.82932  0.45147  1.0000
  C   C7        1.0  0.35742  0.58533  0.62882  1.0000
  C   C8        1.0  0.23074  0.95809  0.37349  1.0000
  C   C9        1.0  0.26524  0.07264  0.89870  1.0000
  C   C10       1.0  0.86555  0.17365  0.09989  1.0000
  C   C11       1.0  0.26287  0.94722  0.83791  1.0000
  C   C12       1.0  0.92466  0.10972  0.16073  1.0000
  C   C13       1.0  0.12035  0.88952  0.73437  1.0000
  C   C14       1.0  0.88467  0.15584  0.26377  1.0000
  C   C15       1.0  0.38556  0.89341  0.87609  1.0000
  C   C16       1.0  0.01098  0.01814  0.12314  1.0000
  C   C17       1.0  0.79280  0.26378  0.64049  1.0000
  C   C18       1.0  0.65565  0.62250  0.35965  1.0000
  C   C19       1.0  0.72306  0.17893  0.53004  1.0000
  C   C20       1.0  0.69397  0.64672  0.46944  1.0000
  C   C21       1.0  0.62447  0.24808  0.86463  1.0000
  C   C22       1.0  0.26031  0.38327  0.13469  1.0000
  C   C23       1.0  0.54822  0.14305  0.76356  1.0000
  C   C24       1.0  0.28613  0.37856  0.23505  1.0000
  C   C25       1.0  0.78699  0.06459  0.50274  1.0000
  C   C26       1.0  0.78385  0.55882  0.49562  1.0000
  C   C27       1.0  0.43259  0.65792  0.07549  1.0000
  C   C28       1.0  0.85790  0.58314  0.92571  1.0000
  C   C29       1.0  0.43892  0.78484  0.10840  1.0000
  C   C30       1.0  0.83197  0.67724  0.89330  1.0000
  C   C31       1.0  0.32424  0.82078  0.04835  1.0000
  C   C32       1.0  0.77567  0.77306  0.95306  1.0000
  C   C33       1.0  0.57255  0.86759  0.21029  1.0000
  C   C34       1.0  0.86507  0.65827  0.79208  1.0000
  C   C35       1.0  0.37403  0.14809  0.69043  1.0000
  C   C36       1.0  0.18692  0.45700  0.30923  1.0000
  C   C37       1.0  0.63435  0.05035  0.74305  1.0000
  C   C38       1.0  0.39198  0.30541  0.25409  1.0000
  C   C39       1.0  0.61102  0.20696  0.46265  1.0000
  C   C40       1.0  0.64808  0.74167  0.53733  1.0000
  O   O1        1.0  0.23827  0.41283  0.75006  1.0000
  O   O2        1.0  0.99009  0.66297  0.24991  1.0000
  O   O3        1.0  0.34828  0.60506  0.81920  1.0000
  O   O4        1.0  0.02870  0.78745  0.18265  1.0000
  O   O5        1.0  0.16204  0.12610  0.86255  1.0000
  O   O6        1.0  0.79830  0.26347  0.13597  1.0000
  O   O7        1.0  0.38429  0.12116  0.99258  1.0000
  O   O8        1.0  0.89037  0.12755  0.00612  1.0000
  O   O9        1.0  0.73507  0.36508  0.66522  1.0000
  O   O10       1.0  0.57406  0.69986  0.33604  1.0000
  O   O11       1.0  0.89637  0.23837  0.70287  1.0000
  O   O12       1.0  0.69759  0.53503  0.29675  1.0000
  O   O13       1.0  0.79589  0.26014  0.92161  1.0000
  O   O14       1.0  0.37419  0.33863  0.07741  1.0000
  O   O15       1.0  0.51808  0.32328  0.89214  1.0000
  O   O16       1.0  0.12628  0.43123  0.10800  1.0000
  O   O17       1.0  0.35097  0.58488  0.98271  1.0000
  O   O18       1.0  0.86872  0.60318  0.01823  1.0000
  O   O19       1.0  0.51174  0.62567  0.14189  1.0000
  O   O20       1.0  0.87004  0.48393  0.85911  1.0000
