data_image0
_chemical_formula_structural       Cd2H28C24S2N8O14
_chemical_formula_sum              "Cd2 H28 C24 S2 N8 O14"
_cell_length_a       7.44971
_cell_length_b       8.25653
_cell_length_c       15.7772
_cell_angle_alpha    83.6853
_cell_angle_beta     76.3525
_cell_angle_gamma    62.2545

_space_group_name_H-M_alt    "P 1"
_space_group_IT_number       1

loop_
  _space_group_symop_operation_xyz
  'x, y, z'

loop_
  _atom_site_type_symbol
  _atom_site_label
  _atom_site_symmetry_multiplicity
  _atom_site_fract_x
  _atom_site_fract_y
  _atom_site_fract_z
  _atom_site_occupancy
  Cd  Cd1       1.0  0.06548  0.57500  0.35164  1.0000
  Cd  Cd2       1.0  0.41717  0.07492  0.64843  1.0000
  H   H1        1.0  0.61675  0.65340  0.48571  1.0000
  H   H2        1.0  0.10241  0.15345  0.51440  1.0000
  H   H3        1.0  0.27706  0.66421  0.48046  1.0000
  H   H4        1.0  0.75753  0.16424  0.51959  1.0000
  H   H5        1.0  0.50582  0.49228  0.22161  1.0000
  H   H6        1.0  0.72729  0.99249  0.77851  1.0000
  H   H7        1.0  0.84014  0.46345  0.14603  1.0000
  H   H8        1.0  0.98640  0.96311  0.85405  1.0000
  H   H9        1.0  0.01053  0.31467  0.21446  1.0000
  H   H10       1.0  0.22508  0.81433  0.78556  1.0000
  H   H11       1.0  0.73575  0.87348  0.22008  1.0000
  H   H12       1.0  0.95655  0.37303  0.77978  1.0000
  H   H13       1.0  0.93696  0.89002  0.13813  1.0000
  H   H14       1.0  0.07572  0.38958  0.86177  1.0000
  H   H15       1.0  0.45063  0.87183  0.18080  1.0000
  H   H16       1.0  0.63180  0.37190  0.81901  1.0000
  H   H17       1.0  0.27947  0.84260  0.07003  1.0000
  H   H18       1.0  0.34974  0.34293  0.92979  1.0000
  H   H19       1.0  0.47592  0.76043  0.91651  1.0000
  H   H20       1.0  0.39246  0.26104  0.08333  1.0000
  H   H21       1.0  0.83820  0.71248  0.87442  1.0000
  H   H22       1.0  0.71259  0.21303  0.12553  1.0000
  H   H23       1.0  0.01355  0.73487  0.98613  1.0000
  H   H24       1.0  0.99984  0.23507  0.01381  1.0000
  H   H25       1.0  0.86588  0.63856  0.54113  1.0000
  H   H26       1.0  0.40694  0.13850  0.45894  1.0000
  H   H27       1.0  0.10177  0.50087  0.54152  1.0000
  H   H28       1.0  0.64325  0.00086  0.45856  1.0000
  C   C1        1.0  0.59361  0.61664  0.42631  1.0000
  C   C2        1.0  0.01986  0.11669  0.57379  1.0000
  C   C3        1.0  0.40497  0.62321  0.42369  1.0000
  C   C4        1.0  0.82862  0.12327  0.57639  1.0000
  C   C5        1.0  0.53215  0.52848  0.28042  1.0000
  C   C6        1.0  0.81249  0.02860  0.71970  1.0000
  C   C7        1.0  0.72229  0.52109  0.28276  1.0000
  C   C8        1.0  0.00505  0.02105  0.71734  1.0000
  C   C9        1.0  0.89875  0.45747  0.20453  1.0000
  C   C10       1.0  0.10342  0.95716  0.79553  1.0000
  C   C11       1.0  0.84829  0.81225  0.15961  1.0000
  C   C12       1.0  0.00844  0.31186  0.84031  1.0000
  C   C13       1.0  0.74400  0.80290  0.09110  1.0000
  C   C14       1.0  0.83544  0.30285  0.90878  1.0000
  C   C15       1.0  0.53695  0.83373  0.11397  1.0000
  C   C16       1.0  0.65126  0.33382  0.88585  1.0000
  C   C17       1.0  0.44035  0.81931  0.05126  1.0000
  C   C18       1.0  0.49187  0.31958  0.94857  1.0000
  C   C19       1.0  0.54881  0.77494  0.96534  1.0000
  C   C20       1.0  0.51432  0.27531  0.03450  1.0000
  C   C21       1.0  0.75433  0.74686  0.94183  1.0000
  C   C22       1.0  0.69625  0.24723  0.05810  1.0000
  C   C23       1.0  0.85184  0.75972  0.00428  1.0000
  C   C24       1.0  0.85629  0.25990  0.99564  1.0000
  S   S1        1.0  0.04741  0.58503  0.18342  1.0000
  S   S2        1.0  0.23116  0.08459  0.81664  1.0000
  N   N1        1.0  0.74959  0.56629  0.35618  1.0000
  N   N2        1.0  0.10576  0.06625  0.64392  1.0000
  N   N3        1.0  0.37642  0.57833  0.35055  1.0000
  N   N4        1.0  0.72689  0.07847  0.64954  1.0000
  N   N5        1.0  0.93640  0.00315  0.33545  1.0000
  N   N6        1.0  0.27167  0.50311  0.66464  1.0000
  N   N7        1.0  0.35466  0.14971  0.31476  1.0000
  N   N8        1.0  0.66880  0.64955  0.68523  1.0000
  O   O1        1.0  0.00222  0.56669  0.50264  1.0000
  O   O2        1.0  0.50481  0.06653  0.49742  1.0000
  O   O3        1.0  0.06674  0.94327  0.26578  1.0000
  O   O4        1.0  0.33239  0.44332  0.73432  1.0000
  O   O5        1.0  0.85806  0.16533  0.35991  1.0000
  O   O6        1.0  0.21785  0.66525  0.64010  1.0000
  O   O7        1.0  0.87811  0.89148  0.38591  1.0000
  O   O8        1.0  0.26372  0.39140  0.61426  1.0000
  O   O9        1.0  0.43943  0.98053  0.32468  1.0000
  O   O10       1.0  0.76379  0.48040  0.67524  1.0000
  O   O11       1.0  0.36799  0.22590  0.24172  1.0000
  O   O12       1.0  0.60832  0.72556  0.75834  1.0000
  O   O13       1.0  0.24856  0.25321  0.38395  1.0000
  O   O14       1.0  0.63234  0.75326  0.61604  1.0000
