data_image0
_chemical_formula_structural       Bi2H32C30S4I4N6O2
_chemical_formula_sum              "Bi2 H32 C30 S4 I4 N6 O2"
_cell_length_a       8.76935
_cell_length_b       9.46641
_cell_length_c       12.519
_cell_angle_alpha    84.3383
_cell_angle_beta     87.9595
_cell_angle_gamma    84.3796

_space_group_name_H-M_alt    "P 1"
_space_group_IT_number       1

loop_
  _space_group_symop_operation_xyz
  'x, y, z'

loop_
  _atom_site_type_symbol
  _atom_site_label
  _atom_site_symmetry_multiplicity
  _atom_site_fract_x
  _atom_site_fract_y
  _atom_site_fract_z
  _atom_site_occupancy
  Bi  Bi1       1.0  0.52388  0.53696  0.81061  1.0000
  Bi  Bi2       1.0  0.47612  0.46304  0.18939  1.0000
  H   H1        1.0  0.80928  0.01004  0.56290  1.0000
  H   H2        1.0  0.19072  0.98996  0.43710  1.0000
  H   H3        1.0  0.62969  0.95383  0.52929  1.0000
  H   H4        1.0  0.37030  0.04617  0.47071  1.0000
  H   H5        1.0  0.72998  0.89762  0.35108  1.0000
  H   H6        1.0  0.27002  0.10238  0.64892  1.0000
  H   H7        1.0  0.77097  0.07458  0.37105  1.0000
  H   H8        1.0  0.22903  0.92542  0.62895  1.0000
  H   H9        1.0  0.11967  0.75546  0.39316  1.0000
  H   H10       1.0  0.88033  0.24453  0.60684  1.0000
  H   H11       1.0  0.93301  0.71304  0.36184  1.0000
  H   H12       1.0  0.06699  0.28696  0.63816  1.0000
  H   H13       1.0  0.98151  0.62506  0.54936  1.0000
  H   H14       1.0  0.01849  0.37494  0.45064  1.0000
  H   H15       1.0  0.04148  0.79119  0.57783  1.0000
  H   H16       1.0  0.95852  0.20881  0.42217  1.0000
  H   H17       1.0  0.42467  0.85455  0.90276  1.0000
  H   H18       1.0  0.57533  0.14545  0.09724  1.0000
  H   H19       1.0  0.22690  0.05796  0.90701  1.0000
  H   H20       1.0  0.77310  0.94204  0.09299  1.0000
  H   H21       1.0  0.90407  0.78351  0.80228  1.0000
  H   H22       1.0  0.09593  0.21649  0.19772  1.0000
  H   H23       1.0  0.11868  0.59496  0.79714  1.0000
  H   H24       1.0  0.88133  0.40504  0.20286  1.0000
  H   H25       1.0  0.86174  0.40903  0.90521  1.0000
  H   H26       1.0  0.13826  0.59097  0.09479  1.0000
  H   H27       1.0  0.06728  0.21364  0.90872  1.0000
  H   H28       1.0  0.93272  0.78636  0.09127  1.0000
  H   H29       1.0  0.73806  0.94937  0.79796  1.0000
  H   H30       1.0  0.26194  0.05063  0.20204  1.0000
  H   H31       1.0  0.54860  0.16135  0.79376  1.0000
  H   H32       1.0  0.45140  0.83865  0.20625  1.0000
  C   C1        1.0  0.72351  0.71658  0.63435  1.0000
  C   C2        1.0  0.27649  0.28342  0.36565  1.0000
  C   C3        1.0  0.75426  0.93652  0.51715  1.0000
  C   C4        1.0  0.24574  0.06348  0.48285  1.0000
  C   C5        1.0  0.79674  0.96120  0.39839  1.0000
  C   C6        1.0  0.20326  0.03879  0.60161  1.0000
  C   C7        1.0  0.99646  0.77793  0.41021  1.0000
  C   C8        1.0  0.00354  0.22207  0.58979  1.0000
  C   C9        1.0  0.96367  0.74079  0.52932  1.0000
  C   C10       1.0  0.03633  0.25920  0.47069  1.0000
  C   C11       1.0  0.30757  0.84457  0.87964  1.0000
  C   C12       1.0  0.69243  0.15543  0.12036  1.0000
  C   C13       1.0  0.19502  0.95791  0.88223  1.0000
  C   C14       1.0  0.80498  0.04209  0.11776  1.0000
  C   C15       1.0  0.04499  0.94125  0.85317  1.0000
  C   C16       1.0  0.95501  0.05876  0.14682  1.0000
  C   C17       1.0  0.01732  0.80681  0.82399  1.0000
  C   C18       1.0  0.98268  0.19319  0.17601  1.0000
  C   C19       1.0  0.13701  0.69914  0.82213  1.0000
  C   C20       1.0  0.86300  0.30086  0.17787  1.0000
  C   C21       1.0  0.83980  0.30541  0.88083  1.0000
  C   C22       1.0  0.16020  0.69459  0.11917  1.0000
  C   C23       1.0  0.95463  0.19375  0.88312  1.0000
  C   C24       1.0  0.04537  0.80625  0.11688  1.0000
  C   C25       1.0  0.92341  0.06094  0.85291  1.0000
  C   C26       1.0  0.07659  0.93906  0.14709  1.0000
  C   C27       1.0  0.77308  0.04856  0.82213  1.0000
  C   C28       1.0  0.22692  0.95145  0.17787  1.0000
  C   C29       1.0  0.66511  0.16661  0.82019  1.0000
  C   C30       1.0  0.33489  0.83339  0.17981  1.0000
  S   S1        1.0  0.79275  0.54915  0.68724  1.0000
  S   S2        1.0  0.20725  0.45085  0.31276  1.0000
  S   S3        1.0  0.54875  0.78960  0.68013  1.0000
  S   S4        1.0  0.45125  0.21040  0.31987  1.0000
  I   I1        1.0  0.68336  0.65849  0.00650  1.0000
  I   I2        1.0  0.31664  0.34152  0.99350  1.0000
  I   I3        1.0  0.36409  0.42009  0.64123  1.0000
  I   I4        1.0  0.63591  0.57991  0.35878  1.0000
  N   N1        1.0  0.80546  0.79021  0.55937  1.0000
  N   N2        1.0  0.19454  0.20979  0.44063  1.0000
  N   N3        1.0  0.28028  0.71736  0.84899  1.0000
  N   N4        1.0  0.71972  0.28264  0.15101  1.0000
  N   N5        1.0  0.69741  0.29341  0.84869  1.0000
  N   N6        1.0  0.30259  0.70659  0.15130  1.0000
  O   O1        1.0  0.95697  0.92618  0.37884  1.0000
  O   O2        1.0  0.04303  0.07382  0.62116  1.0000
