data_image0
_chemical_formula_structural       Sr4H32C24O32
_chemical_formula_sum              "Sr4 H32 C24 O32"
_cell_length_a       10.1266
_cell_length_b       10.2791
_cell_length_c       10.346
_cell_angle_alpha    90
_cell_angle_beta     90
_cell_angle_gamma    117.765

_space_group_name_H-M_alt    "P 1"
_space_group_IT_number       1

loop_
  _space_group_symop_operation_xyz
  'x, y, z'

loop_
  _atom_site_type_symbol
  _atom_site_label
  _atom_site_symmetry_multiplicity
  _atom_site_fract_x
  _atom_site_fract_y
  _atom_site_fract_z
  _atom_site_occupancy
  Sr  Sr1       1.0  0.99037  0.35770  0.15580  1.0000
  Sr  Sr2       1.0  0.50963  0.64230  0.65580  1.0000
  Sr  Sr3       1.0  0.00963  0.64230  0.84420  1.0000
  Sr  Sr4       1.0  0.49037  0.35770  0.34420  1.0000
  H   H1        1.0  0.10270  0.45934  0.58029  1.0000
  H   H2        1.0  0.39730  0.54066  0.08029  1.0000
  H   H3        1.0  0.89730  0.54066  0.41971  1.0000
  H   H4        1.0  0.60270  0.45934  0.91971  1.0000
  H   H5        1.0  0.25147  0.67806  0.45195  1.0000
  H   H6        1.0  0.24853  0.32194  0.95195  1.0000
  H   H7        1.0  0.74853  0.32194  0.54805  1.0000
  H   H8        1.0  0.75147  0.67806  0.04805  1.0000
  H   H9        1.0  0.95027  0.91401  0.12737  1.0000
  H   H10       1.0  0.54973  0.08599  0.62737  1.0000
  H   H11       1.0  0.04973  0.08599  0.87263  1.0000
  H   H12       1.0  0.45027  0.91401  0.37263  1.0000
  H   H13       1.0  0.74276  0.91176  0.98777  1.0000
  H   H14       1.0  0.75724  0.08824  0.48777  1.0000
  H   H15       1.0  0.25724  0.08824  0.01223  1.0000
  H   H16       1.0  0.24276  0.91176  0.51223  1.0000
  H   H17       1.0  0.14241  0.13212  0.17822  1.0000
  H   H18       1.0  0.35759  0.86788  0.67822  1.0000
  H   H19       1.0  0.85759  0.86788  0.82178  1.0000
  H   H20       1.0  0.64241  0.13212  0.32178  1.0000
  H   H21       1.0  0.84114  0.13253  0.88997  1.0000
  H   H22       1.0  0.65886  0.86748  0.38997  1.0000
  H   H23       1.0  0.15886  0.86748  0.11003  1.0000
  H   H24       1.0  0.34114  0.13253  0.61003  1.0000
  H   H25       1.0  0.14024  0.70466  0.28402  1.0000
  H   H26       1.0  0.35976  0.29534  0.78402  1.0000
  H   H27       1.0  0.85976  0.29534  0.71598  1.0000
  H   H28       1.0  0.64024  0.70466  0.21598  1.0000
  H   H29       1.0  0.01693  0.26709  0.45281  1.0000
  H   H30       1.0  0.48307  0.73291  0.95281  1.0000
  H   H31       1.0  0.98307  0.73291  0.54719  1.0000
  H   H32       1.0  0.51693  0.26709  0.04719  1.0000
  C   C1        1.0  0.05606  0.47125  0.48773  1.0000
  C   C2        1.0  0.44394  0.52875  0.98773  1.0000
  C   C3        1.0  0.94394  0.52875  0.51227  1.0000
  C   C4        1.0  0.55606  0.47125  0.01227  1.0000
  C   C5        1.0  0.18383  0.57534  0.39910  1.0000
  C   C6        1.0  0.31617  0.42466  0.89910  1.0000
  C   C7        1.0  0.81617  0.42466  0.60090  1.0000
  C   C8        1.0  0.68383  0.57534  0.10090  1.0000
  C   C9        1.0  0.27903  0.49952  0.36923  1.0000
  C   C10       1.0  0.22096  0.50048  0.86923  1.0000
  C   C11       1.0  0.72097  0.50048  0.63076  1.0000
  C   C12       1.0  0.77903  0.49952  0.13076  1.0000
  C   C13       1.0  0.96724  0.00797  0.06527  1.0000
  C   C14       1.0  0.53276  0.99203  0.56527  1.0000
  C   C15       1.0  0.03276  0.99203  0.93473  1.0000
  C   C16       1.0  0.46724  0.00797  0.43473  1.0000
  C   C17       1.0  0.81602  0.00804  0.04614  1.0000
  C   C18       1.0  0.68398  0.99196  0.54614  1.0000
  C   C19       1.0  0.18398  0.99196  0.95386  1.0000
  C   C20       1.0  0.31602  0.00804  0.45386  1.0000
  C   C21       1.0  0.74211  0.99702  0.17788  1.0000
  C   C22       1.0  0.75789  0.00298  0.67788  1.0000
  C   C23       1.0  0.25789  0.00298  0.82212  1.0000
  C   C24       1.0  0.24210  0.99702  0.32212  1.0000
  O   O1        1.0  0.97413  0.32979  0.42493  1.0000
  O   O2        1.0  0.52587  0.67021  0.92493  1.0000
  O   O3        1.0  0.02587  0.67021  0.57507  1.0000
  O   O4        1.0  0.47413  0.32979  0.07507  1.0000
  O   O5        1.0  0.12529  0.60131  0.28257  1.0000
  O   O6        1.0  0.37470  0.39869  0.78257  1.0000
  O   O7        1.0  0.87471  0.39869  0.71743  1.0000
  O   O8        1.0  0.62529  0.60131  0.21743  1.0000
  O   O9        1.0  0.37225  0.50717  0.45556  1.0000
  O   O10       1.0  0.12775  0.49283  0.95556  1.0000
  O   O11       1.0  0.62775  0.49283  0.54444  1.0000
  O   O12       1.0  0.87225  0.50717  0.04444  1.0000
  O   O13       1.0  0.25547  0.42589  0.26593  1.0000
  O   O14       1.0  0.24453  0.57411  0.76593  1.0000
  O   O15       1.0  0.74453  0.57411  0.73407  1.0000
  O   O16       1.0  0.75547  0.42589  0.23407  1.0000
  O   O17       1.0  0.06480  0.14404  0.12596  1.0000
  O   O18       1.0  0.43521  0.85596  0.62596  1.0000
  O   O19       1.0  0.93521  0.85596  0.87404  1.0000
  O   O20       1.0  0.56479  0.14403  0.37404  1.0000
  O   O21       1.0  0.83815  0.14192  0.98635  1.0000
  O   O22       1.0  0.66185  0.85808  0.48635  1.0000
  O   O23       1.0  0.16185  0.85808  0.01365  1.0000
  O   O24       1.0  0.33815  0.14192  0.51365  1.0000
  O   O25       1.0  0.76410  0.11675  0.23092  1.0000
  O   O26       1.0  0.73590  0.88325  0.73092  1.0000
  O   O27       1.0  0.23590  0.88325  0.76908  1.0000
  O   O28       1.0  0.26410  0.11675  0.26908  1.0000
  O   O29       1.0  0.66568  0.87089  0.22869  1.0000
  O   O30       1.0  0.83432  0.12912  0.72869  1.0000
  O   O31       1.0  0.33432  0.12912  0.77131  1.0000
  O   O32       1.0  0.16568  0.87089  0.27131  1.0000
