data_image0
_chemical_formula_structural       Zn4H40C44N12O24
_chemical_formula_sum              "Zn4 H40 C44 N12 O24"
_cell_length_a       9.27276
_cell_length_b       9.27923
_cell_length_c       15.0004
_cell_angle_alpha    90
_cell_angle_beta     90
_cell_angle_gamma    108.538

_space_group_name_H-M_alt    "P 1"
_space_group_IT_number       1

loop_
  _space_group_symop_operation_xyz
  'x, y, z'

loop_
  _atom_site_type_symbol
  _atom_site_label
  _atom_site_symmetry_multiplicity
  _atom_site_fract_x
  _atom_site_fract_y
  _atom_site_fract_z
  _atom_site_occupancy
  Zn  Zn1       1.0  0.58939  0.21755  0.87182  1.0000
  Zn  Zn2       1.0  0.41061  0.28245  0.37182  1.0000
  Zn  Zn3       1.0  0.41061  0.78245  0.12818  1.0000
  Zn  Zn4       1.0  0.58939  0.71755  0.62818  1.0000
  H   H1        1.0  0.04344  0.68273  0.87625  1.0000
  H   H2        1.0  0.95656  0.81727  0.37625  1.0000
  H   H3        1.0  0.95656  0.31727  0.12375  1.0000
  H   H4        1.0  0.04344  0.18273  0.62375  1.0000
  H   H5        1.0  0.00587  0.90309  0.89681  1.0000
  H   H6        1.0  0.99413  0.59691  0.39680  1.0000
  H   H7        1.0  0.99413  0.09690  0.10320  1.0000
  H   H8        1.0  0.00587  0.40309  0.60320  1.0000
  H   H9        1.0  0.47023  0.19310  0.70022  1.0000
  H   H10       1.0  0.52977  0.30690  0.20022  1.0000
  H   H11       1.0  0.52977  0.80690  0.29978  1.0000
  H   H12       1.0  0.47023  0.69310  0.79978  1.0000
  H   H13       1.0  0.64708  0.20334  0.69327  1.0000
  H   H14       1.0  0.35292  0.29666  0.19327  1.0000
  H   H15       1.0  0.35292  0.79666  0.30673  1.0000
  H   H16       1.0  0.64708  0.70334  0.80673  1.0000
  H   H17       1.0  0.57532  0.93750  0.81346  1.0000
  H   H18       1.0  0.42468  0.56250  0.31346  1.0000
  H   H19       1.0  0.42468  0.06250  0.18654  1.0000
  H   H20       1.0  0.57532  0.43750  0.68654  1.0000
  H   H21       1.0  0.54723  0.91793  0.92193  1.0000
  H   H22       1.0  0.45277  0.58207  0.42193  1.0000
  H   H23       1.0  0.45277  0.08207  0.07807  1.0000
  H   H24       1.0  0.54723  0.41793  0.57807  1.0000
  H   H25       1.0  0.78704  0.89957  0.89085  1.0000
  H   H26       1.0  0.21296  0.60043  0.39085  1.0000
  H   H27       1.0  0.21296  0.10043  0.10915  1.0000
  H   H28       1.0  0.78704  0.39957  0.60915  1.0000
  H   H29       1.0  0.38558  0.40340  0.84442  1.0000
  H   H30       1.0  0.61442  0.09660  0.34442  1.0000
  H   H31       1.0  0.61442  0.59660  0.15558  1.0000
  H   H32       1.0  0.38558  0.90340  0.65558  1.0000
  H   H33       1.0  0.11017  0.37967  0.83135  1.0000
  H   H34       1.0  0.88983  0.12033  0.33135  1.0000
  H   H35       1.0  0.88983  0.62033  0.16865  1.0000
  H   H36       1.0  0.11017  0.87967  0.66865  1.0000
  H   H37       1.0  0.28373  0.94665  0.90531  1.0000
  H   H38       1.0  0.71627  0.55335  0.40531  1.0000
  H   H39       1.0  0.71627  0.05335  0.09469  1.0000
  H   H40       1.0  0.28373  0.44666  0.59469  1.0000
  C   C1        1.0  0.02422  0.60381  0.93203  1.0000
  C   C2        1.0  0.97578  0.89619  0.43203  1.0000
  C   C3        1.0  0.97578  0.39619  0.06797  1.0000
  C   C4        1.0  0.02422  0.10381  0.56797  1.0000
  C   C5        1.0  0.08491  0.01658  0.88454  1.0000
  C   C6        1.0  0.91509  0.48342  0.38454  1.0000
  C   C7        1.0  0.91509  0.98342  0.11546  1.0000
  C   C8        1.0  0.08491  0.51658  0.61546  1.0000
  C   C9        1.0  0.03477  0.14013  0.86413  1.0000
  C   C10       1.0  0.96523  0.35987  0.36413  1.0000
  C   C11       1.0  0.96523  0.85987  0.13587  1.0000
  C   C12       1.0  0.03477  0.64013  0.63587  1.0000
  C   C13       1.0  0.69882  0.32354  0.06285  1.0000
  C   C14       1.0  0.30118  0.17646  0.56285  1.0000
  C   C15       1.0  0.30118  0.67646  0.93715  1.0000
  C   C16       1.0  0.69882  0.82354  0.43715  1.0000
  C   C17       1.0  0.87455  0.52306  0.95529  1.0000
  C   C18       1.0  0.12545  0.97694  0.45529  1.0000
  C   C19       1.0  0.12545  0.47694  0.04471  1.0000
  C   C20       1.0  0.87455  0.02306  0.54471  1.0000
  C   C21       1.0  0.87111  0.13288  0.86095  1.0000
  C   C22       1.0  0.12889  0.36712  0.36095  1.0000
  C   C23       1.0  0.12889  0.86712  0.13905  1.0000
  C   C24       1.0  0.87111  0.63288  0.63905  1.0000
  C   C25       1.0  0.85012  0.41616  0.02471  1.0000
  C   C26       1.0  0.14988  0.08384  0.52472  1.0000
  C   C27       1.0  0.14988  0.58384  0.97528  1.0000
  C   C28       1.0  0.85011  0.91616  0.47528  1.0000
  C   C29       1.0  0.75131  0.55776  0.90299  1.0000
  C   C30       1.0  0.24869  0.94224  0.40299  1.0000
  C   C31       1.0  0.24869  0.44224  0.09701  1.0000
  C   C32       1.0  0.75131  0.05776  0.59701  1.0000
  C   C33       1.0  0.29739  0.29464  0.85457  1.0000
  C   C34       1.0  0.70261  0.20536  0.35457  1.0000
  C   C35       1.0  0.70260  0.70536  0.14543  1.0000
  C   C36       1.0  0.29740  0.79464  0.64543  1.0000
  C   C37       1.0  0.14415  0.28092  0.84759  1.0000
  C   C38       1.0  0.85585  0.21908  0.34759  1.0000
  C   C39       1.0  0.85585  0.71908  0.15241  1.0000
  C   C40       1.0  0.14415  0.78092  0.65241  1.0000
  C   C41       1.0  0.24072  0.04001  0.88923  1.0000
  C   C42       1.0  0.75928  0.45999  0.38923  1.0000
  C   C43       1.0  0.75928  0.95999  0.11077  1.0000
  C   C44       1.0  0.24072  0.54001  0.61077  1.0000
  N   N1        1.0  0.34587  0.17649  0.87551  1.0000
  N   N2        1.0  0.65413  0.32351  0.37551  1.0000
  N   N3        1.0  0.65413  0.82351  0.12449  1.0000
  N   N4        1.0  0.34587  0.67649  0.62449  1.0000
  N   N5        1.0  0.61053  0.99157  0.87356  1.0000
  N   N6        1.0  0.38947  0.50843  0.37356  1.0000
  N   N7        1.0  0.38947  0.00843  0.12644  1.0000
  N   N8        1.0  0.61053  0.49157  0.62644  1.0000
  N   N9        1.0  0.76482  0.00074  0.88330  1.0000
  N   N10       1.0  0.23518  0.49926  0.38330  1.0000
  N   N11       1.0  0.23518  0.99926  0.11670  1.0000
  N   N12       1.0  0.76482  0.50074  0.61670  1.0000
  O   O1        1.0  0.60291  0.22387  0.01439  1.0000
  O   O2        1.0  0.39709  0.27613  0.51439  1.0000
  O   O3        1.0  0.39709  0.77613  0.98561  1.0000
  O   O4        1.0  0.60291  0.72387  0.48561  1.0000
  O   O5        1.0  0.63559  0.45048  0.87682  1.0000
  O   O6        1.0  0.36441  0.04952  0.37682  1.0000
  O   O7        1.0  0.36441  0.54951  0.12318  1.0000
  O   O8        1.0  0.63559  0.95049  0.62318  1.0000
  O   O9        1.0  0.56918  0.22254  0.73410  1.0000
  O   O10       1.0  0.43082  0.27746  0.23410  1.0000
  O   O11       1.0  0.43082  0.77746  0.26590  1.0000
  O   O12       1.0  0.56918  0.72254  0.76590  1.0000
  O   O13       1.0  0.77232  0.69678  0.88400  1.0000
  O   O14       1.0  0.22768  0.80322  0.38400  1.0000
  O   O15       1.0  0.22768  0.30322  0.11600  1.0000
  O   O16       1.0  0.77232  0.19678  0.61600  1.0000
  O   O17       1.0  0.68271  0.34322  0.14501  1.0000
  O   O18       1.0  0.31729  0.15678  0.64501  1.0000
  O   O19       1.0  0.31729  0.65678  0.85499  1.0000
  O   O20       1.0  0.68271  0.84323  0.35499  1.0000
  O   O21       1.0  0.83645  0.24843  0.84056  1.0000
  O   O22       1.0  0.16355  0.25157  0.34056  1.0000
  O   O23       1.0  0.16355  0.75157  0.15944  1.0000
  O   O24       1.0  0.83645  0.74842  0.65944  1.0000
