data_image0
_chemical_formula_structural       Cu4Mo4H16C20N4O16
_chemical_formula_sum              "Cu4 Mo4 H16 C20 N4 O16"
_cell_length_a       7.51979
_cell_length_b       9.23191
_cell_length_c       13.5806
_cell_angle_alpha    71.3423
_cell_angle_beta     86.3085
_cell_angle_gamma    71.7322

_space_group_name_H-M_alt    "P 1"
_space_group_IT_number       1

loop_
  _space_group_symop_operation_xyz
  'x, y, z'

loop_
  _atom_site_type_symbol
  _atom_site_label
  _atom_site_symmetry_multiplicity
  _atom_site_fract_x
  _atom_site_fract_y
  _atom_site_fract_z
  _atom_site_occupancy
  Cu  Cu1       1.0  0.87796  0.93914  0.10178  1.0000
  Cu  Cu2       1.0  0.12203  0.06086  0.89822  1.0000
  Cu  Cu3       1.0  0.69220  0.66848  0.06566  1.0000
  Cu  Cu4       1.0  0.30780  0.33152  0.93434  1.0000
  Mo  Mo1       1.0  0.20600  0.68503  0.00936  1.0000
  Mo  Mo2       1.0  0.79400  0.31496  0.99064  1.0000
  Mo  Mo3       1.0  0.36011  0.99570  0.11912  1.0000
  Mo  Mo4       1.0  0.63989  0.00429  0.88087  1.0000
  H   H1        1.0  0.47118  0.32162  0.73379  1.0000
  H   H2        1.0  0.52885  0.67839  0.26621  1.0000
  H   H3        1.0  0.38485  0.46286  0.54867  1.0000
  H   H4        1.0  0.61517  0.53719  0.45134  1.0000
  H   H5        1.0  0.88898  0.77635  0.64182  1.0000
  H   H6        1.0  0.11100  0.22363  0.35819  1.0000
  H   H7        1.0  0.99762  0.61971  0.82447  1.0000
  H   H8        1.0  0.00237  0.38027  0.17553  1.0000
  H   H9        1.0  0.76938  0.04279  0.29024  1.0000
  H   H10       1.0  0.23060  0.95720  0.70975  1.0000
  H   H11       1.0  0.86436  0.93182  0.47944  1.0000
  H   H12       1.0  0.13562  0.06818  0.52055  1.0000
  H   H13       1.0  0.13863  0.64478  0.23084  1.0000
  H   H14       1.0  0.86137  0.35523  0.76916  1.0000
  H   H15       1.0  0.24456  0.51360  0.41499  1.0000
  H   H16       1.0  0.75545  0.48641  0.58502  1.0000
  C   C1        1.0  0.34378  0.42345  0.71018  1.0000
  C   C2        1.0  0.65625  0.57656  0.28982  1.0000
  C   C3        1.0  0.29309  0.50414  0.60597  1.0000
  C   C4        1.0  0.70693  0.49589  0.39403  1.0000
  C   C5        1.0  0.12614  0.63291  0.57651  1.0000
  C   C6        1.0  0.87386  0.36710  0.42349  1.0000
  C   C7        1.0  0.02003  0.67759  0.65708  1.0000
  C   C8        1.0  0.97996  0.32240  0.34292  1.0000
  C   C9        1.0  0.07879  0.59060  0.76013  1.0000
  C   C10       1.0  0.92121  0.40939  0.23987  1.0000
  C   C11       1.0  0.87339  0.92531  0.32281  1.0000
  C   C12       1.0  0.12659  0.07469  0.67719  1.0000
  C   C13       1.0  0.92812  0.86189  0.42790  1.0000
  C   C14       1.0  0.07187  0.13810  0.57211  1.0000
  C   C15       1.0  0.08048  0.70303  0.28896  1.0000
  C   C16       1.0  0.91952  0.29697  0.71105  1.0000
  C   C17       1.0  0.14027  0.63208  0.39249  1.0000
  C   C18       1.0  0.85972  0.36792  0.60752  1.0000
  C   C19       1.0  0.06454  0.71066  0.46562  1.0000
  C   C20       1.0  0.93547  0.28935  0.53439  1.0000
  N   N1        1.0  0.94714  0.84640  0.25447  1.0000
  N   N2        1.0  0.05283  0.15359  0.74553  1.0000
  N   N3        1.0  0.23675  0.46462  0.78591  1.0000
  N   N4        1.0  0.76326  0.53537  0.21409  1.0000
  O   O1        1.0  0.59339  0.87453  0.09819  1.0000
  O   O2        1.0  0.40661  0.12546  0.90180  1.0000
  O   O3        1.0  0.40154  0.62203  0.09363  1.0000
  O   O4        1.0  0.59846  0.37796  0.90637  1.0000
  O   O5        1.0  0.32379  0.93236  0.25114  1.0000
  O   O6        1.0  0.67622  0.06763  0.74886  1.0000
  O   O7        1.0  0.65977  0.79600  0.91768  1.0000
  O   O8        1.0  0.34024  0.20399  0.08232  1.0000
  O   O9        1.0  0.18290  0.96280  0.05160  1.0000
  O   O10       1.0  0.81710  0.03720  0.94839  1.0000
  O   O11       1.0  0.99354  0.73140  0.07977  1.0000
  O   O12       1.0  0.00645  0.26859  0.92023  1.0000
  O   O13       1.0  0.21610  0.84334  0.89099  1.0000
  O   O14       1.0  0.78390  0.15665  0.10901  1.0000
  O   O15       1.0  0.19513  0.52100  0.97266  1.0000
  O   O16       1.0  0.80487  0.47899  0.02734  1.0000
