data_image0
_chemical_formula_structural       Ag6H34C48N8O16
_chemical_formula_sum              "Ag6 H34 C48 N8 O16"
_cell_length_a       7.3751
_cell_length_b       8.17651
_cell_length_c       19.586
_cell_angle_alpha    90
_cell_angle_beta     90
_cell_angle_gamma    92.7824

_space_group_name_H-M_alt    "P 1"
_space_group_IT_number       1

loop_
  _space_group_symop_operation_xyz
  'x, y, z'

loop_
  _atom_site_type_symbol
  _atom_site_label
  _atom_site_symmetry_multiplicity
  _atom_site_fract_x
  _atom_site_fract_y
  _atom_site_fract_z
  _atom_site_occupancy
  Ag  Ag1       1.0  1.00000  0.00000  0.00000  1.0000
  Ag  Ag2       1.0  0.50000  1.00000  0.50000  1.0000
  Ag  Ag3       1.0  0.22377  0.64253  0.76713  1.0000
  Ag  Ag4       1.0  0.27623  0.35747  0.26713  1.0000
  Ag  Ag5       1.0  0.77623  0.35747  0.23287  1.0000
  Ag  Ag6       1.0  0.72377  0.64253  0.73287  1.0000
  H   H1        1.0  0.37327  0.74772  0.07133  1.0000
  H   H2        1.0  0.12673  0.25228  0.57133  1.0000
  H   H3        1.0  0.62673  0.25228  0.92867  1.0000
  H   H4        1.0  0.87327  0.74772  0.42867  1.0000
  H   H5        1.0  0.00002  0.50001  0.00000  1.0000
  H   H6        1.0  0.49999  0.49999  0.50000  1.0000
  H   H7        1.0  0.79888  0.83001  0.88003  1.0000
  H   H8        1.0  0.70112  0.17000  0.38003  1.0000
  H   H9        1.0  0.20112  0.16999  0.11997  1.0000
  H   H10       1.0  0.29888  0.83000  0.61998  1.0000
  H   H11       1.0  0.67514  0.90733  0.08291  1.0000
  H   H12       1.0  0.82486  0.09267  0.58291  1.0000
  H   H13       1.0  0.32485  0.09267  0.91709  1.0000
  H   H14       1.0  0.17515  0.90733  0.41709  1.0000
  H   H15       1.0  0.50271  0.67353  0.85968  1.0000
  H   H16       1.0  0.99729  0.32647  0.35968  1.0000
  H   H17       1.0  0.49729  0.32647  0.14032  1.0000
  H   H18       1.0  0.00271  0.67353  0.64032  1.0000
  H   H19       1.0  0.86233  0.35267  0.65470  1.0000
  H   H20       1.0  0.63767  0.64733  0.15470  1.0000
  H   H21       1.0  0.13767  0.64733  0.34530  1.0000
  H   H22       1.0  0.36233  0.35266  0.84530  1.0000
  H   H23       1.0  0.83818  0.46396  0.86112  1.0000
  H   H24       1.0  0.66182  0.53604  0.36112  1.0000
  H   H25       1.0  0.16182  0.53603  0.13888  1.0000
  H   H26       1.0  0.33818  0.46396  0.63888  1.0000
  H   H27       1.0  0.96695  0.20195  0.89410  1.0000
  H   H28       1.0  0.53305  0.79805  0.39410  1.0000
  H   H29       1.0  0.03305  0.79805  0.10590  1.0000
  H   H30       1.0  0.46695  0.20195  0.60590  1.0000
  H   H31       1.0  0.99355  0.07775  0.68075  1.0000
  H   H32       1.0  0.50645  0.92225  0.18075  1.0000
  H   H33       1.0  0.00645  0.92225  0.31925  1.0000
  H   H34       1.0  0.49355  0.07775  0.81925  1.0000
  C   C1        1.0  0.24099  0.59631  0.95468  1.0000
  C   C2        1.0  0.25901  0.40369  0.45468  1.0000
  C   C3        1.0  0.75901  0.40369  0.04532  1.0000
  C   C4        1.0  0.74099  0.59631  0.54532  1.0000
  C   C5        1.0  0.46499  0.76330  0.02806  1.0000
  C   C6        1.0  0.03501  0.23670  0.52806  1.0000
  C   C7        1.0  0.53501  0.23670  0.97194  1.0000
  C   C8        1.0  0.96499  0.76331  0.47194  1.0000
  C   C9        1.0  0.41667  0.69582  0.96467  1.0000
  C   C10       1.0  0.08333  0.30419  0.46467  1.0000
  C   C11       1.0  0.58333  0.30418  0.03533  1.0000
  C   C12       1.0  0.91667  0.69582  0.53533  1.0000
  C   C13       1.0  0.70063  0.80911  0.92094  1.0000
  C   C14       1.0  0.79937  0.19089  0.42094  1.0000
  C   C15       1.0  0.29937  0.19089  0.07906  1.0000
  C   C16       1.0  0.20063  0.80911  0.57906  1.0000
  C   C17       1.0  0.63027  0.85056  0.03503  1.0000
  C   C18       1.0  0.86973  0.14944  0.53503  1.0000
  C   C19       1.0  0.36973  0.14944  0.96496  1.0000
  C   C20       1.0  0.13027  0.85057  0.46497  1.0000
  C   C21       1.0  0.53717  0.72135  0.91026  1.0000
  C   C22       1.0  0.96283  0.27865  0.41026  1.0000
  C   C23       1.0  0.46283  0.27865  0.08974  1.0000
  C   C24       1.0  0.03717  0.72135  0.58974  1.0000
  C   C25       1.0  0.07361  0.95826  0.80606  1.0000
  C   C26       1.0  0.42639  0.04174  0.30606  1.0000
  C   C27       1.0  0.92639  0.04174  0.19394  1.0000
  C   C28       1.0  0.57361  0.95826  0.69394  1.0000
  C   C29       1.0  0.88860  0.31214  0.70666  1.0000
  C   C30       1.0  0.61140  0.68786  0.20666  1.0000
  C   C31       1.0  0.11140  0.68786  0.29334  1.0000
  C   C32       1.0  0.38860  0.31214  0.79334  1.0000
  C   C33       1.0  0.87178  0.37573  0.82206  1.0000
  C   C34       1.0  0.62822  0.62427  0.32206  1.0000
  C   C35       1.0  0.12822  0.62426  0.17794  1.0000
  C   C36       1.0  0.37179  0.37573  0.67794  1.0000
  C   C37       1.0  0.98922  0.11810  0.78922  1.0000
  C   C38       1.0  0.51078  0.88190  0.28922  1.0000
  C   C39       1.0  0.01078  0.88190  0.21077  1.0000
  C   C40       1.0  0.48922  0.11810  0.71078  1.0000
  C   C41       1.0  0.94374  0.22804  0.84029  1.0000
  C   C42       1.0  0.55626  0.77196  0.34029  1.0000
  C   C43       1.0  0.05626  0.77196  0.15971  1.0000
  C   C44       1.0  0.44374  0.22804  0.65971  1.0000
  C   C45       1.0  0.96005  0.16218  0.72126  1.0000
  C   C46       1.0  0.53995  0.83782  0.22126  1.0000
  C   C47       1.0  0.03995  0.83782  0.27874  1.0000
  C   C48       1.0  0.46005  0.16218  0.77874  1.0000
  N   N1        1.0  0.74725  0.87225  0.98247  1.0000
  N   N2        1.0  0.75275  0.12775  0.48247  1.0000
  N   N3        1.0  0.25275  0.12774  0.01753  1.0000
  N   N4        1.0  0.24725  0.87225  0.51753  1.0000
  N   N5        1.0  0.84438  0.41780  0.75629  1.0000
  N   N6        1.0  0.65562  0.58220  0.25629  1.0000
  N   N7        1.0  0.15562  0.58220  0.24371  1.0000
  N   N8        1.0  0.34438  0.41780  0.74372  1.0000
  O   O1        1.0  0.20848  0.52797  0.89883  1.0000
  O   O2        1.0  0.29152  0.47203  0.39883  1.0000
  O   O3        1.0  0.79152  0.47203  0.10117  1.0000
  O   O4        1.0  0.70847  0.52797  0.60117  1.0000
  O   O5        1.0  0.13656  0.58806  0.00816  1.0000
  O   O6        1.0  0.36344  0.41194  0.50816  1.0000
  O   O7        1.0  0.86344  0.41194  0.99184  1.0000
  O   O8        1.0  0.63656  0.58806  0.49184  1.0000
  O   O9        1.0  0.08761  0.86172  0.75444  1.0000
  O   O10       1.0  0.41239  0.13828  0.25444  1.0000
  O   O11       1.0  0.91239  0.13828  0.24556  1.0000
  O   O12       1.0  0.58761  0.86172  0.74556  1.0000
  O   O13       1.0  0.12385  0.93106  0.86592  1.0000
  O   O14       1.0  0.37614  0.06894  0.36592  1.0000
  O   O15       1.0  0.87614  0.06894  0.13408  1.0000
  O   O16       1.0  0.62386  0.93106  0.63408  1.0000
