data_image0
_chemical_formula_structural       Na4Cu2H40C20N4O22
_chemical_formula_sum              "Na4 Cu2 H40 C20 N4 O22"
_cell_length_a       7.9702
_cell_length_b       9.17825
_cell_length_c       12.6189
_cell_angle_alpha    95.4104
_cell_angle_beta     90.0001
_cell_angle_gamma    115.734

_space_group_name_H-M_alt    "P 1"
_space_group_IT_number       1

loop_
  _space_group_symop_operation_xyz
  'x, y, z'

loop_
  _atom_site_type_symbol
  _atom_site_label
  _atom_site_symmetry_multiplicity
  _atom_site_fract_x
  _atom_site_fract_y
  _atom_site_fract_z
  _atom_site_occupancy
  Na  Na1       1.0  0.42224  0.06135  0.63488  1.0000
  Na  Na2       1.0  0.36092  0.93871  0.86516  1.0000
  Na  Na3       1.0  0.57776  0.93865  0.36512  1.0000
  Na  Na4       1.0  0.63909  0.06129  0.13484  1.0000
  Cu  Cu1       1.0  0.50000  0.50000  0.50000  1.0000
  Cu  Cu2       1.0  1.00000  0.50000  0.00000  1.0000
  H   H1        1.0  0.00091  0.19917  0.40203  1.0000
  H   H2        1.0  0.80132  0.80056  0.09806  1.0000
  H   H3        1.0  0.99909  0.80083  0.59797  1.0000
  H   H4        1.0  0.19868  0.19944  0.90194  1.0000
  H   H5        1.0  0.07761  0.38818  0.48315  1.0000
  H   H6        1.0  0.68918  0.61156  0.01688  1.0000
  H   H7        1.0  0.92239  0.61182  0.51686  1.0000
  H   H8        1.0  0.31082  0.38844  0.98312  1.0000
  H   H9        1.0  0.29591  0.22074  0.25130  1.0000
  H   H10       1.0  0.07492  0.77923  0.24872  1.0000
  H   H11       1.0  0.70408  0.77926  0.74870  1.0000
  H   H12       1.0  0.92509  0.22077  0.75128  1.0000
  H   H13       1.0  0.25177  0.12087  0.36784  1.0000
  H   H14       1.0  0.13069  0.87908  0.13217  1.0000
  H   H15       1.0  0.74823  0.87914  0.63216  1.0000
  H   H16       1.0  0.86931  0.12092  0.86783  1.0000
  H   H17       1.0  0.14469  0.39646  0.25953  1.0000
  H   H18       1.0  0.74812  0.60323  0.24054  1.0000
  H   H19       1.0  0.85532  0.60354  0.74047  1.0000
  H   H20       1.0  0.25188  0.39677  0.75946  1.0000
  H   H21       1.0  0.39102  0.52278  0.27219  1.0000
  H   H22       1.0  0.86829  0.47709  0.22782  1.0000
  H   H23       1.0  0.60898  0.47722  0.72781  1.0000
  H   H24       1.0  0.13171  0.52291  0.77218  1.0000
  H   H25       1.0  0.24150  0.56674  0.36021  1.0000
  H   H26       1.0  0.67472  0.43299  0.13987  1.0000
  H   H27       1.0  0.75850  0.43326  0.63979  1.0000
  H   H28       1.0  0.32528  0.56701  0.86013  1.0000
  H   H29       1.0  0.09212  0.05613  0.70297  1.0000
  H   H30       1.0  0.03597  0.94379  0.79707  1.0000
  H   H31       1.0  0.90788  0.94387  0.29703  1.0000
  H   H32       1.0  0.96403  0.05621  0.20293  1.0000
  H   H33       1.0  0.81227  0.14335  0.55718  1.0000
  H   H34       1.0  0.66883  0.85659  0.94291  1.0000
  H   H35       1.0  0.18773  0.85665  0.44282  1.0000
  H   H36       1.0  0.33118  0.14340  0.05709  1.0000
  H   H37       1.0  0.71707  0.23719  0.49750  1.0000
  H   H38       1.0  0.47974  0.76270  0.00254  1.0000
  H   H39       1.0  0.28292  0.76281  0.50250  1.0000
  H   H40       1.0  0.52026  0.23731  0.99746  1.0000
  C   C1        1.0  0.14867  0.21641  0.55081  1.0000
  C   C2        1.0  0.93200  0.78354  0.94932  1.0000
  C   C3        1.0  0.85133  0.78359  0.44919  1.0000
  C   C4        1.0  0.06801  0.21647  0.05068  1.0000
  C   C5        1.0  0.11703  0.29127  0.45388  1.0000
  C   C6        1.0  0.82543  0.70852  0.04620  1.0000
  C   C7        1.0  0.88297  0.70873  0.54612  1.0000
  C   C8        1.0  0.17457  0.29148  0.95380  1.0000
  C   C9        1.0  0.33366  0.23803  0.33677  1.0000
  C   C10       1.0  0.09539  0.76193  0.16326  1.0000
  C   C11       1.0  0.66634  0.76197  0.66323  1.0000
  C   C12       1.0  0.90462  0.23807  0.83674  1.0000
  C   C13       1.0  0.53684  0.27268  0.35286  1.0000
  C   C14       1.0  0.26396  0.72726  0.14723  1.0000
  C   C15       1.0  0.46316  0.72731  0.64714  1.0000
  C   C16       1.0  0.73604  0.27273  0.85276  1.0000
  C   C17       1.0  0.26372  0.46820  0.31624  1.0000
  C   C18       1.0  0.79544  0.53155  0.18380  1.0000
  C   C19       1.0  0.73628  0.53180  0.68376  1.0000
  C   C20       1.0  0.20456  0.46846  0.81620  1.0000
  N   N1        1.0  0.28607  0.36434  0.39250  1.0000
  N   N2        1.0  0.92155  0.63552  0.10754  1.0000
  N   N3        1.0  0.71392  0.63567  0.60750  1.0000
  N   N4        1.0  0.07846  0.36448  0.89246  1.0000
  O   O1        1.0  0.31196  0.23955  0.57645  1.0000
  O   O2        1.0  0.07232  0.76062  0.92372  1.0000
  O   O3        1.0  0.68804  0.76044  0.42355  1.0000
  O   O4        1.0  0.92768  0.23938  0.07628  1.0000
  O   O5        1.0  0.00388  0.13594  0.60157  1.0000
  O   O6        1.0  0.86775  0.86400  0.89852  1.0000
  O   O7        1.0  0.99612  0.86406  0.39843  1.0000
  O   O8        1.0  0.13226  0.13600  0.10148  1.0000
  O   O9        1.0  0.59651  0.18479  0.29931  1.0000
  O   O10       1.0  0.41149  0.81513  0.20076  1.0000
  O   O11       1.0  0.40347  0.81520  0.70069  1.0000
  O   O12       1.0  0.58851  0.18486  0.79924  1.0000
  O   O13       1.0  0.63768  0.38765  0.42528  1.0000
  O   O14       1.0  0.24981  0.61222  0.07489  1.0000
  O   O15       1.0  0.36232  0.61235  0.57471  1.0000
  O   O16       1.0  0.75019  0.38777  0.92511  1.0000
  O   O17       1.0  0.13929  0.99993  0.74999  1.0000
  O   O18       1.0  0.86070  0.00007  0.25001  1.0000
  O   O19       1.0  0.69059  0.13739  0.53045  1.0000
  O   O20       1.0  0.55311  0.86256  0.96968  1.0000
  O   O21       1.0  0.30941  0.86261  0.46955  1.0000
  O   O22       1.0  0.44689  0.13744  0.03032  1.0000
