data_image0
_chemical_formula_structural       Zn2H24C32N4O12
_chemical_formula_sum              "Zn2 H24 C32 N4 O12"
_cell_length_a       8.28492
_cell_length_b       9.1782
_cell_length_c       11.8596
_cell_angle_alpha    74.1522
_cell_angle_beta     87.6139
_cell_angle_gamma    67.8624

_space_group_name_H-M_alt    "P 1"
_space_group_IT_number       1

loop_
  _space_group_symop_operation_xyz
  'x, y, z'

loop_
  _atom_site_type_symbol
  _atom_site_label
  _atom_site_symmetry_multiplicity
  _atom_site_fract_x
  _atom_site_fract_y
  _atom_site_fract_z
  _atom_site_occupancy
  Zn  Zn1       1.0  0.96418  0.41322  0.19410  1.0000
  Zn  Zn2       1.0  0.03582  0.58678  0.80590  1.0000
  H   H1        1.0  0.82320  0.10350  0.97995  1.0000
  H   H2        1.0  0.17679  0.89649  0.02003  1.0000
  H   H3        1.0  0.50119  0.33179  0.99499  1.0000
  H   H4        1.0  0.49880  0.66821  0.00501  1.0000
  H   H5        1.0  0.24946  0.52035  0.27473  1.0000
  H   H6        1.0  0.75054  0.47966  0.72528  1.0000
  H   H7        1.0  0.41673  0.46568  0.46373  1.0000
  H   H8        1.0  0.58328  0.53432  0.53627  1.0000
  H   H9        1.0  0.34144  0.29827  0.65134  1.0000
  H   H10       1.0  0.65857  0.70173  0.34866  1.0000
  H   H11       1.0  0.10779  0.19576  0.64032  1.0000
  H   H12       1.0  0.89221  0.80425  0.35968  1.0000
  H   H13       1.0  0.88845  0.13678  0.61981  1.0000
  H   H14       1.0  0.11157  0.86322  0.38019  1.0000
  H   H15       1.0  0.66002  0.04951  0.57772  1.0000
  H   H16       1.0  0.33999  0.95049  0.42229  1.0000
  H   H17       1.0  0.55294  0.11135  0.36439  1.0000
  H   H18       1.0  0.44707  0.88866  0.63562  1.0000
  H   H19       1.0  0.68789  0.26553  0.20661  1.0000
  H   H20       1.0  0.31210  0.73448  0.79339  1.0000
  H   H21       1.0  0.88830  0.33869  0.00575  1.0000
  H   H22       1.0  0.11169  0.66130  0.99424  1.0000
  H   H23       1.0  0.79014  0.52297  0.99589  1.0000
  H   H24       1.0  0.20986  0.47702  0.00411  1.0000
  C   C1        1.0  0.85792  0.76889  0.12561  1.0000
  C   C2        1.0  0.14207  0.23111  0.87438  1.0000
  C   C3        1.0  0.72454  0.93659  0.10610  1.0000
  C   C4        1.0  0.27545  0.06341  0.89389  1.0000
  C   C5        1.0  0.71942  0.08396  0.03324  1.0000
  C   C6        1.0  0.28057  0.91603  0.96675  1.0000
  C   C7        1.0  0.55242  0.20226  0.04112  1.0000
  C   C8        1.0  0.44757  0.79773  0.95888  1.0000
  C   C9        1.0  0.46539  0.12116  0.11926  1.0000
  C   C10       1.0  0.53460  0.87884  0.88074  1.0000
  C   C11       1.0  0.29090  0.17637  0.16572  1.0000
  C   C12       1.0  0.70909  0.82362  0.83428  1.0000
  C   C13       1.0  0.22383  0.44821  0.35819  1.0000
  C   C14       1.0  0.77617  0.55180  0.64182  1.0000
  C   C15       1.0  0.31485  0.41798  0.46362  1.0000
  C   C16       1.0  0.68516  0.58203  0.53638  1.0000
  C   C17       1.0  0.27404  0.32527  0.56664  1.0000
  C   C18       1.0  0.72596  0.67474  0.43336  1.0000
  C   C19       1.0  0.14191  0.26776  0.56083  1.0000
  C   C20       1.0  0.85809  0.73225  0.43917  1.0000
  C   C21       1.0  0.05555  0.30291  0.45198  1.0000
  C   C22       1.0  0.94445  0.69709  0.54802  1.0000
  C   C23       1.0  0.91388  0.24722  0.43574  1.0000
  C   C24       1.0  0.08612  0.75278  0.56426  1.0000
  C   C25       1.0  0.84336  0.16430  0.52867  1.0000
  C   C26       1.0  0.15664  0.83571  0.47134  1.0000
  C   C27       1.0  0.71246  0.11459  0.50404  1.0000
  C   C28       1.0  0.28755  0.88541  0.49597  1.0000
  C   C29       1.0  0.65450  0.14857  0.38753  1.0000
  C   C30       1.0  0.34551  0.85143  0.61248  1.0000
  C   C31       1.0  0.72837  0.23361  0.29936  1.0000
  C   C32       1.0  0.27162  0.76639  0.70065  1.0000
  N   N1        1.0  0.09882  0.39088  0.35324  1.0000
  N   N2        1.0  0.90118  0.60913  0.64676  1.0000
  N   N3        1.0  0.85427  0.28140  0.32335  1.0000
  N   N4        1.0  0.14573  0.71861  0.67666  1.0000
  O   O1        1.0  0.80801  0.65057  0.17314  1.0000
  O   O2        1.0  0.19198  0.34943  0.82685  1.0000
  O   O3        1.0  0.00890  0.75511  0.09316  1.0000
  O   O4        1.0  0.99109  0.24488  0.90683  1.0000
  O   O5        1.0  0.24420  0.08081  0.24336  1.0000
  O   O6        1.0  0.75580  0.91919  0.75663  1.0000
  O   O7        1.0  0.19492  0.33133  0.11969  1.0000
  O   O8        1.0  0.80507  0.66867  0.88031  1.0000
  O   O9        1.0  0.56969  0.95794  0.15929  1.0000
  O   O10       1.0  0.43030  0.04206  0.84070  1.0000
  O   O11       1.0  0.81823  0.41278  0.05354  1.0000
  O   O12       1.0  0.18177  0.58721  0.94646  1.0000
