data_image0
_chemical_formula_structural       Ca4H32C24N8O28
_chemical_formula_sum              "Ca4 H32 C24 N8 O28"
_cell_length_a       7.02368
_cell_length_b       11.419
_cell_length_c       11.8043
_cell_angle_alpha    89.9998
_cell_angle_beta     91.2953
_cell_angle_gamma    89.9999

_space_group_name_H-M_alt    "P 1"
_space_group_IT_number       1

loop_
  _space_group_symop_operation_xyz
  'x, y, z'

loop_
  _atom_site_type_symbol
  _atom_site_label
  _atom_site_symmetry_multiplicity
  _atom_site_fract_x
  _atom_site_fract_y
  _atom_site_fract_z
  _atom_site_occupancy
  Ca  Ca1       1.0  0.52059  0.05679  0.16217  1.0000
  Ca  Ca2       1.0  0.97941  0.55679  0.33783  1.0000
  Ca  Ca3       1.0  0.47941  0.94322  0.83783  1.0000
  Ca  Ca4       1.0  0.02060  0.44322  0.66217  1.0000
  H   H1        1.0  0.83601  0.81613  0.20029  1.0000
  H   H2        1.0  0.66399  0.31612  0.29971  1.0000
  H   H3        1.0  0.16398  0.18387  0.79971  1.0000
  H   H4        1.0  0.33602  0.68387  0.70029  1.0000
  H   H5        1.0  0.81866  0.95113  0.58966  1.0000
  H   H6        1.0  0.68134  0.45112  0.91035  1.0000
  H   H7        1.0  0.18131  0.04887  0.41035  1.0000
  H   H8        1.0  0.31870  0.54887  0.08965  1.0000
  H   H9        1.0  0.34680  0.85303  0.22941  1.0000
  H   H10       1.0  0.15320  0.35303  0.27059  1.0000
  H   H11       1.0  0.65318  0.14697  0.77059  1.0000
  H   H12       1.0  0.84682  0.64697  0.72942  1.0000
  H   H13       1.0  0.30806  0.91268  0.34347  1.0000
  H   H14       1.0  0.19194  0.41268  0.15653  1.0000
  H   H15       1.0  0.69193  0.08732  0.65652  1.0000
  H   H16       1.0  0.80808  0.58732  0.84348  1.0000
  H   H17       1.0  0.95290  0.06951  0.09251  1.0000
  H   H18       1.0  0.54709  0.56951  0.40749  1.0000
  H   H19       1.0  0.04709  0.93050  0.90749  1.0000
  H   H20       1.0  0.45291  0.43050  0.59251  1.0000
  H   H21       1.0  0.83169  0.99620  0.00219  1.0000
  H   H22       1.0  0.66832  0.49620  0.49781  1.0000
  H   H23       1.0  0.16831  0.00381  0.99781  1.0000
  H   H24       1.0  0.33168  0.50380  0.50219  1.0000
  H   H25       1.0  0.13727  0.15574  0.20407  1.0000
  H   H26       1.0  0.36273  0.65574  0.29593  1.0000
  H   H27       1.0  0.86273  0.84427  0.79593  1.0000
  H   H28       1.0  0.63727  0.34427  0.70407  1.0000
  H   H29       1.0  0.16922  0.21032  0.08249  1.0000
  H   H30       1.0  0.33078  0.71032  0.41751  1.0000
  H   H31       1.0  0.83078  0.78969  0.91751  1.0000
  H   H32       1.0  0.66922  0.28969  0.58249  1.0000
  C   C1        1.0  0.82388  0.84499  0.28767  1.0000
  C   C2        1.0  0.67612  0.34499  0.21233  1.0000
  C   C3        1.0  0.17610  0.15500  0.71233  1.0000
  C   C4        1.0  0.32390  0.65500  0.78767  1.0000
  C   C5        1.0  0.88694  0.81121  0.47599  1.0000
  C   C6        1.0  0.61305  0.31120  0.02401  1.0000
  C   C7        1.0  0.11303  0.18879  0.52401  1.0000
  C   C8        1.0  0.38697  0.68879  0.97599  1.0000
  C   C9        1.0  0.81638  0.92161  0.50236  1.0000
  C   C10       1.0  0.68362  0.42160  0.99764  1.0000
  C   C11       1.0  0.18359  0.07839  0.49764  1.0000
  C   C12       1.0  0.31641  0.57839  0.00236  1.0000
  C   C13       1.0  0.73736  0.98717  0.41365  1.0000
  C   C14       1.0  0.76264  0.48717  0.08635  1.0000
  C   C15       1.0  0.26261  0.01282  0.58635  1.0000
  C   C16       1.0  0.23739  0.51282  0.91365  1.0000
  C   C17       1.0  0.64121  0.10495  0.43076  1.0000
  C   C18       1.0  0.85879  0.60494  0.06924  1.0000
  C   C19       1.0  0.35878  0.89506  0.56924  1.0000
  C   C20       1.0  0.14122  0.39506  0.93076  1.0000
  C   C21       1.0  0.95212  0.72872  0.56954  1.0000
  C   C22       1.0  0.54787  0.22872  0.93046  1.0000
  C   C23       1.0  0.04786  0.27128  0.43046  1.0000
  C   C24       1.0  0.45214  0.77128  0.06954  1.0000
  N   N1        1.0  0.74024  0.94815  0.30631  1.0000
  N   N2        1.0  0.75976  0.44814  0.19369  1.0000
  N   N3        1.0  0.25973  0.05185  0.69369  1.0000
  N   N4        1.0  0.24026  0.55185  0.80631  1.0000
  N   N5        1.0  0.89200  0.77273  0.36844  1.0000
  N   N6        1.0  0.60800  0.27272  0.13156  1.0000
  N   N7        1.0  0.10798  0.22727  0.63156  1.0000
  N   N8        1.0  0.39202  0.72726  0.86844  1.0000
  O   O1        1.0  0.54309  0.14462  0.34876  1.0000
  O   O2        1.0  0.95691  0.64462  0.15124  1.0000
  O   O3        1.0  0.45689  0.85537  0.65124  1.0000
  O   O4        1.0  0.04311  0.35537  0.84876  1.0000
  O   O5        1.0  0.66873  0.15347  0.52691  1.0000
  O   O6        1.0  0.83128  0.65347  0.97309  1.0000
  O   O7        1.0  0.33126  0.84653  0.47309  1.0000
  O   O8        1.0  0.16875  0.34653  0.02691  1.0000
  O   O9        1.0  0.99997  0.62519  0.54135  1.0000
  O   O10       1.0  0.50002  0.12519  0.95865  1.0000
  O   O11       1.0  0.00002  0.37481  0.45866  1.0000
  O   O12       1.0  0.49998  0.87481  0.04134  1.0000
  O   O13       1.0  0.94769  0.76706  0.67016  1.0000
  O   O14       1.0  0.55230  0.26706  0.82985  1.0000
  O   O15       1.0  0.05229  0.23294  0.32985  1.0000
  O   O16       1.0  0.44771  0.73294  0.17015  1.0000
  O   O17       1.0  0.30335  0.92916  0.26075  1.0000
  O   O18       1.0  0.19665  0.42917  0.23926  1.0000
  O   O19       1.0  0.69663  0.07084  0.73924  1.0000
  O   O20       1.0  0.80337  0.57084  0.76076  1.0000
  O   O21       1.0  0.82846  0.03105  0.07749  1.0000
  O   O22       1.0  0.67153  0.53105  0.42251  1.0000
  O   O23       1.0  0.17154  0.96896  0.92251  1.0000
  O   O24       1.0  0.32847  0.46896  0.57749  1.0000
  O   O25       1.0  0.17726  0.13523  0.12668  1.0000
  O   O26       1.0  0.32273  0.63523  0.37332  1.0000
  O   O27       1.0  0.82274  0.86478  0.87332  1.0000
  O   O28       1.0  0.67726  0.36478  0.62668  1.0000
