data_image0
_chemical_formula_structural       Cd2H24C24Br4N4
_chemical_formula_sum              "Cd2 H24 C24 Br4 N4"
_cell_length_a       7.40615
_cell_length_b       10.168
_cell_length_c       10.168
_cell_angle_alpha    62.3507
_cell_angle_beta     76.2035
_cell_angle_gamma    76.2032

_space_group_name_H-M_alt    "P 1"
_space_group_IT_number       1

loop_
  _space_group_symop_operation_xyz
  'x, y, z'

loop_
  _atom_site_type_symbol
  _atom_site_label
  _atom_site_symmetry_multiplicity
  _atom_site_fract_x
  _atom_site_fract_y
  _atom_site_fract_z
  _atom_site_occupancy
  Cd  Cd1       1.0  0.25000  0.92767  0.07233  1.0000
  Cd  Cd2       1.0  0.75000  0.07233  0.92766  1.0000
  H   H1        1.0  0.16119  0.47849  0.63400  1.0000
  H   H2        1.0  0.33879  0.36601  0.52152  1.0000
  H   H3        1.0  0.83881  0.52152  0.36600  1.0000
  H   H4        1.0  0.66121  0.63400  0.47848  1.0000
  H   H5        1.0  0.93217  0.00307  0.31615  1.0000
  H   H6        1.0  0.56783  0.68386  0.99694  1.0000
  H   H7        1.0  0.06782  0.99693  0.68386  1.0000
  H   H8        1.0  0.43217  0.31614  0.00306  1.0000
  H   H9        1.0  0.01789  0.56235  0.86413  1.0000
  H   H10       1.0  0.48210  0.13587  0.43766  1.0000
  H   H11       1.0  0.98211  0.43765  0.13587  1.0000
  H   H12       1.0  0.51790  0.86413  0.56235  1.0000
  H   H13       1.0  0.83610  0.50562  0.82844  1.0000
  H   H14       1.0  0.66390  0.17156  0.49439  1.0000
  H   H15       1.0  0.16390  0.49438  0.17156  1.0000
  H   H16       1.0  0.33611  0.82844  0.50562  1.0000
  H   H17       1.0  0.80085  0.68464  0.83286  1.0000
  H   H18       1.0  0.69914  0.16715  0.31536  1.0000
  H   H19       1.0  0.19915  0.31535  0.16714  1.0000
  H   H20       1.0  0.30086  0.83285  0.68464  1.0000
  H   H21       1.0  0.80393  0.89246  0.59278  1.0000
  H   H22       1.0  0.69608  0.40722  0.10756  1.0000
  H   H23       1.0  0.19607  0.10754  0.40722  1.0000
  H   H24       1.0  0.30392  0.59278  0.89245  1.0000
  C   C1        1.0  0.17580  0.66543  0.41241  1.0000
  C   C2        1.0  0.32419  0.58759  0.33457  1.0000
  C   C3        1.0  0.82420  0.33457  0.58759  1.0000
  C   C4        1.0  0.67581  0.41241  0.66542  1.0000
  C   C5        1.0  0.10779  0.59507  0.56565  1.0000
  C   C6        1.0  0.39220  0.43435  0.40495  1.0000
  C   C7        1.0  0.89221  0.40494  0.43435  1.0000
  C   C8        1.0  0.60780  0.56565  0.59506  1.0000
  C   C9        1.0  0.97876  0.88714  0.39180  1.0000
  C   C10       1.0  0.52125  0.60820  0.11288  1.0000
  C   C11       1.0  0.02124  0.11286  0.60820  1.0000
  C   C12       1.0  0.47876  0.39179  0.88713  1.0000
  C   C13       1.0  0.97241  0.67520  0.63452  1.0000
  C   C14       1.0  0.52758  0.36549  0.32480  1.0000
  C   C15       1.0  0.02759  0.32480  0.36548  1.0000
  C   C16       1.0  0.47242  0.63451  0.67520  1.0000
  C   C17       1.0  0.90140  0.60394  0.79874  1.0000
  C   C18       1.0  0.59859  0.20126  0.39607  1.0000
  C   C19       1.0  0.09860  0.39605  0.20126  1.0000
  C   C20       1.0  0.40141  0.79874  0.60394  1.0000
  C   C21       1.0  0.90785  0.82506  0.54406  1.0000
  C   C22       1.0  0.59214  0.45594  0.17496  1.0000
  C   C23       1.0  0.09215  0.17495  0.45594  1.0000
  C   C24       1.0  0.40786  0.54406  0.82505  1.0000
  Br  Br1       1.0  0.49411  0.99093  0.81214  1.0000
  Br  Br2       1.0  0.00588  0.18785  0.00906  1.0000
  Br  Br3       1.0  0.50590  0.00906  0.18785  1.0000
  Br  Br4       1.0  0.99412  0.81214  0.99094  1.0000
  N   N1        1.0  0.10988  0.81014  0.32783  1.0000
  N   N2        1.0  0.39012  0.67217  0.18987  1.0000
  N   N3        1.0  0.89012  0.18986  0.67217  1.0000
  N   N4        1.0  0.60988  0.32783  0.81013  1.0000
