data_image0
_chemical_formula_structural       Ag4H56C30N12Cl4O26
_chemical_formula_sum              "Ag4 H56 C30 N12 Cl4 O26"
_cell_length_a       10.0128
_cell_length_b       10.0683
_cell_length_c       13.191
_cell_angle_alpha    100.979
_cell_angle_beta     92.2967
_cell_angle_gamma    108.455

_space_group_name_H-M_alt    "P 1"
_space_group_IT_number       1

loop_
  _space_group_symop_operation_xyz
  'x, y, z'

loop_
  _atom_site_type_symbol
  _atom_site_label
  _atom_site_symmetry_multiplicity
  _atom_site_fract_x
  _atom_site_fract_y
  _atom_site_fract_z
  _atom_site_occupancy
  Ag  Ag1       1.0  0.54766  0.40928  0.60569  1.0000
  Ag  Ag2       1.0  0.45234  0.59072  0.39431  1.0000
  Ag  Ag3       1.0  0.05099  0.07568  0.81939  1.0000
  Ag  Ag4       1.0  0.94902  0.92432  0.18061  1.0000
  H   H1        1.0  0.88651  0.86221  0.91978  1.0000
  H   H2        1.0  0.11349  0.13779  0.08022  1.0000
  H   H3        1.0  0.70794  0.50876  0.45518  1.0000
  H   H4        1.0  0.29206  0.49124  0.54482  1.0000
  H   H5        1.0  0.62084  0.34225  0.40351  1.0000
  H   H6        1.0  0.37916  0.65775  0.59649  1.0000
  H   H7        1.0  0.04358  0.85655  0.90955  1.0000
  H   H8        1.0  0.95642  0.14345  0.09045  1.0000
  H   H9        1.0  0.41573  0.72165  0.89103  1.0000
  H   H10       1.0  0.58427  0.27835  0.10897  1.0000
  H   H11       1.0  0.57652  0.79075  0.83457  1.0000
  H   H12       1.0  0.42348  0.20925  0.16543  1.0000
  H   H13       1.0  0.62025  0.89899  0.02008  1.0000
  H   H14       1.0  0.37975  0.10101  0.97992  1.0000
  H   H15       1.0  0.55092  0.72683  0.05289  1.0000
  H   H16       1.0  0.44908  0.27317  0.94711  1.0000
  H   H17       1.0  0.67806  0.56569  0.02038  1.0000
  H   H18       1.0  0.32194  0.43431  0.97962  1.0000
  H   H19       1.0  0.84603  0.62276  0.97215  1.0000
  H   H20       1.0  0.15396  0.37724  0.02785  1.0000
  H   H21       1.0  0.55790  0.18078  0.73485  1.0000
  H   H22       1.0  0.44210  0.81922  0.26515  1.0000
  H   H23       1.0  0.50551  0.09365  0.60107  1.0000
  H   H24       1.0  0.49449  0.90636  0.39893  1.0000
  H   H25       1.0  0.58257  0.93343  0.69167  1.0000
  H   H26       1.0  0.41744  0.06657  0.30833  1.0000
  H   H27       1.0  0.47122  0.95558  0.79189  1.0000
  H   H28       1.0  0.52878  0.04441  0.20811  1.0000
  H   H29       1.0  0.22075  0.84893  0.74972  1.0000
  H   H30       1.0  0.77925  0.15107  0.25028  1.0000
  H   H31       1.0  0.15576  0.74818  0.61985  1.0000
  H   H32       1.0  0.84424  0.25182  0.38014  1.0000
  H   H33       1.0  0.23615  0.96904  0.55045  1.0000
  H   H34       1.0  0.76385  0.03096  0.44955  1.0000
  H   H35       1.0  0.12164  0.98773  0.64674  1.0000
  H   H36       1.0  0.87836  0.01227  0.35326  1.0000
  H   H37       1.0  0.11560  0.59663  0.80900  1.0000
  H   H38       1.0  0.88440  0.40337  0.19100  1.0000
  H   H39       1.0  0.94868  0.49569  0.84295  1.0000
  H   H40       1.0  0.05132  0.50431  0.15705  1.0000
  H   H41       1.0  0.90791  0.63946  0.71810  1.0000
  H   H42       1.0  0.09209  0.36054  0.28190  1.0000
  H   H43       1.0  0.00831  0.56495  0.62833  1.0000
  H   H44       1.0  0.99168  0.43505  0.37167  1.0000
  H   H45       1.0  0.91892  0.32573  0.54429  1.0000
  H   H46       1.0  0.08108  0.67427  0.45571  1.0000
  H   H47       1.0  0.74920  0.21819  0.57211  1.0000
  H   H48       1.0  0.25080  0.78181  0.42789  1.0000
  H   H49       1.0  0.84897  0.22062  0.74554  1.0000
  H   H50       1.0  0.15103  0.77938  0.25446  1.0000
  H   H51       1.0  0.95700  0.16814  0.65244  1.0000
  H   H52       1.0  0.04300  0.83186  0.34756  1.0000
  H   H53       1.0  0.73039  0.62110  0.80182  1.0000
  H   H54       1.0  0.26961  0.37890  0.19818  1.0000
  H   H55       1.0  0.65717  0.45017  0.83422  1.0000
  H   H56       1.0  0.34283  0.54983  0.16578  1.0000
  C   C1        1.0  0.17508  0.36748  0.75878  1.0000
  C   C2        1.0  0.82492  0.63252  0.24122  1.0000
  C   C3        1.0  0.41228  0.47163  0.79627  1.0000
  C   C4        1.0  0.58772  0.52837  0.20373  1.0000
  C   C5        1.0  0.31984  0.23070  0.72486  1.0000
  C   C6        1.0  0.68016  0.76930  0.27514  1.0000
  C   C7        1.0  0.52544  0.72372  0.88829  1.0000
  C   C8        1.0  0.47456  0.27628  0.11171  1.0000
  C   C9        1.0  0.60696  0.78486  0.99589  1.0000
  C   C10       1.0  0.39304  0.21515  0.00411  1.0000
  C   C11       1.0  0.73784  0.62592  0.96593  1.0000
  C   C12       1.0  0.26216  0.37408  0.03406  1.0000
  C   C13       1.0  0.47939  0.09047  0.68147  1.0000
  C   C14       1.0  0.52061  0.90953  0.31853  1.0000
  C   C15       1.0  0.48258  0.95083  0.70861  1.0000
  C   C16       1.0  0.51742  0.04917  0.29138  1.0000
  C   C17       1.0  0.23581  0.84387  0.66672  1.0000
  C   C18       1.0  0.76419  0.15613  0.33328  1.0000
  C   C19       1.0  0.22517  0.97666  0.63397  1.0000
  C   C20       1.0  0.77483  0.02334  0.36603  1.0000
  C   C21       1.0  0.01572  0.51047  0.77892  1.0000
  C   C22       1.0  0.98428  0.48953  0.22108  1.0000
  C   C23       1.0  0.93916  0.54494  0.69087  1.0000
  C   C24       1.0  0.06084  0.45506  0.30914  1.0000
  C   C25       1.0  0.84877  0.30325  0.60597  1.0000
  C   C26       1.0  0.15123  0.69675  0.39403  1.0000
  C   C27       1.0  0.92287  0.25709  0.68915  1.0000
  C   C28       1.0  0.07713  0.74291  0.31085  1.0000
  C   C29       1.0  0.66685  0.56341  0.85584  1.0000
  C   C30       1.0  0.33315  0.43659  0.14416  1.0000
  N   N1        1.0  0.43541  0.35035  0.74346  1.0000
  N   N2        1.0  0.56459  0.64965  0.25654  1.0000
  N   N3        1.0  0.18715  0.23308  0.74020  1.0000
  N   N4        1.0  0.81285  0.76692  0.25980  1.0000
  N   N5        1.0  0.28470  0.48816  0.79558  1.0000
  N   N6        1.0  0.71529  0.51183  0.20442  1.0000
  N   N7        1.0  0.04519  0.37755  0.74186  1.0000
  N   N8        1.0  0.95481  0.62245  0.25814  1.0000
  N   N9        1.0  0.52652  0.57817  0.84916  1.0000
  N   N10       1.0  0.47348  0.42183  0.15084  1.0000
  N   N11       1.0  0.33886  0.10265  0.69156  1.0000
  N   N12       1.0  0.66115  0.89735  0.30844  1.0000
  Cl  Cl1       1.0  0.79192  0.18688  0.94995  1.0000
  Cl  Cl2       1.0  0.20808  0.81312  0.05005  1.0000
  Cl  Cl3       1.0  0.77129  0.78382  0.57523  1.0000
  Cl  Cl4       1.0  0.22871  0.21618  0.42477  1.0000
  O   O1        1.0  0.61455  0.43329  0.44453  1.0000
  O   O2        1.0  0.38545  0.56671  0.55547  1.0000
  O   O3        1.0  0.96480  0.87618  0.87496  1.0000
  O   O4        1.0  0.03520  0.12382  0.12504  1.0000
  O   O5        1.0  0.70326  0.27162  0.93237  1.0000
  O   O6        1.0  0.29674  0.72838  0.06763  1.0000
  O   O7        1.0  0.74531  0.04970  0.87563  1.0000
  O   O8        1.0  0.25469  0.95030  0.12437  1.0000
  O   O9        1.0  0.78423  0.16101  0.05668  1.0000
  O   O10       1.0  0.21577  0.83899  0.94332  1.0000
  O   O11       1.0  0.94010  0.26464  0.93916  1.0000
  O   O12       1.0  0.05990  0.73536  0.06084  1.0000
  O   O13       1.0  0.81256  0.42788  0.64766  1.0000
  O   O14       1.0  0.18744  0.57212  0.35234  1.0000
  O   O15       1.0  0.74808  0.77487  0.99686  1.0000
  O   O16       1.0  0.25192  0.22513  0.00314  1.0000
  O   O17       1.0  0.37131  0.82848  0.64874  1.0000
  O   O18       1.0  0.62869  0.17152  0.35126  1.0000
  O   O19       1.0  0.66179  0.81362  0.51536  1.0000
  O   O20       1.0  0.33821  0.18638  0.48464  1.0000
  O   O21       1.0  0.70792  0.70999  0.65546  1.0000
  O   O22       1.0  0.29208  0.29001  0.34454  1.0000
  O   O23       1.0  0.88192  0.91839  0.62244  1.0000
  O   O24       1.0  0.11808  0.08160  0.37757  1.0000
  O   O25       1.0  0.83416  0.69258  0.50543  1.0000
  O   O26       1.0  0.16584  0.30742  0.49457  1.0000
