data_image0
_chemical_formula_structural       Cu4H22C28Br4N10
_chemical_formula_sum              "Cu4 H22 C28 Br4 N10"
_cell_length_a       7.39286
_cell_length_b       9.86364
_cell_length_c       11.3379
_cell_angle_alpha    71.0064
_cell_angle_beta     84.1641
_cell_angle_gamma    71.7601

_space_group_name_H-M_alt    "P 1"
_space_group_IT_number       1

loop_
  _space_group_symop_operation_xyz
  'x, y, z'

loop_
  _atom_site_type_symbol
  _atom_site_label
  _atom_site_symmetry_multiplicity
  _atom_site_fract_x
  _atom_site_fract_y
  _atom_site_fract_z
  _atom_site_occupancy
  Cu  Cu1       1.0  0.47734  0.26601  0.30313  1.0000
  Cu  Cu2       1.0  0.52265  0.73399  0.69686  1.0000
  Cu  Cu3       1.0  0.27417  0.10504  0.46367  1.0000
  Cu  Cu4       1.0  0.72582  0.89500  0.53632  1.0000
  H   H1        1.0  0.41638  0.05173  0.23312  1.0000
  H   H2        1.0  0.58363  0.94826  0.76688  1.0000
  H   H3        1.0  0.44140  0.97513  0.10984  1.0000
  H   H4        1.0  0.55860  0.02486  0.89016  1.0000
  H   H5        1.0  0.82951  0.41368  0.90102  1.0000
  H   H6        1.0  0.17049  0.58632  0.09899  1.0000
  H   H7        1.0  0.82833  0.57679  0.97820  1.0000
  H   H8        1.0  0.17169  0.42320  0.02180  1.0000
  H   H9        1.0  0.81247  0.76553  0.08381  1.0000
  H   H10       1.0  0.18755  0.23445  0.91619  1.0000
  H   H11       1.0  0.66053  0.73665  0.29641  1.0000
  H   H12       1.0  0.33948  0.26334  0.70360  1.0000
  H   H13       1.0  0.52225  0.52490  0.38969  1.0000
  H   H14       1.0  0.47774  0.47510  0.61031  1.0000
  H   H15       1.0  0.02888  0.36425  0.52466  1.0000
  H   H16       1.0  0.97111  0.63577  0.47535  1.0000
  H   H17       1.0  0.83944  0.42018  0.70634  1.0000
  H   H18       1.0  0.16055  0.57981  0.29367  1.0000
  H   H19       1.0  0.91134  0.94333  0.86566  1.0000
  H   H20       1.0  0.08868  0.05666  0.13433  1.0000
  H   H21       1.0  0.10275  0.90815  0.67814  1.0000
  H   H22       1.0  0.89727  0.09186  0.32185  1.0000
  C   C1        1.0  0.59017  0.12412  0.09364  1.0000
  C   C2        1.0  0.40982  0.87588  0.90636  1.0000
  C   C3        1.0  0.76242  0.20870  0.91875  1.0000
  C   C4        1.0  0.23758  0.79129  0.08125  1.0000
  C   C5        1.0  0.76470  0.32892  0.95799  1.0000
  C   C6        1.0  0.23530  0.67108  0.04201  1.0000
  C   C7        1.0  0.68477  0.33348  0.07431  1.0000
  C   C8        1.0  0.31521  0.66652  0.92569  1.0000
  C   C9        1.0  0.68247  0.45072  0.12907  1.0000
  C   C10       1.0  0.31753  0.54928  0.87093  1.0000
  C   C11       1.0  0.76306  0.56685  0.07013  1.0000
  C   C12       1.0  0.23695  0.43314  0.92987  1.0000
  C   C13       1.0  0.75437  0.67233  0.12905  1.0000
  C   C14       1.0  0.24565  0.32765  0.87095  1.0000
  C   C15       1.0  0.67079  0.65683  0.24685  1.0000
  C   C16       1.0  0.32922  0.34316  0.75315  1.0000
  C   C17       1.0  0.59253  0.53930  0.29902  1.0000
  C   C18       1.0  0.40746  0.46069  0.70098  1.0000
  C   C19       1.0  0.00156  0.27426  0.60377  1.0000
  C   C20       1.0  0.99844  0.72576  0.39623  1.0000
  C   C21       1.0  0.89494  0.30430  0.70515  1.0000
  C   C22       1.0  0.10506  0.69571  0.29485  1.0000
  C   C23       1.0  0.86287  0.18471  0.80459  1.0000
  C   C24       1.0  0.13714  0.81529  0.19540  1.0000
  C   C25       1.0  0.93481  0.04013  0.79273  1.0000
  C   C26       1.0  0.06520  0.95987  0.20727  1.0000
  C   C27       1.0  0.04225  0.01958  0.68854  1.0000
  C   C28       1.0  0.95776  0.98043  0.31146  1.0000
  Br  Br1       1.0  0.13715  0.30788  0.27603  1.0000
  Br  Br2       1.0  0.86285  0.69212  0.72394  1.0000
  Br  Br3       1.0  0.57742  0.15905  0.52180  1.0000
  Br  Br4       1.0  0.42256  0.84098  0.47820  1.0000
  N   N1        1.0  0.60395  0.22802  0.14473  1.0000
  N   N2        1.0  0.39604  0.77198  0.85527  1.0000
  N   N3        1.0  0.67356  0.10768  0.98544  1.0000
  N   N4        1.0  0.32644  0.89231  0.01456  1.0000
  N   N5        1.0  0.48982  0.03087  0.15665  1.0000
  N   N6        1.0  0.51018  0.96912  0.84335  1.0000
  N   N7        1.0  0.59332  0.44034  0.24090  1.0000
  N   N8        1.0  0.40667  0.55966  0.75910  1.0000
  N   N9        1.0  0.08059  0.13394  0.59616  1.0000
  N   N10       1.0  0.91940  0.86608  0.40384  1.0000
