data_image0
_chemical_formula_structural       Zn2H36C52N4O16
_chemical_formula_sum              "Zn2 H36 C52 N4 O16"
_cell_length_a       9.60546
_cell_length_b       11.5348
_cell_length_c       13.0378
_cell_angle_alpha    88.3815
_cell_angle_beta     68.3739
_cell_angle_gamma    65.3961

_space_group_name_H-M_alt    "P 1"
_space_group_IT_number       1

loop_
  _space_group_symop_operation_xyz
  'x, y, z'

loop_
  _atom_site_type_symbol
  _atom_site_label
  _atom_site_symmetry_multiplicity
  _atom_site_fract_x
  _atom_site_fract_y
  _atom_site_fract_z
  _atom_site_occupancy
  Zn  Zn1       1.0  0.37166  0.25000  0.25002  1.0000
  Zn  Zn2       1.0  0.62834  0.75000  0.74999  1.0000
  H   H1        1.0  0.12902  0.92387  0.30488  1.0000
  H   H2        1.0  0.85776  0.57614  0.19514  1.0000
  H   H3        1.0  0.87098  0.07613  0.69512  1.0000
  H   H4        1.0  0.14224  0.42385  0.80486  1.0000
  H   H5        1.0  0.16844  0.26806  0.48915  1.0000
  H   H6        1.0  0.42564  0.23198  0.01085  1.0000
  H   H7        1.0  0.83156  0.73194  0.51085  1.0000
  H   H8        1.0  0.57436  0.76802  0.98915  1.0000
  H   H9        1.0  0.39851  0.53553  0.13113  1.0000
  H   H10       1.0  0.56518  0.96454  0.36886  1.0000
  H   H11       1.0  0.60149  0.46447  0.86887  1.0000
  H   H12       1.0  0.43482  0.03546  0.63114  1.0000
  H   H13       1.0  0.26678  0.67153  0.91955  1.0000
  H   H14       1.0  0.35787  0.82852  0.58047  1.0000
  H   H15       1.0  0.73322  0.32847  0.08045  1.0000
  H   H16       1.0  0.64212  0.17148  0.41953  1.0000
  H   H17       1.0  0.79643  0.98457  0.95316  1.0000
  H   H18       1.0  0.23418  0.51547  0.54683  1.0000
  H   H19       1.0  0.20357  0.01543  0.04684  1.0000
  H   H20       1.0  0.76582  0.48453  0.45317  1.0000
  H   H21       1.0  0.89595  0.87402  0.24457  1.0000
  H   H22       1.0  0.51455  0.62600  0.25544  1.0000
  H   H23       1.0  0.10405  0.12598  0.75543  1.0000
  H   H24       1.0  0.48545  0.37400  0.74456  1.0000
  H   H25       1.0  0.07559  0.81178  0.83328  1.0000
  H   H26       1.0  0.22069  0.68823  0.66673  1.0000
  H   H27       1.0  0.92441  0.18822  0.16672  1.0000
  H   H28       1.0  0.77931  0.31177  0.33327  1.0000
  H   H29       1.0  0.99868  0.16581  0.60671  1.0000
  H   H30       1.0  0.27114  0.33420  0.89332  1.0000
  H   H31       1.0  0.00132  0.83419  0.39329  1.0000
  H   H32       1.0  0.72886  0.66580  0.10668  1.0000
  H   H33       1.0  0.28919  0.04144  0.20067  1.0000
  H   H34       1.0  0.03131  0.45855  0.29933  1.0000
  H   H35       1.0  0.71081  0.95856  0.79933  1.0000
  H   H36       1.0  0.96869  0.54145  0.70067  1.0000
  C   C1        1.0  0.13168  0.00034  0.35008  1.0000
  C   C2        1.0  0.98213  0.49968  0.14992  1.0000
  C   C3        1.0  0.86832  0.99966  0.64992  1.0000
  C   C4        1.0  0.01787  0.50032  0.85008  1.0000
  C   C5        1.0  0.15462  0.19180  0.45243  1.0000
  C   C6        1.0  0.29887  0.30827  0.04757  1.0000
  C   C7        1.0  0.84538  0.80820  0.54757  1.0000
  C   C8        1.0  0.70113  0.69173  0.95242  1.0000
  C   C9        1.0  0.04863  0.03329  0.46666  1.0000
  C   C10       1.0  0.04857  0.46673  0.03335  1.0000
  C   C11       1.0  0.95137  0.96671  0.53334  1.0000
  C   C12       1.0  0.95143  0.53327  0.96665  1.0000
  C   C13       1.0  0.14365  0.74532  0.97188  1.0000
  C   C14       1.0  0.36090  0.75472  0.52813  1.0000
  C   C15       1.0  0.85636  0.25468  0.02812  1.0000
  C   C16       1.0  0.63910  0.24528  0.47187  1.0000
  C   C17       1.0  0.19622  0.68261  0.14788  1.0000
  C   C18       1.0  0.52678  0.81743  0.35215  1.0000
  C   C19       1.0  0.80378  0.31739  0.85212  1.0000
  C   C20       1.0  0.47322  0.18257  0.64785  1.0000
  C   C21       1.0  0.66598  0.04479  0.17941  1.0000
  C   C22       1.0  0.39009  0.45528  0.32061  1.0000
  C   C23       1.0  0.33402  0.95521  0.82059  1.0000
  C   C24       1.0  0.60992  0.54472  0.67939  1.0000
  C   C25       1.0  0.87999  0.92095  0.99001  1.0000
  C   C26       1.0  0.29093  0.57912  0.50999  1.0000
  C   C27       1.0  0.12001  0.07905  0.00999  1.0000
  C   C28       1.0  0.70908  0.42088  0.49001  1.0000
  C   C29       1.0  0.82933  0.93962  0.10615  1.0000
  C   C30       1.0  0.37496  0.56050  0.39385  1.0000
  C   C31       1.0  0.17067  0.06038  0.89386  1.0000
  C   C32       1.0  0.62504  0.43950  0.60615  1.0000
  C   C33       1.0  0.93573  0.86020  0.15438  1.0000
  C   C34       1.0  0.45029  0.63988  0.34563  1.0000
  C   C35       1.0  0.06427  0.13980  0.84562  1.0000
  C   C36       1.0  0.54971  0.36012  0.65437  1.0000
  C   C37       1.0  0.09239  0.76336  0.08837  1.0000
  C   C38       1.0  0.44419  0.73666  0.41164  1.0000
  C   C39       1.0  0.90761  0.23664  0.91163  1.0000
  C   C40       1.0  0.55581  0.26334  0.58836  1.0000
  C   C41       1.0  0.03617  0.82434  0.92373  1.0000
  C   C42       1.0  0.28427  0.67568  0.57627  1.0000
  C   C43       1.0  0.96384  0.17565  0.07628  1.0000
  C   C44       1.0  0.71573  0.32432  0.42373  1.0000
  C   C45       1.0  0.06156  0.13178  0.51744  1.0000
  C   C46       1.0  0.21075  0.36823  0.98258  1.0000
  C   C47       1.0  0.93844  0.86822  0.48256  1.0000
  C   C48       1.0  0.78925  0.63177  0.01742  1.0000
  C   C49       1.0  0.22172  0.06530  0.29099  1.0000
  C   C50       1.0  0.07804  0.43472  0.20901  1.0000
  C   C51       1.0  0.77829  0.93470  0.70901  1.0000
  C   C52       1.0  0.92196  0.56528  0.79099  1.0000
  N   N1        1.0  0.23343  0.15946  0.34100  1.0000
  N   N2        1.0  0.23396  0.34057  0.15899  1.0000
  N   N3        1.0  0.76657  0.84053  0.65900  1.0000
  N   N4        1.0  0.76604  0.65943  0.84101  1.0000
  O   O1        1.0  0.62269  0.06112  0.28415  1.0000
  O   O2        1.0  0.46788  0.43891  0.21587  1.0000
  O   O3        1.0  0.37731  0.93888  0.71585  1.0000
  O   O4        1.0  0.53212  0.56109  0.78413  1.0000
  O   O5        1.0  0.57398  0.11949  0.13091  1.0000
  O   O6        1.0  0.32442  0.38050  0.36913  1.0000
  O   O7        1.0  0.42602  0.88051  0.86909  1.0000
  O   O8        1.0  0.67558  0.61950  0.63087  1.0000
  O   O9        1.0  0.34295  0.58905  0.08213  1.0000
  O   O10       1.0  0.51414  0.91101  0.41787  1.0000
  O   O11       1.0  0.65705  0.41094  0.91787  1.0000
  O   O12       1.0  0.48587  0.08899  0.58213  1.0000
  O   O13       1.0  0.14871  0.70051  0.25053  1.0000
  O   O14       1.0  0.59984  0.79951  0.24948  1.0000
  O   O15       1.0  0.85129  0.29949  0.74947  1.0000
  O   O16       1.0  0.40015  0.20049  0.75052  1.0000
