data_image0
_chemical_formula_structural       Zn2H48C52S4N4Cl4O16
_chemical_formula_sum              "Zn2 H48 C52 S4 N4 Cl4 O16"
_cell_length_a       11.4218
_cell_length_b       11.3191
_cell_length_c       14.0328
_cell_angle_alpha    78.202
_cell_angle_beta     66.1029
_cell_angle_gamma    59.6927

_space_group_name_H-M_alt    "P 1"
_space_group_IT_number       1

loop_
  _space_group_symop_operation_xyz
  'x, y, z'

loop_
  _atom_site_type_symbol
  _atom_site_label
  _atom_site_symmetry_multiplicity
  _atom_site_fract_x
  _atom_site_fract_y
  _atom_site_fract_z
  _atom_site_occupancy
  Zn  Zn1       1.0  0.79961  0.99995  0.00001  1.0000
  Zn  Zn2       1.0  0.54957  0.50009  0.50005  1.0000
  H   H1        1.0  0.60331  0.12059  0.55551  1.0000
  H   H2        1.0  0.27879  0.88005  0.44461  1.0000
  H   H3        1.0  0.90871  0.62009  0.94481  1.0000
  H   H4        1.0  0.47374  0.37945  0.05586  1.0000
  H   H5        1.0  0.42074  0.27853  0.70090  1.0000
  H   H6        1.0  0.39964  0.72226  0.29894  1.0000
  H   H7        1.0  0.87175  0.77798  0.79919  1.0000
  H   H8        1.0  0.44912  0.22158  0.20130  1.0000
  H   H9        1.0  0.10986  0.15400  0.71945  1.0000
  H   H10       1.0  0.98317  0.84553  0.28008  1.0000
  H   H11       1.0  0.57888  0.65446  0.78006  1.0000
  H   H12       1.0  0.01397  0.34551  0.21945  1.0000
  H   H13       1.0  0.29415  0.00099  0.56556  1.0000
  H   H14       1.0  0.86056  0.99852  0.43408  1.0000
  H   H15       1.0  0.60926  0.50151  0.93405  1.0000
  H   H16       1.0  0.04533  0.49840  0.06550  1.0000
  H   H17       1.0  0.49013  0.12766  0.34576  1.0000
  H   H18       1.0  0.96404  0.87192  0.65397  1.0000
  H   H19       1.0  0.58598  0.62800  0.15401  1.0000
  H   H20       1.0  0.36796  0.37209  0.84579  1.0000
  H   H21       1.0  0.63633  0.12450  0.36686  1.0000
  H   H22       1.0  0.12768  0.87560  0.63338  1.0000
  H   H23       1.0  0.75329  0.62431  0.13342  1.0000
  H   H24       1.0  0.51083  0.37553  0.86694  1.0000
  H   H25       1.0  0.64277  0.07154  0.84815  1.0000
  H   H26       1.0  0.56299  0.92844  0.15189  1.0000
  H   H27       1.0  0.24129  0.57180  0.65195  1.0000
  H   H28       1.0  0.46421  0.42877  0.34819  1.0000
  H   H29       1.0  0.42970  0.07005  0.84016  1.0000
  H   H30       1.0  0.34039  0.93027  0.15977  1.0000
  H   H31       1.0  0.02051  0.56998  0.65984  1.0000
  H   H32       1.0  0.24965  0.43011  0.34026  1.0000
  H   H33       1.0  0.08666  0.12337  0.14011  1.0000
  H   H34       1.0  0.34950  0.87682  0.85993  1.0000
  H   H35       1.0  0.97635  0.62323  0.35990  1.0000
  H   H36       1.0  0.96024  0.37663  0.64009  1.0000
  H   H37       1.0  0.87357  0.12237  0.13185  1.0000
  H   H38       1.0  0.12744  0.87744  0.86820  1.0000
  H   H39       1.0  0.75497  0.62240  0.36819  1.0000
  H   H40       1.0  0.74624  0.37746  0.63182  1.0000
  H   H41       1.0  0.72384  0.26434  0.99090  1.0000
  H   H42       1.0  0.97948  0.73550  0.00909  1.0000
  H   H43       1.0  0.46510  0.76443  0.50916  1.0000
  H   H44       1.0  0.73827  0.23565  0.49099  1.0000
  H   H45       1.0  0.79838  0.19538  0.87593  1.0000
  H   H46       1.0  0.86992  0.80434  0.12407  1.0000
  H   H47       1.0  0.42425  0.69568  0.62418  1.0000
  H   H48       1.0  0.74374  0.30461  0.37600  1.0000
  C   C1        1.0  0.45810  0.05232  0.55160  1.0000
  C   C2        1.0  0.06170  0.94777  0.44825  1.0000
  C   C3        1.0  0.75948  0.55229  0.94836  1.0000
  C   C4        1.0  0.26046  0.44740  0.05175  1.0000
  C   C5        1.0  0.49562  0.12774  0.59010  1.0000
  C   C6        1.0  0.21297  0.87271  0.40983  1.0000
  C   C7        1.0  0.83558  0.62743  0.91000  1.0000
  C   C8        1.0  0.37324  0.37222  0.09039  1.0000
  C   C9        1.0  0.39309  0.21525  0.67421  1.0000
  C   C10       1.0  0.28207  0.78528  0.32561  1.0000
  C   C11       1.0  0.81727  0.71489  0.82578  1.0000
  C   C12       1.0  0.35823  0.28474  0.17453  1.0000
  C   C13       1.0  0.25590  0.22236  0.72034  1.0000
  C   C14       1.0  0.19828  0.77785  0.27931  1.0000
  C   C15       1.0  0.72620  0.72224  0.77937  1.0000
  C   C16       1.0  0.22822  0.27750  0.22062  1.0000
  C   C17       1.0  0.21771  0.14677  0.68283  1.0000
  C   C18       1.0  0.04708  0.85301  0.31681  1.0000
  C   C19       1.0  0.65024  0.64703  0.81680  1.0000
  C   C20       1.0  0.11453  0.35286  0.18295  1.0000
  C   C21       1.0  0.32044  0.06120  0.59703  1.0000
  C   C22       1.0  0.97849  0.93852  0.40268  1.0000
  C   C23       1.0  0.66715  0.56151  0.90269  1.0000
  C   C24       1.0  0.13177  0.43834  0.09709  1.0000
  C   C25       1.0  0.60099  0.06217  0.34580  1.0000
  C   C26       1.0  0.00905  0.93766  0.65423  1.0000
  C   C27       1.0  0.69671  0.56227  0.15428  1.0000
  C   C28       1.0  0.41314  0.43776  0.84585  1.0000
  C   C29       1.0  0.70694  0.99128  0.24070  1.0000
  C   C30       1.0  0.93889  0.00854  0.75939  1.0000
  C   C31       1.0  0.69739  0.49143  0.25945  1.0000
  C   C32       1.0  0.44806  0.50876  0.74078  1.0000
  C   C33       1.0  0.57380  0.03950  0.91525  1.0000
  C   C34       1.0  0.52878  0.96066  0.08477  1.0000
  C   C35       1.0  0.23927  0.53967  0.58482  1.0000
  C   C36       1.0  0.36318  0.46085  0.41527  1.0000
  C   C37       1.0  0.45445  0.03897  0.91132  1.0000
  C   C38       1.0  0.40497  0.96132  0.08862  1.0000
  C   C39       1.0  0.11610  0.53900  0.58869  1.0000
  C   C40       1.0  0.24335  0.46125  0.41138  1.0000
  C   C41       1.0  0.36624  0.00020  0.99998  1.0000
  C   C42       1.0  0.11636  0.50004  0.50004  1.0000
  C   C43       1.0  0.23692  0.00018  0.99998  1.0000
  C   C44       1.0  0.98712  0.49994  0.50000  1.0000
  C   C45       1.0  0.10097  0.06739  0.07827  1.0000
  C   C46       1.0  0.24624  0.93280  0.92176  1.0000
  C   C47       1.0  0.92911  0.56725  0.42174  1.0000
  C   C48       1.0  0.91857  0.43259  0.57824  1.0000
  C   C49       1.0  0.98163  0.06655  0.07451  1.0000
  C   C50       1.0  0.12244  0.93344  0.92550  1.0000
  C   C51       1.0  0.80598  0.56648  0.42551  1.0000
  C   C52       1.0  0.79842  0.43334  0.57449  1.0000
  S   S1        1.0  0.59439  0.93398  0.44681  1.0000
  S   S2        1.0  0.97493  0.06593  0.55327  1.0000
  S   S3        1.0  0.79085  0.43401  0.05333  1.0000
  S   S4        1.0  0.27825  0.56581  0.94693  1.0000
  N   N1        1.0  0.61164  0.00004  0.00003  1.0000
  N   N2        1.0  0.36154  0.50029  0.50007  1.0000
  N   N3        1.0  0.99151  0.99993  0.00002  1.0000
  N   N4        1.0  0.74163  0.49994  0.50001  1.0000
  Cl  Cl1       1.0  0.13029  0.32753  0.82789  1.0000
  Cl  Cl2       1.0  0.28538  0.67293  0.17159  1.0000
  Cl  Cl3       1.0  0.70840  0.82716  0.67162  1.0000
  Cl  Cl4       1.0  0.20771  0.17244  0.32821  1.0000
  O   O1        1.0  0.52198  0.86860  0.42283  1.0000
  O   O2        1.0  0.81333  0.13116  0.57708  1.0000
  O   O3        1.0  0.69443  0.36887  0.07706  1.0000
  O   O4        1.0  0.14046  0.63105  0.92294  1.0000
  O   O5        1.0  0.80636  0.87000  0.24080  1.0000
  O   O6        1.0  0.91778  0.12953  0.75948  1.0000
  O   O7        1.0  0.79717  0.37036  0.25956  1.0000
  O   O8        1.0  0.42614  0.63002  0.74096  1.0000
  O   O9        1.0  0.68360  0.06377  0.16165  1.0000
  O   O10       1.0  0.90807  0.93645  0.83832  1.0000
  O   O11       1.0  0.59461  0.56366  0.33836  1.0000
  O   O12       1.0  0.49715  0.43636  0.66171  1.0000
  O   O13       1.0  0.71997  0.20868  0.94663  1.0000
  O   O14       1.0  0.87577  0.79106  0.05318  1.0000
  O   O15       1.0  0.41683  0.70896  0.55326  1.0000
  O   O16       1.0  0.67869  0.29131  0.44673  1.0000
