data_image0
_chemical_formula_structural       Cu4H40Au4C48N16
_chemical_formula_sum              "Cu4 H40 Au4 C48 N16"
_cell_length_a       7.7087
_cell_length_b       12.5406
_cell_length_c       13.8774
_cell_angle_alpha    90
_cell_angle_beta     90.5279
_cell_angle_gamma    90

_space_group_name_H-M_alt    "P 1"
_space_group_IT_number       1

loop_
  _space_group_symop_operation_xyz
  'x, y, z'

loop_
  _atom_site_type_symbol
  _atom_site_label
  _atom_site_symmetry_multiplicity
  _atom_site_fract_x
  _atom_site_fract_y
  _atom_site_fract_z
  _atom_site_occupancy
  Cu  Cu1       1.0  0.32073  0.82350  0.30973  1.0000
  Cu  Cu2       1.0  0.17928  0.32350  0.19027  1.0000
  Cu  Cu3       1.0  0.67928  0.17650  0.69028  1.0000
  Cu  Cu4       1.0  0.82070  0.67649  0.80972  1.0000
  H   H1        1.0  0.04668  0.89997  0.17290  1.0000
  H   H2        1.0  0.45332  0.39996  0.32711  1.0000
  H   H3        1.0  0.95331  0.10004  0.82711  1.0000
  H   H4        1.0  0.54667  0.60004  0.67288  1.0000
  H   H5        1.0  0.74475  0.85223  0.12425  1.0000
  H   H6        1.0  0.75526  0.35222  0.37575  1.0000
  H   H7        1.0  0.25525  0.14779  0.87575  1.0000
  H   H8        1.0  0.24474  0.64779  0.62425  1.0000
  H   H9        1.0  0.60207  0.69408  0.20167  1.0000
  H   H10       1.0  0.89794  0.19408  0.29833  1.0000
  H   H11       1.0  0.39794  0.30592  0.79833  1.0000
  H   H12       1.0  0.10206  0.80592  0.70167  1.0000
  H   H13       1.0  0.77536  0.58744  0.32296  1.0000
  H   H14       1.0  0.72465  0.08743  0.17703  1.0000
  H   H15       1.0  0.22465  0.41257  0.67703  1.0000
  H   H16       1.0  0.27534  0.91257  0.82297  1.0000
  H   H17       1.0  0.07701  0.64602  0.36306  1.0000
  H   H18       1.0  0.42300  0.14602  0.13694  1.0000
  H   H19       1.0  0.92299  0.35399  0.63694  1.0000
  H   H20       1.0  0.57701  0.85399  0.86306  1.0000
  H   H21       1.0  0.24111  0.05508  0.28937  1.0000
  H   H22       1.0  0.25890  0.55508  0.21063  1.0000
  H   H23       1.0  0.75890  0.94492  0.71064  1.0000
  H   H24       1.0  0.74109  0.44492  0.78937  1.0000
  H   H25       1.0  0.20244  0.21396  0.39514  1.0000
  H   H26       1.0  0.29755  0.71396  0.10485  1.0000
  H   H27       1.0  0.79756  0.78604  0.60486  1.0000
  H   H28       1.0  0.70245  0.28603  0.89515  1.0000
  H   H29       1.0  0.22763  0.19035  0.57523  1.0000
  H   H30       1.0  0.27235  0.69036  0.92476  1.0000
  H   H31       1.0  0.77236  0.80965  0.42477  1.0000
  H   H32       1.0  0.72765  0.30964  0.07524  1.0000
  H   H33       1.0  0.28664  0.00668  0.64021  1.0000
  H   H34       1.0  0.21336  0.50669  0.85980  1.0000
  H   H35       1.0  0.71336  0.99333  0.35979  1.0000
  H   H36       1.0  0.78665  0.49331  0.14020  1.0000
  H   H37       1.0  0.32192  0.85609  0.52373  1.0000
  H   H38       1.0  0.17810  0.35609  0.97627  1.0000
  H   H39       1.0  0.67809  0.14391  0.47628  1.0000
  H   H40       1.0  0.82191  0.64390  0.02373  1.0000
  Au  Au1       1.0  0.49999  1.00000  1.00000  1.0000
  Au  Au2       1.0  0.99999  0.50001  0.49999  1.0000
  Au  Au3       1.0  0.49999  0.49998  0.50000  1.0000
  Au  Au4       1.0  0.99999  0.99999  1.00000  1.0000
  C   C1        1.0  0.43463  0.92734  0.12011  1.0000
  C   C2        1.0  0.06538  0.42735  0.37988  1.0000
  C   C3        1.0  0.56536  0.07264  0.87990  1.0000
  C   C4        1.0  0.93460  0.57265  0.62010  1.0000
  C   C5        1.0  0.44467  0.62929  0.42508  1.0000
  C   C6        1.0  0.05534  0.12928  0.07494  1.0000
  C   C7        1.0  0.55532  0.37071  0.57494  1.0000
  C   C8        1.0  0.94467  0.87069  0.92506  1.0000
  C   C9        1.0  0.98130  0.83146  0.20498  1.0000
  C   C10       1.0  0.51870  0.33146  0.29503  1.0000
  C   C11       1.0  0.01870  0.16854  0.79504  1.0000
  C   C12       1.0  0.48129  0.66854  0.70497  1.0000
  C   C13       1.0  0.81314  0.80423  0.17769  1.0000
  C   C14       1.0  0.68687  0.30422  0.32231  1.0000
  C   C15       1.0  0.18686  0.19578  0.82231  1.0000
  C   C16       1.0  0.31313  0.69578  0.67769  1.0000
  C   C17       1.0  0.73496  0.71582  0.22014  1.0000
  C   C18       1.0  0.76504  0.21581  0.27986  1.0000
  C   C19       1.0  0.26504  0.28418  0.77987  1.0000
  C   C20       1.0  0.23495  0.78418  0.72013  1.0000
  C   C21       1.0  0.83026  0.65699  0.28747  1.0000
  C   C22       1.0  0.66977  0.15699  0.21252  1.0000
  C   C23       1.0  0.16974  0.34302  0.71253  1.0000
  C   C24       1.0  0.33026  0.84303  0.78747  1.0000
  C   C25       1.0  0.99811  0.68960  0.31053  1.0000
  C   C26       1.0  0.50190  0.18960  0.18946  1.0000
  C   C27       1.0  0.00189  0.31041  0.68947  1.0000
  C   C28       1.0  0.49810  0.81041  0.81052  1.0000
  C   C29       1.0  0.24875  0.04771  0.36768  1.0000
  C   C30       1.0  0.25125  0.54770  0.13232  1.0000
  C   C31       1.0  0.75125  0.95229  0.63232  1.0000
  C   C32       1.0  0.74875  0.45229  0.86768  1.0000
  C   C33       1.0  0.22742  0.13609  0.42713  1.0000
  C   C34       1.0  0.27257  0.63608  0.07287  1.0000
  C   C35       1.0  0.77258  0.86392  0.57287  1.0000
  C   C36       1.0  0.72744  0.36391  0.92713  1.0000
  C   C37       1.0  0.24049  0.12261  0.52676  1.0000
  C   C38       1.0  0.25950  0.62262  0.97323  1.0000
  C   C39       1.0  0.75951  0.87740  0.47324  1.0000
  C   C40       1.0  0.74050  0.37738  0.02677  1.0000
  C   C41       1.0  0.27331  0.02077  0.56303  1.0000
  C   C42       1.0  0.22669  0.52077  0.93697  1.0000
  C   C43       1.0  0.72671  0.97924  0.43697  1.0000
  C   C44       1.0  0.77332  0.47922  0.06303  1.0000
  C   C45       1.0  0.29330  0.93667  0.49863  1.0000
  C   C46       1.0  0.20672  0.43667  0.00137  1.0000
  C   C47       1.0  0.70673  0.06333  0.50137  1.0000
  C   C48       1.0  0.79328  0.56332  0.99863  1.0000
  N   N1        1.0  0.40136  0.88525  0.19326  1.0000
  N   N2        1.0  0.09865  0.38526  0.30673  1.0000
  N   N3        1.0  0.59865  0.11474  0.80674  1.0000
  N   N4        1.0  0.90134  0.61474  0.69326  1.0000
  N   N5        1.0  0.41045  0.70576  0.37983  1.0000
  N   N6        1.0  0.08955  0.20576  0.12018  1.0000
  N   N7        1.0  0.58955  0.29422  0.62018  1.0000
  N   N8        1.0  0.91044  0.79422  0.87982  1.0000
  N   N9        1.0  0.28206  0.94922  0.40224  1.0000
  N   N10       1.0  0.21796  0.44921  0.09776  1.0000
  N   N11       1.0  0.71795  0.05078  0.59776  1.0000
  N   N12       1.0  0.78204  0.55078  0.90224  1.0000
  N   N13       1.0  0.07307  0.77572  0.27080  1.0000
  N   N14       1.0  0.42694  0.27571  0.22920  1.0000
  N   N15       1.0  0.92692  0.22429  0.72921  1.0000
  N   N16       1.0  0.57307  0.72429  0.77079  1.0000
