data_image0
_chemical_formula_structural       Cu4H32Au4C24S4N8
_chemical_formula_sum              "Cu4 H32 Au4 C24 S4 N8"
_cell_length_a       8.83053
_cell_length_b       8.83052
_cell_length_c       12.4117
_cell_angle_alpha    103.499
_cell_angle_beta     103.499
_cell_angle_gamma    90.2596

_space_group_name_H-M_alt    "P 1"
_space_group_IT_number       1

loop_
  _space_group_symop_operation_xyz
  'x, y, z'

loop_
  _atom_site_type_symbol
  _atom_site_label
  _atom_site_symmetry_multiplicity
  _atom_site_fract_x
  _atom_site_fract_y
  _atom_site_fract_z
  _atom_site_occupancy
  Cu  Cu1       1.0  0.35865  0.53775  0.64291  1.0000
  Cu  Cu2       1.0  0.53775  0.35865  0.14291  1.0000
  Cu  Cu3       1.0  0.46373  0.75964  0.38112  1.0000
  Cu  Cu4       1.0  0.75963  0.46373  0.88112  1.0000
  H   H1        1.0  0.73929  0.27061  0.62984  1.0000
  H   H2        1.0  0.27061  0.73929  0.12984  1.0000
  H   H3        1.0  0.54821  0.27761  0.54201  1.0000
  H   H4        1.0  0.27761  0.54821  0.04201  1.0000
  H   H5        1.0  0.79891  0.34645  0.46848  1.0000
  H   H6        1.0  0.34645  0.79891  0.96848  1.0000
  H   H7        1.0  0.64310  0.47198  0.45648  1.0000
  H   H8        1.0  0.47198  0.64310  0.95648  1.0000
  H   H9        1.0  0.87978  0.64408  0.55790  1.0000
  H   H10       1.0  0.64408  0.87978  0.05790  1.0000
  H   H11       1.0  0.93706  0.52240  0.65423  1.0000
  H   H12       1.0  0.52240  0.93706  0.15423  1.0000
  H   H13       1.0  0.65538  0.72587  0.63152  1.0000
  H   H14       1.0  0.72587  0.65538  0.13152  1.0000
  H   H15       1.0  0.80125  0.72383  0.75898  1.0000
  H   H16       1.0  0.72383  0.80126  0.25898  1.0000
  H   H17       1.0  0.09547  0.68677  0.52145  1.0000
  H   H18       1.0  0.68677  0.09547  0.02145  1.0000
  H   H19       1.0  0.13764  0.79384  0.42594  1.0000
  H   H20       1.0  0.79384  0.13764  0.92595  1.0000
  H   H21       1.0  0.93286  0.62059  0.29332  1.0000
  H   H22       1.0  0.62059  0.93286  0.79332  1.0000
  H   H23       1.0  0.96624  0.47494  0.37124  1.0000
  H   H24       1.0  0.47494  0.96624  0.87124  1.0000
  H   H25       1.0  0.16513  0.55271  0.21710  1.0000
  H   H26       1.0  0.55271  0.16513  0.71710  1.0000
  H   H27       1.0  0.06417  0.37164  0.20128  1.0000
  H   H28       1.0  0.37164  0.06416  0.70128  1.0000
  H   H29       1.0  0.36487  0.39348  0.30725  1.0000
  H   H30       1.0  0.39348  0.36487  0.80725  1.0000
  H   H31       1.0  0.23343  0.33629  0.38282  1.0000
  H   H32       1.0  0.33629  0.23343  0.88282  1.0000
  Au  Au1       1.0  0.96609  0.07893  0.53428  1.0000
  Au  Au2       1.0  0.07893  0.96609  0.03428  1.0000
  Au  Au3       1.0  0.00568  0.07828  0.28247  1.0000
  Au  Au4       1.0  0.07828  0.00568  0.78247  1.0000
  C   C1        1.0  0.13661  0.24288  0.57514  1.0000
  C   C2        1.0  0.24288  0.13661  0.07514  1.0000
  C   C3        1.0  0.78371  0.92927  0.49056  1.0000
  C   C4        1.0  0.92927  0.78371  0.99056  1.0000
  C   C5        1.0  0.20191  0.97368  0.31767  1.0000
  C   C6        1.0  0.97368  0.20191  0.81767  1.0000
  C   C7        1.0  0.81663  0.19147  0.24578  1.0000
  C   C8        1.0  0.19147  0.81663  0.74577  1.0000
  C   C9        1.0  0.65769  0.34550  0.58889  1.0000
  C   C10       1.0  0.34550  0.65769  0.08889  1.0000
  C   C11       1.0  0.73274  0.42854  0.51781  1.0000
  C   C12       1.0  0.42854  0.73274  0.01781  1.0000
  C   C13       1.0  0.83615  0.56508  0.60168  1.0000
  C   C14       1.0  0.56509  0.83615  0.10168  1.0000
  C   C15       1.0  0.73490  0.65331  0.67636  1.0000
  C   C16       1.0  0.65331  0.73491  0.17636  1.0000
  C   C17       1.0  0.12964  0.67726  0.44110  1.0000
  C   C18       1.0  0.67726  0.12963  0.94110  1.0000
  C   C19       1.0  0.02440  0.56018  0.34008  1.0000
  C   C20       1.0  0.56018  0.02440  0.84008  1.0000
  C   C21       1.0  0.12631  0.47500  0.26409  1.0000
  C   C22       1.0  0.47500  0.12631  0.76410  1.0000
  C   C23       1.0  0.26622  0.42871  0.34514  1.0000
  C   C24       1.0  0.42871  0.26621  0.84513  1.0000
  S   S1        1.0  0.61533  0.50144  0.70374  1.0000
  S   S2        1.0  0.50144  0.61533  0.20374  1.0000
  S   S3        1.0  0.32766  0.60564  0.45934  1.0000
  S   S4        1.0  0.60564  0.32766  0.95934  1.0000
  N   N1        1.0  0.23160  0.34607  0.59847  1.0000
  N   N2        1.0  0.34608  0.23160  0.09846  1.0000
  N   N3        1.0  0.66834  0.84868  0.46176  1.0000
  N   N4        1.0  0.84868  0.66835  0.96176  1.0000
  N   N5        1.0  0.31736  0.90998  0.33963  1.0000
  N   N6        1.0  0.90998  0.31735  0.83962  1.0000
  N   N7        1.0  0.70969  0.26538  0.22115  1.0000
  N   N8        1.0  0.26538  0.70969  0.72115  1.0000
