data_image0
_chemical_formula_structural       Cd4H56C40I8N16
_chemical_formula_sum              "Cd4 H56 C40 I8 N16"
_cell_length_a       10.7682
_cell_length_b       11.4947
_cell_length_c       13.2924
_cell_angle_alpha    90
_cell_angle_beta     101.382
_cell_angle_gamma    90

_space_group_name_H-M_alt    "P 1"
_space_group_IT_number       1

loop_
  _space_group_symop_operation_xyz
  'x, y, z'

loop_
  _atom_site_type_symbol
  _atom_site_label
  _atom_site_symmetry_multiplicity
  _atom_site_fract_x
  _atom_site_fract_y
  _atom_site_fract_z
  _atom_site_occupancy
  Cd  Cd1       1.0  0.62040  0.60092  0.25104  1.0000
  Cd  Cd2       1.0  0.87959  0.10093  0.24896  1.0000
  Cd  Cd3       1.0  0.37959  0.39907  0.74895  1.0000
  Cd  Cd4       1.0  0.12042  0.89907  0.75105  1.0000
  H   H1        1.0  0.62217  0.88079  0.17128  1.0000
  H   H2        1.0  0.87783  0.38078  0.32872  1.0000
  H   H3        1.0  0.37783  0.11920  0.82873  1.0000
  H   H4        1.0  0.12217  0.61920  0.67128  1.0000
  H   H5        1.0  0.12371  0.15158  0.42857  1.0000
  H   H6        1.0  0.37629  0.65158  0.07143  1.0000
  H   H7        1.0  0.87630  0.84843  0.57144  1.0000
  H   H8        1.0  0.62370  0.34842  0.92857  1.0000
  H   H9        1.0  0.31184  0.65721  0.31936  1.0000
  H   H10       1.0  0.18816  0.15720  0.18063  1.0000
  H   H11       1.0  0.68816  0.34280  0.68064  1.0000
  H   H12       1.0  0.81184  0.84280  0.81936  1.0000
  H   H13       1.0  0.32686  0.75689  0.42284  1.0000
  H   H14       1.0  0.17314  0.25688  0.07716  1.0000
  H   H15       1.0  0.67314  0.24311  0.57716  1.0000
  H   H16       1.0  0.82686  0.74311  0.92284  1.0000
  H   H17       1.0  0.45328  0.66054  0.41330  1.0000
  H   H18       1.0  0.04673  0.16054  0.08669  1.0000
  H   H19       1.0  0.54673  0.33946  0.58670  1.0000
  H   H20       1.0  0.95327  0.83946  0.91330  1.0000
  H   H21       1.0  0.53122  0.14156  0.23028  1.0000
  H   H22       1.0  0.96877  0.64156  0.26971  1.0000
  H   H23       1.0  0.46879  0.85844  0.76972  1.0000
  H   H24       1.0  0.03122  0.35844  0.73028  1.0000
  H   H25       1.0  0.37799  0.11761  0.15321  1.0000
  H   H26       1.0  0.12201  0.61762  0.34678  1.0000
  H   H27       1.0  0.62201  0.88238  0.84679  1.0000
  H   H28       1.0  0.87799  0.38237  0.65321  1.0000
  H   H29       1.0  0.51647  0.07714  0.10726  1.0000
  H   H30       1.0  0.98353  0.57713  0.39274  1.0000
  H   H31       1.0  0.48354  0.92287  0.89274  1.0000
  H   H32       1.0  0.01647  0.42287  0.60726  1.0000
  H   H33       1.0  0.99772  0.84407  0.20138  1.0000
  H   H34       1.0  0.50227  0.34406  0.29861  1.0000
  H   H35       1.0  0.00228  0.15594  0.79863  1.0000
  H   H36       1.0  0.49771  0.65594  0.70138  1.0000
  H   H37       1.0  0.15237  0.78565  0.20713  1.0000
  H   H38       1.0  0.34763  0.28564  0.29287  1.0000
  H   H39       1.0  0.84763  0.21436  0.79288  1.0000
  H   H40       1.0  0.65236  0.71436  0.70713  1.0000
  H   H41       1.0  0.09553  0.89792  0.11879  1.0000
  H   H42       1.0  0.40446  0.39791  0.38120  1.0000
  H   H43       1.0  0.90446  0.10209  0.88121  1.0000
  H   H44       1.0  0.59553  0.60209  0.61880  1.0000
  H   H45       1.0  0.36304  0.21285  0.47703  1.0000
  H   H46       1.0  0.13695  0.71285  0.02296  1.0000
  H   H47       1.0  0.63699  0.78715  0.52298  1.0000
  H   H48       1.0  0.86303  0.28715  0.97703  1.0000
  H   H49       1.0  0.47338  0.12677  0.42513  1.0000
  H   H50       1.0  0.02661  0.62677  0.07485  1.0000
  H   H51       1.0  0.52664  0.87322  0.57487  1.0000
  H   H52       1.0  0.97337  0.37322  0.92514  1.0000
  H   H53       1.0  0.40855  0.07356  0.52921  1.0000
  H   H54       1.0  0.09145  0.57356  0.97078  1.0000
  H   H55       1.0  0.59146  0.92643  0.47078  1.0000
  H   H56       1.0  0.90854  0.42643  0.02922  1.0000
  C   C1        1.0  0.37834  0.71532  0.36910  1.0000
  C   C2        1.0  0.12167  0.21532  0.13090  1.0000
  C   C3        1.0  0.62167  0.28468  0.63090  1.0000
  C   C4        1.0  0.87833  0.78468  0.86909  1.0000
  C   C5        1.0  0.43068  0.80425  0.30765  1.0000
  C   C6        1.0  0.06933  0.30424  0.19235  1.0000
  C   C7        1.0  0.56933  0.19576  0.69236  1.0000
  C   C8        1.0  0.93067  0.69576  0.80764  1.0000
  C   C9        1.0  0.38890  0.91977  0.28438  1.0000
  C   C10       1.0  0.11110  0.41977  0.21562  1.0000
  C   C11       1.0  0.61111  0.08023  0.71562  1.0000
  C   C12       1.0  0.88889  0.58023  0.78438  1.0000
  C   C13       1.0  0.46921  0.96498  0.22270  1.0000
  C   C14       1.0  0.03080  0.46498  0.27729  1.0000
  C   C15       1.0  0.53080  0.03501  0.77730  1.0000
  C   C16       1.0  0.96919  0.53501  0.72270  1.0000
  C   C17       1.0  0.47368  0.08159  0.17549  1.0000
  C   C18       1.0  0.02633  0.58158  0.32451  1.0000
  C   C19       1.0  0.52634  0.91841  0.82451  1.0000
  C   C20       1.0  0.97367  0.41841  0.67549  1.0000
  C   C21       1.0  0.09566  0.86553  0.19676  1.0000
  C   C22       1.0  0.40433  0.36552  0.30323  1.0000
  C   C23       1.0  0.90434  0.13448  0.80324  1.0000
  C   C24       1.0  0.59566  0.63448  0.69677  1.0000
  C   C25       1.0  0.15071  0.95306  0.27521  1.0000
  C   C26       1.0  0.34928  0.45306  0.22479  1.0000
  C   C27       1.0  0.84930  0.04695  0.72480  1.0000
  C   C28       1.0  0.65070  0.54694  0.77521  1.0000
  C   C29       1.0  0.28047  0.97760  0.31407  1.0000
  C   C30       1.0  0.21952  0.47759  0.18593  1.0000
  C   C31       1.0  0.71953  0.02241  0.68593  1.0000
  C   C32       1.0  0.78047  0.52241  0.81407  1.0000
  C   C33       1.0  0.28152  0.06808  0.38493  1.0000
  C   C34       1.0  0.21847  0.56807  0.11506  1.0000
  C   C35       1.0  0.71849  0.93193  0.61507  1.0000
  C   C36       1.0  0.78152  0.43193  0.88494  1.0000
  C   C37       1.0  0.38712  0.12394  0.45747  1.0000
  C   C38       1.0  0.11287  0.62394  0.04252  1.0000
  C   C39       1.0  0.61289  0.87606  0.54253  1.0000
  C   C40       1.0  0.88712  0.37606  0.95747  1.0000
  I   I1        1.0  0.72481  0.52325  0.44309  1.0000
  I   I2        1.0  0.77520  0.02325  0.05691  1.0000
  I   I3        1.0  0.27519  0.47676  0.55691  1.0000
  I   I4        1.0  0.22482  0.97674  0.94310  1.0000
  I   I5        1.0  0.73545  0.63966  0.08895  1.0000
  I   I6        1.0  0.76454  0.13967  0.41105  1.0000
  I   I7        1.0  0.26454  0.36032  0.91104  1.0000
  I   I8        1.0  0.23544  0.86034  0.58894  1.0000
  N   N1        1.0  0.53003  0.78083  0.26351  1.0000
  N   N2        1.0  0.96998  0.28082  0.23648  1.0000
  N   N3        1.0  0.46998  0.21918  0.73649  1.0000
  N   N4        1.0  0.03002  0.71917  0.76351  1.0000
  N   N5        1.0  0.55149  0.87877  0.21260  1.0000
  N   N6        1.0  0.94851  0.37876  0.28740  1.0000
  N   N7        1.0  0.44851  0.12123  0.78741  1.0000
  N   N8        1.0  0.05149  0.62123  0.71259  1.0000
  N   N9        1.0  0.07736  0.02492  0.31816  1.0000
  N   N10       1.0  0.42264  0.52492  0.18184  1.0000
  N   N11       1.0  0.92265  0.97508  0.68185  1.0000
  N   N12       1.0  0.57735  0.47508  0.81816  1.0000
  N   N13       1.0  0.15853  0.09400  0.38325  1.0000
  N   N14       1.0  0.34147  0.59400  0.11675  1.0000
  N   N15       1.0  0.84149  0.90601  0.61676  1.0000
  N   N16       1.0  0.65852  0.40600  0.88325  1.0000
