data_image0
_chemical_formula_structural       Cu6H64Au6C44S8N12
_chemical_formula_sum              "Cu6 H64 Au6 C44 S8 N12"
_cell_length_a       11.1077
_cell_length_b       11.207
_cell_length_c       15.116
_cell_angle_alpha    73.253
_cell_angle_beta     89.6625
_cell_angle_gamma    66.0437

_space_group_name_H-M_alt    "P 1"
_space_group_IT_number       1

loop_
  _space_group_symop_operation_xyz
  'x, y, z'

loop_
  _atom_site_type_symbol
  _atom_site_label
  _atom_site_symmetry_multiplicity
  _atom_site_fract_x
  _atom_site_fract_y
  _atom_site_fract_z
  _atom_site_occupancy
  Cu  Cu1       1.0  0.88387  0.05633  0.17891  1.0000
  Cu  Cu2       1.0  0.11613  0.94367  0.82109  1.0000
  Cu  Cu3       1.0  0.96960  0.26819  0.91831  1.0000
  Cu  Cu4       1.0  0.03040  0.73181  0.08169  1.0000
  Cu  Cu5       1.0  0.43651  0.26864  0.56486  1.0000
  Cu  Cu6       1.0  0.56349  0.73136  0.43514  1.0000
  H   H1        1.0  0.01777  0.27036  0.16513  1.0000
  H   H2        1.0  0.98223  0.72965  0.83487  1.0000
  H   H3        1.0  0.98186  0.39729  0.05363  1.0000
  H   H4        1.0  0.01814  0.60271  0.94637  1.0000
  H   H5        1.0  0.84091  0.52675  0.14738  1.0000
  H   H6        1.0  0.15909  0.47325  0.85262  1.0000
  H   H7        1.0  0.79900  0.38955  0.20658  1.0000
  H   H8        1.0  0.20099  0.61045  0.79342  1.0000
  H   H9        1.0  0.71344  0.57124  0.00213  1.0000
  H   H10       1.0  0.28656  0.42876  0.99787  1.0000
  H   H11       1.0  0.60730  0.55076  0.08751  1.0000
  H   H12       1.0  0.39270  0.44924  0.91249  1.0000
  H   H13       1.0  0.66571  0.40339  0.96323  1.0000
  H   H14       1.0  0.33429  0.59661  0.03677  1.0000
  H   H15       1.0  0.64557  0.32502  0.08018  1.0000
  H   H16       1.0  0.35442  0.67497  0.91982  1.0000
  H   H17       1.0  0.82412  0.99407  0.86555  1.0000
  H   H18       1.0  0.17588  0.00593  0.13445  1.0000
  H   H19       1.0  0.79441  0.08923  0.94594  1.0000
  H   H20       1.0  0.20559  0.91077  0.05406  1.0000
  H   H21       1.0  0.60193  0.17576  0.80484  1.0000
  H   H22       1.0  0.39808  0.82423  0.19517  1.0000
  H   H23       1.0  0.64699  0.30265  0.82406  1.0000
  H   H24       1.0  0.35301  0.69735  0.17595  1.0000
  H   H25       1.0  0.75516  0.14040  0.68654  1.0000
  H   H26       1.0  0.24485  0.85959  0.31346  1.0000
  H   H27       1.0  0.65918  0.32019  0.65531  1.0000
  H   H28       1.0  0.34082  0.67981  0.34469  1.0000
  H   H29       1.0  0.84053  0.35515  0.71859  1.0000
  H   H30       1.0  0.15947  0.64485  0.28141  1.0000
  H   H31       1.0  0.92852  0.21922  0.67053  1.0000
  H   H32       1.0  0.07148  0.78077  0.32947  1.0000
  H   H33       1.0  0.38061  0.17641  0.76245  1.0000
  H   H34       1.0  0.61939  0.82359  0.23755  1.0000
  H   H35       1.0  0.29272  0.30535  0.81490  1.0000
  H   H36       1.0  0.70728  0.69465  0.18510  1.0000
  H   H37       1.0  0.12032  0.24993  0.76561  1.0000
  H   H38       1.0  0.87968  0.75007  0.23439  1.0000
  H   H39       1.0  0.18594  0.23494  0.65965  1.0000
  H   H40       1.0  0.81406  0.76506  0.34035  1.0000
  H   H41       1.0  0.04595  0.49882  0.71297  1.0000
  H   H42       1.0  0.95405  0.50118  0.28703  1.0000
  H   H43       1.0  0.99736  0.46479  0.61540  1.0000
  H   H44       1.0  0.00264  0.53521  0.38460  1.0000
  H   H45       1.0  0.14406  0.61421  0.59976  1.0000
  H   H46       1.0  0.85593  0.38579  0.40024  1.0000
  H   H47       1.0  0.17127  0.49986  0.53273  1.0000
  H   H48       1.0  0.82873  0.50014  0.46727  1.0000
  H   H49       1.0  0.39279  0.36946  0.35367  1.0000
  H   H50       1.0  0.60721  0.63054  0.64633  1.0000
  H   H51       1.0  0.47286  0.48069  0.30689  1.0000
  H   H52       1.0  0.52714  0.51932  0.69311  1.0000
  H   H53       1.0  0.53017  0.25516  0.25154  1.0000
  H   H54       1.0  0.46983  0.74484  0.74846  1.0000
  H   H55       1.0  0.65994  0.30023  0.27555  1.0000
  H   H56       1.0  0.34006  0.69977  0.72445  1.0000
  H   H57       1.0  0.73326  0.05575  0.36659  1.0000
  H   H58       1.0  0.26674  0.94425  0.63341  1.0000
  H   H59       1.0  0.57914  0.09178  0.41262  1.0000
  H   H60       1.0  0.42086  0.90822  0.58738  1.0000
  H   H61       1.0  0.79151  0.18875  0.44804  1.0000
  H   H62       1.0  0.20849  0.81125  0.55196  1.0000
  H   H63       1.0  0.71994  0.09832  0.53303  1.0000
  H   H64       1.0  0.28006  0.90168  0.46697  1.0000
  Au  Au1       1.0  0.10860  0.17688  0.39763  1.0000
  Au  Au2       1.0  0.89140  0.82312  0.60236  1.0000
  Au  Au3       1.0  0.43600  0.11980  0.06147  1.0000
  Au  Au4       1.0  0.56400  0.88021  0.93853  1.0000
  Au  Au5       1.0  0.70858  0.77905  0.76455  1.0000
  Au  Au6       1.0  0.29142  0.22095  0.23545  1.0000
  C   C1        1.0  0.21805  0.23629  0.46138  1.0000
  C   C2        1.0  0.78195  0.76371  0.53862  1.0000
  C   C3        1.0  0.00453  0.11419  0.33267  1.0000
  C   C4        1.0  0.99547  0.88581  0.66734  1.0000
  C   C5        1.0  0.61291  0.07614  0.11943  1.0000
  C   C6        1.0  0.38709  0.92386  0.88057  1.0000
  C   C7        1.0  0.25817  0.17499  0.99945  1.0000
  C   C8        1.0  0.74183  0.82501  0.00055  1.0000
  C   C9        1.0  0.80926  0.57994  0.82314  1.0000
  C   C10       1.0  0.19074  0.42006  0.17686  1.0000
  C   C11       1.0  0.60393  0.97493  0.69615  1.0000
  C   C12       1.0  0.39607  0.02507  0.30385  1.0000
  C   C13       1.0  0.93915  0.34389  0.10801  1.0000
  C   C14       1.0  0.06085  0.65611  0.89199  1.0000
  C   C15       1.0  0.81956  0.44293  0.13904  1.0000
  C   C16       1.0  0.18044  0.55707  0.86096  1.0000
  C   C17       1.0  0.70220  0.49716  0.06359  1.0000
  C   C18       1.0  0.29780  0.50284  0.93641  1.0000
  C   C19       1.0  0.70177  0.37532  0.03699  1.0000
  C   C20       1.0  0.29823  0.62468  0.96301  1.0000
  C   C21       1.0  0.80232  0.09528  0.87260  1.0000
  C   C22       1.0  0.19768  0.90472  0.12740  1.0000
  C   C23       1.0  0.68319  0.20790  0.80429  1.0000
  C   C24       1.0  0.31681  0.79210  0.19572  1.0000
  C   C25       1.0  0.73323  0.23111  0.70904  1.0000
  C   C26       1.0  0.26677  0.76889  0.29096  1.0000
  C   C27       1.0  0.85995  0.25019  0.72054  1.0000
  C   C28       1.0  0.14005  0.74981  0.27946  1.0000
  C   C29       1.0  0.30047  0.27931  0.74989  1.0000
  C   C30       1.0  0.69953  0.72069  0.25011  1.0000
  C   C31       1.0  0.16844  0.29302  0.70946  1.0000
  C   C32       1.0  0.83156  0.70698  0.29054  1.0000
  C   C33       1.0  0.08421  0.44637  0.66083  1.0000
  C   C34       1.0  0.91579  0.55363  0.33917  1.0000
  C   C35       1.0  0.17219  0.50678  0.60356  1.0000
  C   C36       1.0  0.82781  0.49322  0.39643  1.0000
  C   C37       1.0  0.48854  0.37586  0.34694  1.0000
  C   C38       1.0  0.51147  0.62414  0.65306  1.0000
  C   C39       1.0  0.58395  0.26764  0.30662  1.0000
  C   C40       1.0  0.41605  0.73236  0.69338  1.0000
  C   C41       1.0  0.65108  0.13417  0.38725  1.0000
  C   C42       1.0  0.34892  0.86583  0.61275  1.0000
  C   C43       1.0  0.70126  0.17305  0.46349  1.0000
  C   C44       1.0  0.29874  0.82695  0.53651  1.0000
  S   S1        1.0  0.87590  0.24677  0.05791  1.0000
  S   S2        1.0  0.12410  0.75323  0.94209  1.0000
  S   S3        1.0  0.94364  0.13604  0.83851  1.0000
  S   S4        1.0  0.05636  0.86396  0.16150  1.0000
  S   S5        1.0  0.34353  0.40219  0.66196  1.0000
  S   S6        1.0  0.65647  0.59781  0.33804  1.0000
  S   S7        1.0  0.56795  0.33703  0.46478  1.0000
  S   S8        1.0  0.43205  0.66297  0.53522  1.0000
  N   N1        1.0  0.29076  0.26574  0.49701  1.0000
  N   N2        1.0  0.70924  0.73426  0.50299  1.0000
  N   N3        1.0  0.94811  0.07927  0.28714  1.0000
  N   N4        1.0  0.05189  0.92073  0.71287  1.0000
  N   N5        1.0  0.71699  0.05736  0.15206  1.0000
  N   N6        1.0  0.28301  0.94264  0.84795  1.0000
  N   N7        1.0  0.15070  0.21219  0.96313  1.0000
  N   N8        1.0  0.84931  0.78782  0.03687  1.0000
  N   N9        1.0  0.87040  0.46057  0.85403  1.0000
  N   N10       1.0  0.12960  0.53942  0.14597  1.0000
  N   N11       1.0  0.54075  0.08844  0.64937  1.0000
  N   N12       1.0  0.45925  0.91156  0.35063  1.0000
