data_image0
_chemical_formula_structural       Cu2H36C48Br2N12O6
_chemical_formula_sum              "Cu2 H36 C48 Br2 N12 O6"
_cell_length_a       8.7708
_cell_length_b       11.5544
_cell_length_c       12.591
_cell_angle_alpha    97.8532
_cell_angle_beta     103.504
_cell_angle_gamma    93.1643

_space_group_name_H-M_alt    "P 1"
_space_group_IT_number       1

loop_
  _space_group_symop_operation_xyz
  'x, y, z'

loop_
  _atom_site_type_symbol
  _atom_site_label
  _atom_site_symmetry_multiplicity
  _atom_site_fract_x
  _atom_site_fract_y
  _atom_site_fract_z
  _atom_site_occupancy
  Cu  Cu1       1.0  0.07678  0.00900  0.75280  1.0000
  Cu  Cu2       1.0  0.92324  0.99101  0.24720  1.0000
  H   H1        1.0  0.65704  0.41802  0.82594  1.0000
  H   H2        1.0  0.34295  0.58197  0.17406  1.0000
  H   H3        1.0  0.54651  0.85207  0.14699  1.0000
  H   H4        1.0  0.45350  0.14793  0.85301  1.0000
  H   H5        1.0  0.81910  0.75998  0.36504  1.0000
  H   H6        1.0  0.18092  0.24003  0.63495  1.0000
  H   H7        1.0  0.63845  0.57932  0.89447  1.0000
  H   H8        1.0  0.36154  0.42068  0.10553  1.0000
  H   H9        1.0  0.87774  0.42630  0.17669  1.0000
  H   H10       1.0  0.12224  0.57369  0.82331  1.0000
  H   H11       1.0  0.63084  0.73208  0.22252  1.0000
  H   H12       1.0  0.36918  0.26793  0.77748  1.0000
  H   H13       1.0  0.29680  0.86233  0.86364  1.0000
  H   H14       1.0  0.70321  0.13768  0.13636  1.0000
  H   H15       1.0  0.07461  0.14553  0.97919  1.0000
  H   H16       1.0  0.92538  0.85446  0.02081  1.0000
  H   H17       1.0  0.23088  0.14848  0.17255  1.0000
  H   H18       1.0  0.76910  0.85151  0.82745  1.0000
  H   H19       1.0  0.42115  0.99718  0.21255  1.0000
  H   H20       1.0  0.57885  0.00282  0.78746  1.0000
  H   H21       1.0  0.98539  0.87674  0.52244  1.0000
  H   H22       1.0  0.01464  0.12326  0.47756  1.0000
  H   H23       1.0  0.00707  0.78282  0.83195  1.0000
  H   H24       1.0  0.99294  0.21720  0.16805  1.0000
  H   H25       1.0  0.86000  0.58935  0.74922  1.0000
  H   H26       1.0  0.14000  0.41067  0.25079  1.0000
  H   H27       1.0  0.77517  0.53623  0.54169  1.0000
  H   H28       1.0  0.22483  0.46378  0.45831  1.0000
  H   H29       1.0  0.55124  0.30333  0.65616  1.0000
  H   H30       1.0  0.44875  0.69666  0.34384  1.0000
  H   H31       1.0  0.57764  0.13126  0.51853  1.0000
  H   H32       1.0  0.42236  0.86873  0.48146  1.0000
  H   H33       1.0  0.80430  0.01302  0.56348  1.0000
  H   H34       1.0  0.19572  0.98698  0.43652  1.0000
  H   H35       1.0  0.99783  0.23694  0.85863  1.0000
  H   H36       1.0  0.00216  0.76306  0.14136  1.0000
  C   C1        1.0  0.62340  0.66218  0.05220  1.0000
  C   C2        1.0  0.37660  0.33782  0.94780  1.0000
  C   C3        1.0  0.67566  0.57620  0.98298  1.0000
  C   C4        1.0  0.32434  0.42380  0.01702  1.0000
  C   C5        1.0  0.76957  0.49212  0.02743  1.0000
  C   C6        1.0  0.23041  0.50787  0.97257  1.0000
  C   C7        1.0  0.81042  0.49421  0.14197  1.0000
  C   C8        1.0  0.18957  0.50579  0.85803  1.0000
  C   C9        1.0  0.76301  0.58149  0.21212  1.0000
  C   C10       1.0  0.23699  0.41851  0.78788  1.0000
  C   C11       1.0  0.66901  0.66512  0.16692  1.0000
  C   C12       1.0  0.33099  0.33488  0.83308  1.0000
  C   C13       1.0  0.51158  0.74229  0.99733  1.0000
  C   C14       1.0  0.48842  0.25771  0.00267  1.0000
  C   C15       1.0  0.37003  0.91641  0.04125  1.0000
  C   C16       1.0  0.62997  0.08359  0.95875  1.0000
  C   C17       1.0  0.28209  0.92257  0.93395  1.0000
  C   C18       1.0  0.71793  0.07744  0.06605  1.0000
  C   C19       1.0  0.16000  0.08188  0.99847  1.0000
  C   C20       1.0  0.83999  0.91812  0.00153  1.0000
  C   C21       1.0  0.24570  0.08231  0.10647  1.0000
  C   C22       1.0  0.75429  0.91768  0.89353  1.0000
  C   C23       1.0  0.35116  0.99883  0.12890  1.0000
  C   C24       1.0  0.64884  0.00117  0.87110  1.0000
  C   C25       1.0  0.80867  0.57746  0.33413  1.0000
  C   C26       1.0  0.19134  0.42254  0.66587  1.0000
  C   C27       1.0  0.87263  0.70344  0.51659  1.0000
  C   C28       1.0  0.12739  0.29657  0.48342  1.0000
  C   C29       1.0  0.95363  0.81149  0.57042  1.0000
  C   C30       1.0  0.04638  0.18852  0.42958  1.0000
  C   C31       1.0  0.96472  0.75949  0.74259  1.0000
  C   C32       1.0  0.03528  0.24052  0.25741  1.0000
  C   C33       1.0  0.88378  0.65090  0.69549  1.0000
  C   C34       1.0  0.11621  0.34912  0.30452  1.0000
  C   C35       1.0  0.83597  0.62117  0.58106  1.0000
  C   C36       1.0  0.16404  0.37884  0.41894  1.0000
  C   C37       1.0  0.82931  0.39626  0.95986  1.0000
  C   C38       1.0  0.17068  0.60373  0.04014  1.0000
  C   C39       1.0  0.77132  0.28102  0.77028  1.0000
  C   C40       1.0  0.22867  0.71897  0.22972  1.0000
  C   C41       1.0  0.65306  0.25236  0.67193  1.0000
  C   C42       1.0  0.34693  0.74763  0.32807  1.0000
  C   C43       1.0  0.66623  0.15637  0.59611  1.0000
  C   C44       1.0  0.33378  0.84363  0.40388  1.0000
  C   C45       1.0  0.79389  0.09012  0.62071  1.0000
  C   C46       1.0  0.20612  0.90987  0.37929  1.0000
  C   C47       1.0  0.90094  0.21370  0.78615  1.0000
  C   C48       1.0  0.09905  0.78630  0.21385  1.0000
  Br  Br1       1.0  0.29657  0.05639  0.66570  1.0000
  Br  Br2       1.0  0.70344  0.94361  0.33430  1.0000
  N   N1        1.0  0.91017  0.11817  0.71403  1.0000
  N   N2        1.0  0.08984  0.88184  0.28597  1.0000
  N   N3        1.0  0.75424  0.37461  0.84892  1.0000
  N   N4        1.0  0.24574  0.62537  0.15108  1.0000
  N   N5        1.0  0.47869  0.83441  0.06707  1.0000
  N   N6        1.0  0.52131  0.16559  0.93293  1.0000
  N   N7        1.0  0.17901  0.00413  0.91333  1.0000
  N   N8        1.0  0.82100  0.99587  0.08668  1.0000
  N   N9        1.0  0.83002  0.68488  0.40075  1.0000
  N   N10       1.0  0.16999  0.31512  0.59925  1.0000
  N   N11       1.0  0.99682  0.84036  0.68101  1.0000
  N   N12       1.0  0.00319  0.15965  0.31899  1.0000
  O   O1        1.0  0.93701  0.33966  0.00219  1.0000
  O   O2        1.0  0.06297  0.66033  0.99781  1.0000
  O   O3        1.0  0.45145  0.72207  0.89669  1.0000
  O   O4        1.0  0.54854  0.27793  0.10331  1.0000
  O   O5        1.0  0.82615  0.48333  0.36954  1.0000
  O   O6        1.0  0.17385  0.51667  0.63046  1.0000
