data_image0
_chemical_formula_structural       Cd4H30C40N6O24
_chemical_formula_sum              "Cd4 H30 C40 N6 O24"
_cell_length_a       8.15852
_cell_length_b       10.7675
_cell_length_c       13.0045
_cell_angle_alpha    99.2682
_cell_angle_beta     92.0057
_cell_angle_gamma    97.3909

_space_group_name_H-M_alt    "P 1"
_space_group_IT_number       1

loop_
  _space_group_symop_operation_xyz
  'x, y, z'

loop_
  _atom_site_type_symbol
  _atom_site_label
  _atom_site_symmetry_multiplicity
  _atom_site_fract_x
  _atom_site_fract_y
  _atom_site_fract_z
  _atom_site_occupancy
  Cd  Cd1       1.0  0.46810  0.43440  0.19934  1.0000
  Cd  Cd2       1.0  0.53190  0.56560  0.80066  1.0000
  Cd  Cd3       1.0  0.86088  0.23015  0.11036  1.0000
  Cd  Cd4       1.0  0.13912  0.76985  0.88964  1.0000
  H   H1        1.0  0.14898  0.50863  0.15685  1.0000
  H   H2        1.0  0.85102  0.49136  0.84315  1.0000
  H   H3        1.0  0.27102  0.58707  0.08730  1.0000
  H   H4        1.0  0.72898  0.41293  0.91270  1.0000
  H   H5        1.0  0.14751  0.17718  0.22700  1.0000
  H   H6        1.0  0.85249  0.82282  0.77300  1.0000
  H   H7        1.0  0.06045  0.04334  0.15632  1.0000
  H   H8        1.0  0.93955  0.95666  0.84368  1.0000
  H   H9        1.0  0.12154  0.63110  0.31814  1.0000
  H   H10       1.0  0.87846  0.36890  0.68186  1.0000
  H   H11       1.0  0.68321  0.46183  0.44684  1.0000
  H   H12       1.0  0.31679  0.53817  0.55316  1.0000
  H   H13       1.0  0.71172  0.89245  0.39225  1.0000
  H   H14       1.0  0.28828  0.10755  0.60775  1.0000
  H   H15       1.0  0.93038  0.94335  0.26859  1.0000
  H   H16       1.0  0.06962  0.05665  0.73141  1.0000
  H   H17       1.0  0.52561  0.68463  0.35077  1.0000
  H   H18       1.0  0.47439  0.31537  0.64923  1.0000
  H   H19       1.0  0.96725  0.80371  0.61550  1.0000
  H   H20       1.0  0.03275  0.19629  0.38450  1.0000
  H   H21       1.0  0.76856  0.57593  0.08266  1.0000
  H   H22       1.0  0.23144  0.42407  0.91734  1.0000
  H   H23       1.0  0.32414  0.79281  0.16715  1.0000
  H   H24       1.0  0.67586  0.20719  0.83285  1.0000
  H   H25       1.0  0.58104  0.17224  0.26313  1.0000
  H   H26       1.0  0.41896  0.82776  0.73687  1.0000
  H   H27       1.0  0.72630  0.94951  0.00005  1.0000
  H   H28       1.0  0.27370  0.05049  0.99995  1.0000
  H   H29       1.0  0.36287  0.99909  0.29329  1.0000
  H   H30       1.0  0.63713  0.00091  0.70671  1.0000
  C   C1        1.0  0.05309  0.72578  0.46638  1.0000
  C   C2        1.0  0.94691  0.27422  0.53363  1.0000
  C   C3        1.0  0.49991  0.73985  0.99113  1.0000
  C   C4        1.0  0.50009  0.26015  0.00888  1.0000
  C   C5        1.0  0.03259  0.63113  0.37856  1.0000
  C   C6        1.0  0.96741  0.36887  0.62144  1.0000
  C   C7        1.0  0.78801  0.53652  0.45211  1.0000
  C   C8        1.0  0.21199  0.46348  0.54789  1.0000
  C   C9        1.0  0.89676  0.53609  0.37134  1.0000
  C   C10       1.0  0.10324  0.46391  0.62866  1.0000
  C   C11       1.0  0.72914  0.82434  0.32347  1.0000
  C   C12       1.0  0.27085  0.17566  0.67652  1.0000
  C   C13       1.0  0.85087  0.85216  0.25491  1.0000
  C   C14       1.0  0.14913  0.14784  0.74509  1.0000
  C   C15       1.0  0.86893  0.43243  0.27846  1.0000
  C   C16       1.0  0.13107  0.56757  0.72154  1.0000
  C   C17       1.0  0.62509  0.70951  0.30096  1.0000
  C   C18       1.0  0.37491  0.29049  0.69904  1.0000
  C   C19       1.0  0.94516  0.72900  0.54741  1.0000
  C   C20       1.0  0.05484  0.27100  0.45258  1.0000
  C   C21       1.0  0.75935  0.64803  0.15050  1.0000
  C   C22       1.0  0.24065  0.35197  0.84951  1.0000
  C   C23       1.0  0.41843  0.87043  0.15705  1.0000
  C   C24       1.0  0.58157  0.12957  0.84295  1.0000
  C   C25       1.0  0.56147  0.08119  0.21119  1.0000
  C   C26       1.0  0.43853  0.91881  0.78881  1.0000
  C   C27       1.0  0.81194  0.63196  0.54025  1.0000
  C   C28       1.0  0.18806  0.36804  0.45975  1.0000
  C   C29       1.0  0.64364  0.95704  0.06414  1.0000
  C   C30       1.0  0.35636  0.04296  0.93586  1.0000
  C   C31       1.0  0.43952  0.98461  0.22681  1.0000
  C   C32       1.0  0.56048  0.01539  0.77319  1.0000
  C   C33       1.0  0.86618  0.76290  0.16606  1.0000
  C   C34       1.0  0.13382  0.23710  0.83394  1.0000
  C   C35       1.0  0.98427  0.78783  0.08348  1.0000
  C   C36       1.0  0.01573  0.21218  0.91652  1.0000
  C   C37       1.0  0.70008  0.62337  0.62874  1.0000
  C   C38       1.0  0.29992  0.37663  0.37126  1.0000
  C   C39       1.0  0.52202  0.85603  0.07373  1.0000
  C   C40       1.0  0.47798  0.14397  0.92627  1.0000
  N   N1        1.0  0.64090  0.62262  0.21603  1.0000
  N   N2        1.0  0.35911  0.37738  0.78397  1.0000
  N   N3        1.0  0.66186  0.06756  0.13085  1.0000
  N   N4        1.0  0.33814  0.93244  0.86915  1.0000
  N   N5        1.0  0.19650  0.82487  0.47457  1.0000
  N   N6        1.0  0.80350  0.17513  0.52543  1.0000
  O   O1        1.0  0.36649  0.66185  0.98363  1.0000
  O   O2        1.0  0.63351  0.33815  0.01637  1.0000
  O   O3        1.0  0.26054  0.55540  0.15435  1.0000
  O   O4        1.0  0.73946  0.44460  0.84565  1.0000
  O   O5        1.0  0.04099  0.12637  0.19737  1.0000
  O   O6        1.0  0.95900  0.87363  0.80263  1.0000
  O   O7        1.0  0.61551  0.72849  0.92826  1.0000
  O   O8        1.0  0.38448  0.27151  0.07174  1.0000
  O   O9        1.0  0.98525  0.41902  0.21633  1.0000
  O   O10       1.0  0.01475  0.58098  0.78367  1.0000
  O   O11       1.0  0.05945  0.89852  0.08296  1.0000
  O   O12       1.0  0.94055  0.10148  0.91704  1.0000
  O   O13       1.0  0.73132  0.35889  0.26464  1.0000
  O   O14       1.0  0.26868  0.64111  0.73536  1.0000
  O   O15       1.0  0.69766  0.71908  0.70009  1.0000
  O   O16       1.0  0.30234  0.28092  0.29991  1.0000
  O   O17       1.0  0.61339  0.51620  0.62978  1.0000
  O   O18       1.0  0.38662  0.48380  0.37022  1.0000
  O   O19       1.0  0.99892  0.69208  0.01393  1.0000
  O   O20       1.0  0.00108  0.30792  0.98607  1.0000
  O   O21       1.0  0.28000  0.83019  0.39693  1.0000
  O   O22       1.0  0.72000  0.16981  0.60307  1.0000
  O   O23       1.0  0.22708  0.89822  0.55907  1.0000
  O   O24       1.0  0.77292  0.10178  0.44094  1.0000
