data_image0
_chemical_formula_structural       Cd2H22C26N6O14
_chemical_formula_sum              "Cd2 H22 C26 N6 O14"
_cell_length_a       7.9301
_cell_length_b       10.091
_cell_length_c       10.4867
_cell_angle_alpha    94.6205
_cell_angle_beta     110.135
_cell_angle_gamma    109.8

_space_group_name_H-M_alt    "P 1"
_space_group_IT_number       1

loop_
  _space_group_symop_operation_xyz
  'x, y, z'

loop_
  _atom_site_type_symbol
  _atom_site_label
  _atom_site_symmetry_multiplicity
  _atom_site_fract_x
  _atom_site_fract_y
  _atom_site_fract_z
  _atom_site_occupancy
  Cd  Cd1       1.0  0.21727  0.65210  0.30989  1.0000
  Cd  Cd2       1.0  0.78273  0.34790  0.69012  1.0000
  H   H1        1.0  0.08153  0.74045  0.50317  1.0000
  H   H2        1.0  0.91846  0.25955  0.49684  1.0000
  H   H3        1.0  0.00758  0.81211  0.37466  1.0000
  H   H4        1.0  0.99243  0.18791  0.62536  1.0000
  H   H5        1.0  0.51222  0.43683  0.79483  1.0000
  H   H6        1.0  0.48777  0.56318  0.20518  1.0000
  H   H7        1.0  0.74412  0.54409  0.89795  1.0000
  H   H8        1.0  0.25587  0.45591  0.10206  1.0000
  H   H9        1.0  0.62935  0.38759  0.03983  1.0000
  H   H10       1.0  0.37065  0.61242  0.96018  1.0000
  H   H11       1.0  0.67875  0.08894  0.30756  1.0000
  H   H12       1.0  0.32122  0.91105  0.69243  1.0000
  H   H13       1.0  0.14918  0.97771  0.94431  1.0000
  H   H14       1.0  0.85082  0.02229  0.05567  1.0000
  H   H15       1.0  0.60761  0.88879  0.49304  1.0000
  H   H16       1.0  0.39245  0.11121  0.50696  1.0000
  H   H17       1.0  0.91697  0.76830  0.86236  1.0000
  H   H18       1.0  0.08304  0.23169  0.13765  1.0000
  H   H19       1.0  0.33642  0.49000  0.56761  1.0000
  H   H20       1.0  0.66358  0.51001  0.43240  1.0000
  H   H21       1.0  0.90260  0.95127  0.71342  1.0000
  H   H22       1.0  0.09746  0.04871  0.28658  1.0000
  C   C1        1.0  0.56725  0.28445  0.06454  1.0000
  C   C2        1.0  0.43274  0.71555  0.93547  1.0000
  C   C3        1.0  0.88215  0.36200  0.26887  1.0000
  C   C4        1.0  0.11785  0.63799  0.73114  1.0000
  C   C5        1.0  0.67769  0.25055  0.18290  1.0000
  C   C6        1.0  0.32230  0.74945  0.81711  1.0000
  C   C7        1.0  0.59596  0.11750  0.21523  1.0000
  C   C8        1.0  0.40402  0.88249  0.78476  1.0000
  C   C9        1.0  0.29730  0.05210  0.01000  1.0000
  C   C10       1.0  0.70269  0.94790  0.98999  1.0000
  C   C11       1.0  0.31049  0.87958  0.16795  1.0000
  C   C12       1.0  0.68947  0.12041  0.83202  1.0000
  C   C13       1.0  0.63195  0.61357  0.72423  1.0000
  C   C14       1.0  0.36805  0.38642  0.27578  1.0000
  C   C15       1.0  0.38121  0.18447  0.97978  1.0000
  C   C16       1.0  0.61879  0.81553  0.02022  1.0000
  C   C17       1.0  0.61798  0.81397  0.56182  1.0000
  C   C18       1.0  0.38206  0.18603  0.43818  1.0000
  C   C19       1.0  0.79046  0.74654  0.76582  1.0000
  C   C20       1.0  0.20956  0.25345  0.23419  1.0000
  C   C21       1.0  0.46751  0.58953  0.60290  1.0000
  C   C22       1.0  0.53251  0.41048  0.39711  1.0000
  C   C23       1.0  0.40507  0.01925  0.13008  1.0000
  C   C24       1.0  0.59490  0.98074  0.86990  1.0000
  C   C25       1.0  0.78232  0.84702  0.68357  1.0000
  C   C26       1.0  0.21773  0.15297  0.31643  1.0000
  N   N1        1.0  0.27445  0.22075  0.85454  1.0000
  N   N2        1.0  0.72555  0.77928  0.14547  1.0000
  N   N3        1.0  0.64355  0.50464  0.79758  1.0000
  N   N4        1.0  0.35644  0.49536  0.20242  1.0000
  N   N5        1.0  0.46337  0.68732  0.52353  1.0000
  N   N6        1.0  0.53666  0.31268  0.47648  1.0000
  O   O1        1.0  0.94344  0.45953  0.20529  1.0000
  O   O2        1.0  0.05655  0.54046  0.79472  1.0000
  O   O3        1.0  0.97766  0.35531  0.39010  1.0000
  O   O4        1.0  0.02234  0.64468  0.60990  1.0000
  O   O5        1.0  0.42622  0.83815  0.25913  1.0000
  O   O6        1.0  0.57372  0.16183  0.74085  1.0000
  O   O7        1.0  0.12752  0.81288  0.11173  1.0000
  O   O8        1.0  0.87244  0.18712  0.88824  1.0000
  O   O9        1.0  0.15838  0.12105  0.75100  1.0000
  O   O10       1.0  0.84162  0.87899  0.24900  1.0000
  O   O11       1.0  0.30645  0.35061  0.85493  1.0000
  O   O12       1.0  0.69356  0.64942  0.14510  1.0000
  O   O13       1.0  0.11991  0.79312  0.43336  1.0000
  O   O14       1.0  0.88009  0.20688  0.56664  1.0000
