data_image0
_chemical_formula_structural       Cu2H40W6C48N12O19
_chemical_formula_sum              "Cu2 H40 W6 C48 N12 O19"
_cell_length_a       10.562
_cell_length_b       11.1256
_cell_length_c       13.0267
_cell_angle_alpha    98.0698
_cell_angle_beta     108.086
_cell_angle_gamma    98.1642

_space_group_name_H-M_alt    "P 1"
_space_group_IT_number       1

loop_
  _space_group_symop_operation_xyz
  'x, y, z'

loop_
  _atom_site_type_symbol
  _atom_site_label
  _atom_site_symmetry_multiplicity
  _atom_site_fract_x
  _atom_site_fract_y
  _atom_site_fract_z
  _atom_site_occupancy
  Cu  Cu1       1.0  0.25705  0.37624  0.24111  1.0000
  Cu  Cu2       1.0  0.74296  0.62376  0.75889  1.0000
  H   H1        1.0  0.41396  0.18975  0.35890  1.0000
  H   H2        1.0  0.58604  0.81026  0.64110  1.0000
  H   H3        1.0  0.65394  0.20256  0.47771  1.0000
  H   H4        1.0  0.34606  0.79743  0.52229  1.0000
  H   H5        1.0  0.81809  0.40655  0.52900  1.0000
  H   H6        1.0  0.18190  0.59345  0.47101  1.0000
  H   H7        1.0  0.73125  0.59110  0.46515  1.0000
  H   H8        1.0  0.26874  0.40890  0.53486  1.0000
  H   H9        1.0  0.62398  0.76379  0.38992  1.0000
  H   H10       1.0  0.37601  0.23621  0.61008  1.0000
  H   H11       1.0  0.40259  0.85531  0.27936  1.0000
  H   H12       1.0  0.59741  0.14469  0.72064  1.0000
  H   H13       1.0  0.16111  0.77079  0.18654  1.0000
  H   H14       1.0  0.83888  0.22921  0.81346  1.0000
  H   H15       1.0  0.11072  0.66754  0.26370  1.0000
  H   H16       1.0  0.88928  0.33246  0.73630  1.0000
  H   H17       1.0  0.89511  0.57565  0.13645  1.0000
  H   H18       1.0  0.10489  0.42434  0.86355  1.0000
  H   H19       1.0  0.24736  0.56887  0.03677  1.0000
  H   H20       1.0  0.75264  0.43113  0.96322  1.0000
  H   H21       1.0  0.03712  0.41570  0.34874  1.0000
  H   H22       1.0  0.96289  0.58430  0.65127  1.0000
  H   H23       1.0  0.78789  0.34360  0.28962  1.0000
  H   H24       1.0  0.21212  0.65639  0.71038  1.0000
  H   H25       1.0  0.67003  0.18994  0.11084  1.0000
  H   H26       1.0  0.32998  0.81007  0.88916  1.0000
  H   H27       1.0  0.80871  0.12501  0.99553  1.0000
  H   H28       1.0  0.19129  0.87500  0.00447  1.0000
  H   H29       1.0  0.96791  0.05952  0.89761  1.0000
  H   H30       1.0  0.03209  0.94049  0.10239  1.0000
  H   H31       1.0  0.21941  0.08492  0.87493  1.0000
  H   H32       1.0  0.78059  0.91508  0.12507  1.0000
  H   H33       1.0  0.59853  0.45919  0.18813  1.0000
  H   H34       1.0  0.40146  0.54082  0.81187  1.0000
  H   H35       1.0  0.45017  0.18572  0.99664  1.0000
  H   H36       1.0  0.54983  0.81428  0.00335  1.0000
  H   H37       1.0  0.47369  0.25597  0.13463  1.0000
  H   H38       1.0  0.52632  0.74403  0.86536  1.0000
  H   H39       1.0  0.33317  0.33507  0.85077  1.0000
  H   H40       1.0  0.66682  0.66494  0.14922  1.0000
  W   W1        1.0  0.87306  0.96297  0.61637  1.0000
  W   W2        1.0  0.12694  0.03702  0.38363  1.0000
  W   W3        1.0  0.04003  0.21353  0.56846  1.0000
  W   W4        1.0  0.95997  0.78647  0.43154  1.0000
  W   W5        1.0  0.19829  0.98479  0.63885  1.0000
  W   W6        1.0  0.80171  0.01521  0.36115  1.0000
  C   C1        1.0  0.48790  0.27654  0.38398  1.0000
  C   C2        1.0  0.51210  0.72346  0.61602  1.0000
  C   C3        1.0  0.62188  0.28442  0.44964  1.0000
  C   C4        1.0  0.37812  0.71558  0.55036  1.0000
  C   C5        1.0  0.71210  0.39812  0.47889  1.0000
  C   C6        1.0  0.28790  0.60188  0.52111  1.0000
  C   C7        1.0  0.66480  0.50045  0.44247  1.0000
  C   C8        1.0  0.33520  0.49955  0.55754  1.0000
  C   C9        1.0  0.52871  0.48613  0.37702  1.0000
  C   C10       1.0  0.47129  0.51387  0.62298  1.0000
  C   C11       1.0  0.46863  0.58702  0.33567  1.0000
  C   C12       1.0  0.53137  0.41298  0.66433  1.0000
  C   C13       1.0  0.52112  0.71374  0.34685  1.0000
  C   C14       1.0  0.47888  0.28626  0.65315  1.0000
  C   C15       1.0  0.41144  0.76176  0.29112  1.0000
  C   C16       1.0  0.58856  0.23824  0.70888  1.0000
  C   C17       1.0  0.15993  0.67583  0.20145  1.0000
  C   C18       1.0  0.84007  0.32417  0.79855  1.0000
  C   C19       1.0  0.08022  0.58243  0.09786  1.0000
  C   C20       1.0  0.91978  0.41757  0.90214  1.0000
  C   C21       1.0  0.94103  0.54263  0.07622  1.0000
  C   C22       1.0  0.05897  0.45737  0.92378  1.0000
  C   C23       1.0  0.13898  0.53908  0.02101  1.0000
  C   C24       1.0  0.86102  0.46091  0.97899  1.0000
  C   C25       1.0  0.98327  0.35179  0.27071  1.0000
  C   C26       1.0  0.01674  0.64821  0.72929  1.0000
  C   C27       1.0  0.84326  0.31149  0.23676  1.0000
  C   C28       1.0  0.15675  0.68851  0.76324  1.0000
  C   C29       1.0  0.77848  0.22725  0.13746  1.0000
  C   C30       1.0  0.22153  0.77275  0.86254  1.0000
  C   C31       1.0  0.85538  0.18971  0.07410  1.0000
  C   C32       1.0  0.14463  0.81030  0.92590  1.0000
  C   C33       1.0  0.99544  0.23535  0.11248  1.0000
  C   C34       1.0  0.00457  0.76466  0.88752  1.0000
  C   C35       1.0  0.08338  0.20417  0.05075  1.0000
  C   C36       1.0  0.91662  0.79583  0.94925  1.0000
  C   C37       1.0  0.06101  0.12121  0.95135  1.0000
  C   C38       1.0  0.93899  0.87880  0.04865  1.0000
  C   C39       1.0  0.18690  0.13188  0.93796  1.0000
  C   C40       1.0  0.81311  0.86812  0.06204  1.0000
  C   C41       1.0  0.46064  0.38330  0.02277  1.0000
  C   C42       1.0  0.53936  0.61670  0.97722  1.0000
  C   C43       1.0  0.55514  0.47686  0.10534  1.0000
  C   C44       1.0  0.44486  0.52314  0.89465  1.0000
  C   C45       1.0  0.42154  0.25723  0.04763  1.0000
  C   C46       1.0  0.57846  0.74277  0.95237  1.0000
  C   C47       1.0  0.40584  0.40714  0.91680  1.0000
  C   C48       1.0  0.59415  0.59286  0.08320  1.0000
  N   N1        1.0  0.05978  0.31433  0.21152  1.0000
  N   N2        1.0  0.94022  0.68567  0.78848  1.0000
  N   N3        1.0  0.44076  0.37468  0.34772  1.0000
  N   N4        1.0  0.55924  0.62532  0.65228  1.0000
  N   N5        1.0  0.33469  0.55954  0.27554  1.0000
  N   N6        1.0  0.66531  0.44046  0.72446  1.0000
  N   N7        1.0  0.21503  0.26287  0.09396  1.0000
  N   N8        1.0  0.78498  0.73713  0.90604  1.0000
  N   N9        1.0  0.30149  0.66656  0.24927  1.0000
  N   N10       1.0  0.69851  0.33344  0.75073  1.0000
  N   N11       1.0  0.27644  0.21713  0.02491  1.0000
  N   N12       1.0  0.72357  0.78287  0.97509  1.0000
  O   O1        1.0  0.06700  0.37082  0.61988  1.0000
  O   O2        1.0  0.93300  0.62918  0.38012  1.0000
  O   O3        1.0  0.78165  0.94171  0.70430  1.0000
  O   O4        1.0  0.21835  0.05829  0.29570  1.0000
  O   O5        1.0  0.92952  0.14140  0.64690  1.0000
  O   O6        1.0  0.07047  0.85859  0.35309  1.0000
  O   O7        1.0  0.73877  0.98329  0.48099  1.0000
  O   O8        1.0  0.26123  0.01671  0.51901  1.0000
  O   O9        1.0  0.34380  0.97593  0.74296  1.0000
  O   O10       1.0  0.65619  0.02407  0.25704  1.0000
  O   O11       1.0  0.05565  0.95724  0.70354  1.0000
  O   O12       1.0  0.94435  0.04276  0.29646  1.0000
  O   O13       1.0  0.19015  0.15889  0.66810  1.0000
  O   O14       1.0  0.80985  0.84110  0.33190  1.0000
  O   O15       1.0  0.13725  0.20174  0.46388  1.0000
  O   O16       1.0  0.86275  0.79826  0.53612  1.0000
  O   O17       1.0  1.00000  0.00000  0.50000  1.0000
  O   O18       1.0  0.87500  0.18373  0.44323  1.0000
  O   O19       1.0  0.12499  0.81627  0.55677  1.0000
