data_image0
_chemical_formula_structural       Zn2H52C44N8O12
_chemical_formula_sum              "Zn2 H52 C44 N8 O12"
_cell_length_a       10.7912
_cell_length_b       11.4896
_cell_length_c       12.4354
_cell_angle_alpha    96.8176
_cell_angle_beta     114.59
_cell_angle_gamma    107.481

_space_group_name_H-M_alt    "P 1"
_space_group_IT_number       1

loop_
  _space_group_symop_operation_xyz
  'x, y, z'

loop_
  _atom_site_type_symbol
  _atom_site_label
  _atom_site_symmetry_multiplicity
  _atom_site_fract_x
  _atom_site_fract_y
  _atom_site_fract_z
  _atom_site_occupancy
  Zn  Zn1       1.0  0.55271  0.97536  0.71498  1.0000
  Zn  Zn2       1.0  0.44729  0.02464  0.28502  1.0000
  H   H1        1.0  0.18624  0.27724  0.21709  1.0000
  H   H2        1.0  0.81376  0.72276  0.78291  1.0000
  H   H3        1.0  0.22743  0.42533  0.31479  1.0000
  H   H4        1.0  0.77257  0.57468  0.68521  1.0000
  H   H5        1.0  0.86652  0.38485  0.65721  1.0000
  H   H6        1.0  0.13348  0.61515  0.34279  1.0000
  H   H7        1.0  0.58526  0.21508  0.59621  1.0000
  H   H8        1.0  0.41473  0.78492  0.40379  1.0000
  H   H9        1.0  0.82914  0.96357  0.80942  1.0000
  H   H10       1.0  0.17086  0.03643  0.19058  1.0000
  H   H11       1.0  0.98733  0.09917  0.92369  1.0000
  H   H12       1.0  0.01267  0.90082  0.07631  1.0000
  H   H13       1.0  0.98724  0.02656  0.78938  1.0000
  H   H14       1.0  0.01276  0.97344  0.21062  1.0000
  H   H15       1.0  0.12070  0.35619  0.74526  1.0000
  H   H16       1.0  0.87930  0.64381  0.25474  1.0000
  H   H17       1.0  0.13633  0.23590  0.82114  1.0000
  H   H18       1.0  0.86367  0.76410  0.17886  1.0000
  H   H19       1.0  0.27339  0.45684  0.96533  1.0000
  H   H20       1.0  0.72661  0.54316  0.03467  1.0000
  H   H21       1.0  0.10299  0.47890  0.91564  1.0000
  H   H22       1.0  0.89701  0.52110  0.08436  1.0000
  H   H23       1.0  0.14623  0.50758  0.12660  1.0000
  H   H24       1.0  0.85377  0.49242  0.87340  1.0000
  H   H25       1.0  0.31054  0.47644  0.17149  1.0000
  H   H26       1.0  0.68946  0.52356  0.82851  1.0000
  H   H27       1.0  0.57775  0.81381  0.91001  1.0000
  H   H28       1.0  0.42225  0.18619  0.08999  1.0000
  H   H29       1.0  0.70647  0.93525  0.16211  1.0000
  H   H30       1.0  0.29353  0.06475  0.83789  1.0000
  H   H31       1.0  0.81039  0.28768  0.95845  1.0000
  H   H32       1.0  0.18961  0.71232  0.04155  1.0000
  H   H33       1.0  0.69172  0.30763  0.01697  1.0000
  H   H34       1.0  0.30828  0.69237  0.98303  1.0000
  H   H35       1.0  0.61446  0.22733  0.85805  1.0000
  H   H36       1.0  0.38554  0.77267  0.14195  1.0000
  H   H37       1.0  0.76856  0.15933  0.27637  1.0000
  H   H38       1.0  0.23144  0.84067  0.72363  1.0000
  H   H39       1.0  0.75591  0.27567  0.19722  1.0000
  H   H40       1.0  0.24409  0.72433  0.80278  1.0000
  H   H41       1.0  0.01803  0.31787  0.35918  1.0000
  H   H42       1.0  0.98197  0.68213  0.64082  1.0000
  H   H43       1.0  0.00780  0.17765  0.27142  1.0000
  H   H44       1.0  0.99220  0.82235  0.72858  1.0000
  H   H45       1.0  0.60291  0.71796  0.48354  1.0000
  H   H46       1.0  0.39709  0.28204  0.51647  1.0000
  H   H47       1.0  0.61075  0.53347  0.36061  1.0000
  H   H48       1.0  0.38925  0.46653  0.63939  1.0000
  H   H49       1.0  0.18554  0.22212  0.60501  1.0000
  H   H50       1.0  0.81446  0.77788  0.39499  1.0000
  H   H51       1.0  0.08898  0.82379  0.50090  1.0000
  H   H52       1.0  0.91102  0.17621  0.49910  1.0000
  C   C1        1.0  0.15697  0.36149  0.21990  1.0000
  C   C2        1.0  0.84303  0.63851  0.78010  1.0000
  C   C3        1.0  0.85152  0.13492  0.75834  1.0000
  C   C4        1.0  0.14848  0.86508  0.24166  1.0000
  C   C5        1.0  0.83024  0.29643  0.67904  1.0000
  C   C6        1.0  0.16976  0.70357  0.32096  1.0000
  C   C7        1.0  0.69265  0.21234  0.64944  1.0000
  C   C8        1.0  0.30736  0.78766  0.35056  1.0000
  C   C9        1.0  0.91768  0.05180  0.82445  1.0000
  C   C10       1.0  0.08232  0.94820  0.17555  1.0000
  C   C11       1.0  0.08984  0.30910  0.80743  1.0000
  C   C12       1.0  0.91016  0.69090  0.19257  1.0000
  C   C13       1.0  0.15289  0.40703  0.92963  1.0000
  C   C14       1.0  0.84711  0.59297  0.07037  1.0000
  C   C15       1.0  0.18925  0.43116  0.13312  1.0000
  C   C16       1.0  0.81075  0.56884  0.86688  1.0000
  C   C17       1.0  0.68381  0.11876  0.98042  1.0000
  C   C18       1.0  0.31619  0.88124  0.01958  1.0000
  C   C19       1.0  0.62546  0.91367  0.96013  1.0000
  C   C20       1.0  0.37454  0.08633  0.03988  1.0000
  C   C21       1.0  0.68891  0.97258  0.08330  1.0000
  C   C22       1.0  0.31109  0.02742  0.91670  1.0000
  C   C23       1.0  0.70098  0.24227  0.95157  1.0000
  C   C24       1.0  0.29902  0.75772  0.04843  1.0000
  C   C25       1.0  0.79937  0.20068  0.21153  1.0000
  C   C26       1.0  0.20063  0.79932  0.78847  1.0000
  C   C27       1.0  0.96636  0.25510  0.26454  1.0000
  C   C28       1.0  0.03364  0.74490  0.73546  1.0000
  C   C29       1.0  0.49506  0.60274  0.56885  1.0000
  C   C30       1.0  0.50494  0.39726  0.43115  1.0000
  C   C31       1.0  0.55789  0.62236  0.49041  1.0000
  C   C32       1.0  0.44211  0.37764  0.50959  1.0000
  C   C33       1.0  0.56281  0.52023  0.42231  1.0000
  C   C34       1.0  0.43719  0.47977  0.57769  1.0000
  C   C35       1.0  0.49292  0.71268  0.64587  1.0000
  C   C36       1.0  0.50708  0.28732  0.35413  1.0000
  C   C37       1.0  0.15143  0.02538  0.55924  1.0000
  C   C38       1.0  0.84857  0.97461  0.44076  1.0000
  C   C39       1.0  0.10251  0.12541  0.55866  1.0000
  C   C40       1.0  0.89749  0.87459  0.44134  1.0000
  C   C41       1.0  0.04801  0.89977  0.49993  1.0000
  C   C42       1.0  0.95199  0.10023  0.50007  1.0000
  C   C43       1.0  0.31412  0.05361  0.62655  1.0000
  C   C44       1.0  0.68588  0.94639  0.37345  1.0000
  N   N1        1.0  0.70731  0.11305  0.69944  1.0000
  N   N2        1.0  0.29269  0.88695  0.30056  1.0000
  N   N3        1.0  0.92948  0.24657  0.74765  1.0000
  N   N4        1.0  0.07051  0.75343  0.25235  1.0000
  N   N5        1.0  0.62272  0.00536  0.89732  1.0000
  N   N6        1.0  0.37728  0.99463  0.10268  1.0000
  N   N7        1.0  0.72515  0.10161  0.09492  1.0000
  N   N8        1.0  0.27485  0.89839  0.90508  1.0000
  O   O1        1.0  0.12454  0.34448  0.01382  1.0000
  O   O2        1.0  0.87546  0.65552  0.98618  1.0000
  O   O3        1.0  0.00410  0.32401  0.18717  1.0000
  O   O4        1.0  0.99590  0.67599  0.81283  1.0000
  O   O5        1.0  0.57082  0.82322  0.64481  1.0000
  O   O6        1.0  0.42918  0.17678  0.35520  1.0000
  O   O7        1.0  0.42245  0.69413  0.70478  1.0000
  O   O8        1.0  0.57755  0.30587  0.29522  1.0000
  O   O9        1.0  0.34658  0.95380  0.62126  1.0000
  O   O10       1.0  0.65342  0.04620  0.37874  1.0000
  O   O11       1.0  0.40477  0.16553  0.68393  1.0000
  O   O12       1.0  0.59522  0.83447  0.31607  1.0000
