data_image0
_chemical_formula_structural       Tb2H24C30N12O24
_chemical_formula_sum              "Tb2 H24 C30 N12 O24"
_cell_length_a       7.94039
_cell_length_b       11.4075
_cell_length_c       13.0039
_cell_angle_alpha    83.7631
_cell_angle_beta     80.4091
_cell_angle_gamma    78.9407

_space_group_name_H-M_alt    "P 1"
_space_group_IT_number       1

loop_
  _space_group_symop_operation_xyz
  'x, y, z'

loop_
  _atom_site_type_symbol
  _atom_site_label
  _atom_site_symmetry_multiplicity
  _atom_site_fract_x
  _atom_site_fract_y
  _atom_site_fract_z
  _atom_site_occupancy
  Tb  Tb1       1.0  0.27533  0.33092  0.72210  1.0000
  Tb  Tb2       1.0  0.72466  0.66908  0.27790  1.0000
  H   H1        1.0  0.55976  0.20274  0.94490  1.0000
  H   H2        1.0  0.44024  0.79727  0.05509  1.0000
  H   H3        1.0  0.49813  0.18356  0.14180  1.0000
  H   H4        1.0  0.50190  0.81643  0.85819  1.0000
  H   H5        1.0  0.20289  0.54356  0.12522  1.0000
  H   H6        1.0  0.79710  0.45643  0.87478  1.0000
  H   H7        1.0  0.27138  0.54597  0.92941  1.0000
  H   H8        1.0  0.72862  0.45403  0.07059  1.0000
  H   H9        1.0  0.56619  0.22102  0.42755  1.0000
  H   H10       1.0  0.43380  0.77898  0.57245  1.0000
  H   H11       1.0  0.80399  0.05573  0.37421  1.0000
  H   H12       1.0  0.19602  0.94429  0.62578  1.0000
  H   H13       1.0  0.00126  0.08150  0.66212  1.0000
  H   H14       1.0  0.99873  0.91851  0.33788  1.0000
  H   H15       1.0  0.75155  0.24280  0.70398  1.0000
  H   H16       1.0  0.24844  0.75721  0.29602  1.0000
  H   H17       1.0  0.17852  0.18228  0.48370  1.0000
  H   H18       1.0  0.82148  0.81772  0.51630  1.0000
  H   H19       1.0  0.27408  0.17227  0.28964  1.0000
  H   H20       1.0  0.72592  0.82772  0.71036  1.0000
  H   H21       1.0  0.32254  0.54476  0.27508  1.0000
  H   H22       1.0  0.67746  0.45523  0.72492  1.0000
  H   H23       1.0  0.22371  0.53811  0.47015  1.0000
  H   H24       1.0  0.77628  0.46188  0.52984  1.0000
  C   C1        1.0  0.48038  0.27309  0.99063  1.0000
  C   C2        1.0  0.51962  0.72692  0.00936  1.0000
  C   C3        1.0  0.44418  0.26564  0.09861  1.0000
  C   C4        1.0  0.55584  0.73436  0.90139  1.0000
  C   C5        1.0  0.34399  0.36318  0.15055  1.0000
  C   C6        1.0  0.65601  0.63682  0.84945  1.0000
  C   C7        1.0  0.28215  0.46614  0.08882  1.0000
  C   C8        1.0  0.71785  0.53385  0.91118  1.0000
  C   C9        1.0  0.31818  0.46991  0.98134  1.0000
  C   C10       1.0  0.68182  0.53009  0.01865  1.0000
  C   C11       1.0  0.66494  0.18330  0.47623  1.0000
  C   C12       1.0  0.33506  0.81671  0.52377  1.0000
  C   C13       1.0  0.80077  0.09184  0.44859  1.0000
  C   C14       1.0  0.19922  0.90816  0.55142  1.0000
  C   C15       1.0  0.92681  0.04854  0.51432  1.0000
  C   C16       1.0  0.07320  0.95147  0.48567  1.0000
  C   C17       1.0  0.90746  0.10500  0.60781  1.0000
  C   C18       1.0  0.09254  0.89501  0.39219  1.0000
  C   C19       1.0  0.77027  0.19633  0.63323  1.0000
  C   C20       1.0  0.22971  0.80368  0.36677  1.0000
  C   C21       1.0  0.21041  0.25837  0.43161  1.0000
  C   C22       1.0  0.78958  0.74162  0.56839  1.0000
  C   C23       1.0  0.26377  0.25585  0.32524  1.0000
  C   C24       1.0  0.73625  0.74414  0.67476  1.0000
  C   C25       1.0  0.30004  0.36018  0.26471  1.0000
  C   C26       1.0  0.69996  0.63981  0.73530  1.0000
  C   C27       1.0  0.28710  0.46337  0.31743  1.0000
  C   C28       1.0  0.71289  0.53663  0.68257  1.0000
  C   C29       1.0  0.23420  0.46258  0.42399  1.0000
  C   C30       1.0  0.76580  0.53741  0.57601  1.0000
  N   N1        1.0  0.17963  0.58806  0.72580  1.0000
  N   N2        1.0  0.82037  0.41194  0.27420  1.0000
  N   N3        1.0  0.00152  0.25682  0.87825  1.0000
  N   N4        1.0  0.99848  0.74318  0.12176  1.0000
  N   N5        1.0  0.39993  0.07135  0.72431  1.0000
  N   N6        1.0  0.60008  0.92865  0.27570  1.0000
  N   N7        1.0  0.41702  0.37407  0.93360  1.0000
  N   N8        1.0  0.58298  0.62593  0.06640  1.0000
  N   N9        1.0  0.64904  0.23356  0.56833  1.0000
  N   N10       1.0  0.35095  0.76645  0.43167  1.0000
  N   N11       1.0  0.19130  0.36171  0.47932  1.0000
  N   N12       1.0  0.80869  0.63829  0.52067  1.0000
  O   O1        1.0  0.45346  0.38012  0.83010  1.0000
  O   O2        1.0  0.54654  0.61988  0.16989  1.0000
  O   O3        1.0  0.30188  0.54118  0.65646  1.0000
  O   O4        1.0  0.69811  0.45883  0.34354  1.0000
  O   O5        1.0  0.09994  0.51325  0.78849  1.0000
  O   O6        1.0  0.90006  0.48675  0.21152  1.0000
  O   O7        1.0  0.14052  0.69701  0.73320  1.0000
  O   O8        1.0  0.85947  0.30299  0.26681  1.0000
  O   O9        1.0  0.51755  0.32069  0.59349  1.0000
  O   O10       1.0  0.48245  0.67931  0.40652  1.0000
  O   O11       1.0  0.15650  0.25505  0.89638  1.0000
  O   O12       1.0  0.84350  0.74495  0.10363  1.0000
  O   O13       1.0  0.97560  0.28984  0.78307  1.0000
  O   O14       1.0  0.02441  0.71014  0.21694  1.0000
  O   O15       1.0  0.88531  0.23037  0.94704  1.0000
  O   O16       1.0  0.11469  0.76964  0.05296  1.0000
  O   O17       1.0  0.12706  0.36347  0.57975  1.0000
  O   O18       1.0  0.87294  0.63652  0.42025  1.0000
  O   O19       1.0  0.46904  0.13604  0.77347  1.0000
  O   O20       1.0  0.53096  0.86396  0.22654  1.0000
  O   O21       1.0  0.27802  0.12767  0.67323  1.0000
  O   O22       1.0  0.72199  0.87233  0.32677  1.0000
  O   O23       1.0  0.44573  0.96130  0.72423  1.0000
  O   O24       1.0  0.55428  0.03870  0.27578  1.0000
