data_image0
_chemical_formula_structural       Na2Zn2H24C36N6O18
_chemical_formula_sum              "Na2 Zn2 H24 C36 N6 O18"
_cell_length_a       10.0234
_cell_length_b       10.0234
_cell_length_c       13.7445
_cell_angle_alpha    68.6111
_cell_angle_beta     68.6111
_cell_angle_gamma    60.006

_space_group_name_H-M_alt    "P 1"
_space_group_IT_number       1

loop_
  _space_group_symop_operation_xyz
  'x, y, z'

loop_
  _atom_site_type_symbol
  _atom_site_label
  _atom_site_symmetry_multiplicity
  _atom_site_fract_x
  _atom_site_fract_y
  _atom_site_fract_z
  _atom_site_occupancy
  Na  Na1       1.0  0.46403  0.46407  0.60785  1.0000
  Na  Na2       1.0  0.96407  0.96404  0.10785  1.0000
  Zn  Zn1       1.0  0.05194  0.05199  0.84401  1.0000
  Zn  Zn2       1.0  0.55199  0.55194  0.34401  1.0000
  H   H1        1.0  0.32017  0.84915  0.10113  1.0000
  H   H2        1.0  0.84907  0.72966  0.10117  1.0000
  H   H3        1.0  0.72954  0.32020  0.10119  1.0000
  H   H4        1.0  0.22966  0.34907  0.60117  1.0000
  H   H5        1.0  0.82020  0.22955  0.60119  1.0000
  H   H6        1.0  0.34915  0.82017  0.60113  1.0000
  H   H7        1.0  0.54024  0.85729  0.11819  1.0000
  H   H8        1.0  0.85708  0.48434  0.11831  1.0000
  H   H9        1.0  0.48428  0.54027  0.11825  1.0000
  H   H10       1.0  0.98434  0.35707  0.61831  1.0000
  H   H11       1.0  0.04027  0.98428  0.61825  1.0000
  H   H12       1.0  0.35729  0.04024  0.61819  1.0000
  H   H13       1.0  0.54110  0.18198  0.80609  1.0000
  H   H14       1.0  0.18184  0.47085  0.80625  1.0000
  H   H15       1.0  0.47094  0.54105  0.80617  1.0000
  H   H16       1.0  0.97084  0.68184  0.30625  1.0000
  H   H17       1.0  0.04105  0.97094  0.30617  1.0000
  H   H18       1.0  0.68198  0.04110  0.30609  1.0000
  H   H19       1.0  0.66494  0.02894  0.96697  1.0000
  H   H20       1.0  0.02876  0.33918  0.96708  1.0000
  H   H21       1.0  0.33922  0.66491  0.96701  1.0000
  H   H22       1.0  0.83918  0.52876  0.46708  1.0000
  H   H23       1.0  0.16490  0.83923  0.46701  1.0000
  H   H24       1.0  0.52894  0.16494  0.46697  1.0000
  C   C1        1.0  0.30058  0.18670  0.76594  1.0000
  C   C2        1.0  0.18672  0.74665  0.76601  1.0000
  C   C3        1.0  0.74662  0.30060  0.76603  1.0000
  C   C4        1.0  0.24665  0.68672  0.26601  1.0000
  C   C5        1.0  0.80060  0.24662  0.26603  1.0000
  C   C6        1.0  0.68669  0.80058  0.26594  1.0000
  C   C7        1.0  0.30475  0.98929  0.94978  1.0000
  C   C8        1.0  0.98922  0.75618  0.94984  1.0000
  C   C9        1.0  0.75623  0.30477  0.94983  1.0000
  C   C10       1.0  0.25618  0.48922  0.44984  1.0000
  C   C11       1.0  0.80477  0.25623  0.44983  1.0000
  C   C12       1.0  0.48928  0.80475  0.44978  1.0000
  C   C13       1.0  0.36770  0.09172  0.86377  1.0000
  C   C14       1.0  0.09166  0.67678  0.86387  1.0000
  C   C15       1.0  0.67685  0.36768  0.86385  1.0000
  C   C16       1.0  0.17678  0.59166  0.36387  1.0000
  C   C17       1.0  0.86768  0.17686  0.36385  1.0000
  C   C18       1.0  0.59172  0.86770  0.36377  1.0000
  C   C19       1.0  0.49795  0.92710  0.04475  1.0000
  C   C20       1.0  0.92688  0.53027  0.04485  1.0000
  C   C21       1.0  0.53026  0.49797  0.04481  1.0000
  C   C22       1.0  0.03028  0.42688  0.54485  1.0000
  C   C23       1.0  0.99796  0.03026  0.54481  1.0000
  C   C24       1.0  0.42710  0.99795  0.54475  1.0000
  C   C25       1.0  0.49504  0.10402  0.87245  1.0000
  C   C26       1.0  0.10388  0.52849  0.87258  1.0000
  C   C27       1.0  0.52856  0.49503  0.87254  1.0000
  C   C28       1.0  0.02849  0.60388  0.37258  1.0000
  C   C29       1.0  0.99503  0.02856  0.37254  1.0000
  C   C30       1.0  0.60402  0.99504  0.37245  1.0000
  C   C31       1.0  0.56328  0.02107  0.96199  1.0000
  C   C32       1.0  0.02085  0.45372  0.96210  1.0000
  C   C33       1.0  0.45375  0.56329  0.96205  1.0000
  C   C34       1.0  0.95372  0.52085  0.46210  1.0000
  C   C35       1.0  0.06329  0.95375  0.46205  1.0000
  C   C36       1.0  0.52107  0.06328  0.46199  1.0000
  N   N1        1.0  0.37382  0.91556  0.03723  1.0000
  N   N2        1.0  0.91541  0.67346  0.03729  1.0000
  N   N3        1.0  0.67343  0.37386  0.03729  1.0000
  N   N4        1.0  0.17346  0.41541  0.53729  1.0000
  N   N5        1.0  0.87386  0.17343  0.53729  1.0000
  N   N6        1.0  0.41556  0.87382  0.53723  1.0000
  O   O1        1.0  0.18454  0.17749  0.75399  1.0000
  O   O2        1.0  0.17758  0.88385  0.75397  1.0000
  O   O3        1.0  0.88383  0.18461  0.75395  1.0000
  O   O4        1.0  0.38385  0.67759  0.25397  1.0000
  O   O5        1.0  0.68461  0.38384  0.25395  1.0000
  O   O6        1.0  0.67749  0.68454  0.25399  1.0000
  O   O7        1.0  0.36137  0.27679  0.69545  1.0000
  O   O8        1.0  0.27679  0.66616  0.69560  1.0000
  O   O9        1.0  0.66602  0.36137  0.69569  1.0000
  O   O10       1.0  0.16616  0.77679  0.19560  1.0000
  O   O11       1.0  0.86137  0.16602  0.19569  1.0000
  O   O12       1.0  0.77679  0.86137  0.19545  1.0000
  O   O13       1.0  0.19382  0.95784  0.95566  1.0000
  O   O14       1.0  0.95782  0.89269  0.95568  1.0000
  O   O15       1.0  0.89273  0.19387  0.95569  1.0000
  O   O16       1.0  0.39269  0.45782  0.45568  1.0000
  O   O17       1.0  0.69387  0.39273  0.45569  1.0000
  O   O18       1.0  0.45784  0.69382  0.45566  1.0000
