data_image0
_chemical_formula_structural       Mn2H30C44N4O10
_chemical_formula_sum              "Mn2 H30 C44 N4 O10"
_cell_length_a       9.09584
_cell_length_b       9.91862
_cell_length_c       12.5085
_cell_angle_alpha    95.5203
_cell_angle_beta     106.761
_cell_angle_gamma    109.945

_space_group_name_H-M_alt    "P 1"
_space_group_IT_number       1

loop_
  _space_group_symop_operation_xyz
  'x, y, z'

loop_
  _atom_site_type_symbol
  _atom_site_label
  _atom_site_symmetry_multiplicity
  _atom_site_fract_x
  _atom_site_fract_y
  _atom_site_fract_z
  _atom_site_occupancy
  Mn  Mn1       1.0  0.54811  0.94093  0.61119  1.0000
  Mn  Mn2       1.0  0.45189  0.05907  0.38881  1.0000
  H   H1        1.0  0.19684  0.29925  0.52333  1.0000
  H   H2        1.0  0.80315  0.70074  0.47667  1.0000
  H   H3        1.0  0.06971  0.41873  0.63445  1.0000
  H   H4        1.0  0.93029  0.58127  0.36555  1.0000
  H   H5        1.0  0.00513  0.07411  0.82199  1.0000
  H   H6        1.0  0.99487  0.92589  0.17801  1.0000
  H   H7        1.0  0.14091  0.95809  0.71291  1.0000
  H   H8        1.0  0.85909  0.04191  0.28709  1.0000
  H   H9        1.0  0.81374  0.78466  0.69442  1.0000
  H   H10       1.0  0.18627  0.21534  0.30559  1.0000
  H   H11       1.0  0.09410  0.59967  0.93325  1.0000
  H   H12       1.0  0.90590  0.40032  0.06676  1.0000
  H   H13       1.0  0.65522  0.53733  0.56518  1.0000
  H   H14       1.0  0.34478  0.46268  0.43482  1.0000
  H   H15       1.0  0.02956  0.81371  0.88286  1.0000
  H   H16       1.0  0.97044  0.18629  0.11715  1.0000
  H   H17       1.0  0.43015  0.65222  0.72335  1.0000
  H   H18       1.0  0.56985  0.34778  0.27665  1.0000
  H   H19       1.0  0.79093  0.07956  0.88615  1.0000
  H   H20       1.0  0.20907  0.92044  0.11385  1.0000
  H   H21       1.0  0.76993  0.90623  0.04861  1.0000
  H   H22       1.0  0.23007  0.09377  0.95139  1.0000
  H   H23       1.0  0.62133  0.49961  0.84628  1.0000
  H   H24       1.0  0.37868  0.50039  0.15371  1.0000
  H   H25       1.0  0.55250  0.83857  0.15213  1.0000
  H   H26       1.0  0.44751  0.16143  0.84787  1.0000
  H   H27       1.0  0.34037  0.72496  0.11708  1.0000
  H   H28       1.0  0.65964  0.27504  0.88292  1.0000
  H   H29       1.0  0.40999  0.81596  0.01444  1.0000
  H   H30       1.0  0.59001  0.18405  0.98556  1.0000
  C   C1        1.0  0.27004  0.05935  0.55517  1.0000
  C   C2        1.0  0.72996  0.94065  0.44483  1.0000
  C   C3        1.0  0.17962  0.12388  0.61369  1.0000
  C   C4        1.0  0.82038  0.87612  0.38631  1.0000
  C   C5        1.0  0.15637  0.25165  0.58984  1.0000
  C   C6        1.0  0.84362  0.74834  0.41016  1.0000
  C   C7        1.0  0.08481  0.31770  0.65192  1.0000
  C   C8        1.0  0.91518  0.68229  0.34808  1.0000
  C   C9        1.0  0.03329  0.25519  0.73753  1.0000
  C   C10       1.0  0.96671  0.74481  0.26247  1.0000
  C   C11       1.0  0.05152  0.12401  0.75816  1.0000
  C   C12       1.0  0.94847  0.87598  0.24184  1.0000
  C   C13       1.0  0.12486  0.05940  0.69755  1.0000
  C   C14       1.0  0.87513  0.94060  0.30245  1.0000
  C   C15       1.0  0.96410  0.32552  0.80990  1.0000
  C   C16       1.0  0.03590  0.67447  0.19010  1.0000
  C   C17       1.0  0.91591  0.44973  0.77652  1.0000
  C   C18       1.0  0.08410  0.55027  0.22348  1.0000
  C   C19       1.0  0.68608  0.28262  0.59716  1.0000
  C   C20       1.0  0.31392  0.71738  0.40284  1.0000
  C   C21       1.0  0.84203  0.69139  0.71875  1.0000
  C   C22       1.0  0.15798  0.30861  0.28125  1.0000
  C   C23       1.0  0.00075  0.58738  0.85153  1.0000
  C   C24       1.0  0.99925  0.41262  0.14847  1.0000
  C   C25       1.0  0.78980  0.43196  0.67303  1.0000
  C   C26       1.0  0.21021  0.56805  0.32697  1.0000
  C   C27       1.0  0.75451  0.55344  0.64497  1.0000
  C   C28       1.0  0.24550  0.44657  0.35503  1.0000
  C   C29       1.0  0.96386  0.70764  0.82271  1.0000
  C   C30       1.0  0.03615  0.29236  0.17729  1.0000
  C   C31       1.0  0.52545  0.74625  0.78828  1.0000
  C   C32       1.0  0.47455  0.25375  0.21172  1.0000
  C   C33       1.0  0.71234  0.96543  0.87634  1.0000
  C   C34       1.0  0.28766  0.03457  0.12366  1.0000
  C   C35       1.0  0.70364  0.88270  0.95767  1.0000
  C   C36       1.0  0.29636  0.11730  0.04233  1.0000
  C   C37       1.0  0.53951  0.62048  0.95220  1.0000
  C   C38       1.0  0.46049  0.37952  0.04780  1.0000
  C   C39       1.0  0.56522  0.49693  0.91270  1.0000
  C   C40       1.0  0.43478  0.50307  0.08729  1.0000
  C   C41       1.0  0.47390  0.62764  0.04058  1.0000
  C   C42       1.0  0.52610  0.37236  0.95942  1.0000
  C   C43       1.0  0.44234  0.75845  0.08273  1.0000
  C   C44       1.0  0.55766  0.24155  0.91727  1.0000
  N   N1        1.0  0.60036  0.87920  0.77111  1.0000
  N   N2        1.0  0.39964  0.12080  0.22889  1.0000
  N   N3        1.0  0.58493  0.74406  0.90095  1.0000
  N   N4        1.0  0.41507  0.25594  0.09905  1.0000
  O   O1        1.0  0.33161  0.97508  0.60521  1.0000
  O   O2        1.0  0.66838  0.02491  0.39479  1.0000
  O   O3        1.0  0.28399  0.09597  0.46260  1.0000
  O   O4        1.0  0.71601  0.90403  0.53739  1.0000
  O   O5        1.0  0.61573  0.27465  0.49191  1.0000
  O   O6        1.0  0.38427  0.72535  0.50809  1.0000
  O   O7        1.0  0.67362  0.17370  0.64623  1.0000
  O   O8        1.0  0.32638  0.82631  0.35378  1.0000
  O   O9        1.0  0.95815  0.29069  0.90155  1.0000
  O   O10       1.0  0.04186  0.70931  0.09845  1.0000
