data_image0
_chemical_formula_structural       Cd2H12C24N4O8
_chemical_formula_sum              "Cd2 H12 C24 N4 O8"
_cell_length_a       6.77294
_cell_length_b       9.43593
_cell_length_c       9.49695
_cell_angle_alpha    105.486
_cell_angle_beta     91.0391
_cell_angle_gamma    102.999

_space_group_name_H-M_alt    "P 1"
_space_group_IT_number       1

loop_
  _space_group_symop_operation_xyz
  'x, y, z'

loop_
  _atom_site_type_symbol
  _atom_site_label
  _atom_site_symmetry_multiplicity
  _atom_site_fract_x
  _atom_site_fract_y
  _atom_site_fract_z
  _atom_site_occupancy
  Cd  Cd1       1.0  0.27070  0.52958  0.13206  1.0000
  Cd  Cd2       1.0  0.72931  0.47043  0.86795  1.0000
  H   H1        1.0  0.27976  0.93609  0.96020  1.0000
  H   H2        1.0  0.72028  0.06393  0.03979  1.0000
  H   H3        1.0  0.19732  0.10425  0.41709  1.0000
  H   H4        1.0  0.80268  0.89575  0.58291  1.0000
  H   H5        1.0  0.23955  0.76184  0.72055  1.0000
  H   H6        1.0  0.76043  0.23815  0.27946  1.0000
  H   H7        1.0  0.29500  0.19777  0.93547  1.0000
  H   H8        1.0  0.70503  0.80225  0.06454  1.0000
  H   H9        1.0  0.24762  0.29142  0.58959  1.0000
  H   H10       1.0  0.75235  0.70857  0.41040  1.0000
  H   H11       1.0  0.26224  0.76161  0.45573  1.0000
  H   H12       1.0  0.73773  0.23838  0.54427  1.0000
  C   C1        1.0  0.21530  0.84643  0.21227  1.0000
  C   C2        1.0  0.78472  0.15358  0.78772  1.0000
  C   C3        1.0  0.22721  0.51987  0.82780  1.0000
  C   C4        1.0  0.77279  0.48012  0.17220  1.0000
  C   C5        1.0  0.27802  0.17277  0.04079  1.0000
  C   C6        1.0  0.72200  0.82722  0.95921  1.0000
  C   C7        1.0  0.26767  0.02807  0.05466  1.0000
  C   C8        1.0  0.73235  0.97193  0.94534  1.0000
  C   C9        1.0  0.23855  0.00232  0.19188  1.0000
  C   C10       1.0  0.76147  0.99769  0.80812  1.0000
  C   C11       1.0  0.22591  0.12383  0.31061  1.0000
  C   C12       1.0  0.77410  0.87617  0.68938  1.0000
  C   C13       1.0  0.25040  0.26810  0.29075  1.0000
  C   C14       1.0  0.74960  0.73191  0.70925  1.0000
  C   C15       1.0  0.25513  0.40350  0.41559  1.0000
  C   C16       1.0  0.74485  0.59650  0.58441  1.0000
  C   C17       1.0  0.25097  0.39585  0.56071  1.0000
  C   C18       1.0  0.74901  0.60415  0.43929  1.0000
  C   C19       1.0  0.24358  0.52485  0.67198  1.0000
  C   C20       1.0  0.75640  0.47514  0.32802  1.0000
  C   C21       1.0  0.24781  0.65978  0.63626  1.0000
  C   C22       1.0  0.75217  0.34021  0.36375  1.0000
  C   C23       1.0  0.26078  0.66028  0.49051  1.0000
  C   C24       1.0  0.73920  0.33971  0.50950  1.0000
  N   N1        1.0  0.27187  0.28961  0.15624  1.0000
  N   N2        1.0  0.72814  0.71039  0.84376  1.0000
  N   N3        1.0  0.26255  0.53537  0.38328  1.0000
  N   N4        1.0  0.73741  0.46462  0.61672  1.0000
  O   O1        1.0  0.09892  0.58231  0.89940  1.0000
  O   O2        1.0  0.90109  0.41768  0.10061  1.0000
  O   O3        1.0  0.35933  0.78167  0.16680  1.0000
  O   O4        1.0  0.64070  0.21834  0.83319  1.0000
  O   O5        1.0  0.34689  0.45767  0.88205  1.0000
  O   O6        1.0  0.65311  0.54232  0.11795  1.0000
  O   O7        1.0  0.06174  0.79455  0.27080  1.0000
  O   O8        1.0  0.93828  0.20545  0.72919  1.0000
