data_image0
_chemical_formula_structural       Cd2H26C42N8Cl2O4
_chemical_formula_sum              "Cd2 H26 C42 N8 Cl2 O4"
_cell_length_a       9.99951
_cell_length_b       10.4571
_cell_length_c       10.8335
_cell_angle_alpha    88.8646
_cell_angle_beta     62.3843
_cell_angle_gamma    72.3365

_space_group_name_H-M_alt    "P 1"
_space_group_IT_number       1

loop_
  _space_group_symop_operation_xyz
  'x, y, z'

loop_
  _atom_site_type_symbol
  _atom_site_label
  _atom_site_symmetry_multiplicity
  _atom_site_fract_x
  _atom_site_fract_y
  _atom_site_fract_z
  _atom_site_occupancy
  Cd  Cd1       1.0  0.55499  0.61914  0.06824  1.0000
  Cd  Cd2       1.0  0.44501  0.38086  0.93176  1.0000
  H   H1        1.0  0.33182  0.78377  0.93077  1.0000
  H   H2        1.0  0.66818  0.21623  0.06923  1.0000
  H   H3        1.0  0.32350  0.96531  0.77533  1.0000
  H   H4        1.0  0.67651  0.03469  0.22467  1.0000
  H   H5        1.0  0.53656  0.07482  0.69117  1.0000
  H   H6        1.0  0.46344  0.92518  0.30883  1.0000
  H   H7        1.0  0.84198  0.58982  0.14071  1.0000
  H   H8        1.0  0.15802  0.41018  0.85929  1.0000
  H   H9        1.0  0.07302  0.67597  0.07232  1.0000
  H   H10       1.0  0.92698  0.32403  0.92768  1.0000
  H   H11       1.0  0.10940  0.84660  0.90248  1.0000
  H   H12       1.0  0.89060  0.15340  0.09752  1.0000
  H   H13       1.0  0.22591  0.13762  0.65063  1.0000
  H   H14       1.0  0.77410  0.86239  0.34937  1.0000
  H   H15       1.0  0.37771  0.28560  0.50929  1.0000
  H   H16       1.0  0.62229  0.71440  0.49071  1.0000
  H   H17       1.0  0.28995  0.42459  0.35310  1.0000
  H   H18       1.0  0.71005  0.57541  0.64690  1.0000
  H   H19       1.0  0.05198  0.41541  0.34083  1.0000
  H   H20       1.0  0.94802  0.58459  0.65917  1.0000
  H   H21       1.0  0.90120  0.26853  0.48020  1.0000
  H   H22       1.0  0.09879  0.73147  0.51981  1.0000
  H   H23       1.0  0.37000  0.63832  0.57696  1.0000
  H   H24       1.0  0.63000  0.36168  0.42304  1.0000
  H   H25       1.0  0.75628  0.16530  0.63758  1.0000
  H   H26       1.0  0.24372  0.83470  0.36241  1.0000
  C   C1        1.0  0.42119  0.83466  0.89170  1.0000
  C   C2        1.0  0.57881  0.16534  0.10830  1.0000
  C   C3        1.0  0.41821  0.93541  0.80461  1.0000
  C   C4        1.0  0.58179  0.06459  0.19539  1.0000
  C   C5        1.0  0.53623  0.99498  0.75751  1.0000
  C   C6        1.0  0.46377  0.00502  0.24249  1.0000
  C   C7        1.0  0.65715  0.95271  0.79722  1.0000
  C   C8        1.0  0.34285  0.04730  0.20278  1.0000
  C   C9        1.0  0.65141  0.84956  0.88619  1.0000
  C   C10       1.0  0.34859  0.15045  0.11381  1.0000
  C   C11       1.0  0.77240  0.80146  0.93157  1.0000
  C   C12       1.0  0.22760  0.19853  0.06843  1.0000
  C   C13       1.0  0.86234  0.66489  0.06862  1.0000
  C   C14       1.0  0.13766  0.33511  0.93138  1.0000
  C   C15       1.0  0.99103  0.71293  0.02970  1.0000
  C   C16       1.0  0.00897  0.28707  0.97030  1.0000
  C   C17       1.0  0.01093  0.80672  0.93664  1.0000
  C   C18       1.0  0.98907  0.19328  0.06337  1.0000
  C   C19       1.0  0.90089  0.85396  0.88568  1.0000
  C   C20       1.0  0.09911  0.14604  0.11432  1.0000
  C   C21       1.0  0.90753  0.95420  0.79355  1.0000
  C   C22       1.0  0.09247  0.04580  0.20645  1.0000
  C   C23       1.0  0.78762  0.00254  0.75430  1.0000
  C   C24       1.0  0.21238  0.99746  0.24570  1.0000
  C   C25       1.0  0.97064  0.10364  0.65840  1.0000
  C   C26       1.0  0.02936  0.89636  0.34160  1.0000
  C   C27       1.0  0.05438  0.19268  0.57513  1.0000
  C   C28       1.0  0.94562  0.80732  0.42487  1.0000
  C   C29       1.0  0.18919  0.19896  0.58221  1.0000
  C   C30       1.0  0.81081  0.80104  0.41779  1.0000
  C   C31       1.0  0.27299  0.28217  0.50335  1.0000
  C   C32       1.0  0.72702  0.71783  0.49665  1.0000
  C   C33       1.0  0.22447  0.35979  0.41582  1.0000
  C   C34       1.0  0.77553  0.64021  0.58418  1.0000
  C   C35       1.0  0.09062  0.35390  0.40821  1.0000
  C   C36       1.0  0.90938  0.64610  0.59179  1.0000
  C   C37       1.0  0.00545  0.27159  0.48742  1.0000
  C   C38       1.0  0.99455  0.72842  0.51258  1.0000
  C   C39       1.0  0.49509  0.59094  0.34468  1.0000
  C   C40       1.0  0.50491  0.40906  0.65532  1.0000
  C   C41       1.0  0.46096  0.55951  0.48852  1.0000
  C   C42       1.0  0.53904  0.44049  0.51148  1.0000
  N   N1        1.0  0.75817  0.70733  0.02013  1.0000
  N   N2        1.0  0.24183  0.29267  0.97987  1.0000
  N   N3        1.0  0.53319  0.79466  0.93167  1.0000
  N   N4        1.0  0.46681  0.20534  0.06833  1.0000
  N   N5        1.0  0.83052  0.09707  0.66810  1.0000
  N   N6        1.0  0.16948  0.90293  0.33190  1.0000
  N   N7        1.0  0.02037  0.01697  0.73323  1.0000
  N   N8        1.0  0.97963  0.98303  0.26677  1.0000
  Cl  Cl1       1.0  0.71341  0.41533  0.86624  1.0000
  Cl  Cl2       1.0  0.28658  0.58467  0.13376  1.0000
  O   O1        1.0  0.42657  0.71190  0.33227  1.0000
  O   O2        1.0  0.57343  0.28810  0.66773  1.0000
  O   O3        1.0  0.59120  0.49796  0.23953  1.0000
  O   O4        1.0  0.40880  0.50203  0.76047  1.0000
