data_image0
_chemical_formula_structural       Zn4H6C9S4N12
_chemical_formula_sum              "Zn4 H6 C9 S4 N12"
_cell_length_a       8.31299
_cell_length_b       8.54885
_cell_length_c       8.54885
_cell_angle_alpha    110.023
_cell_angle_beta     108.913
_cell_angle_gamma    108.914

_space_group_name_H-M_alt    "P 1"
_space_group_IT_number       1

loop_
  _space_group_symop_operation_xyz
  'x, y, z'

loop_
  _atom_site_type_symbol
  _atom_site_label
  _atom_site_symmetry_multiplicity
  _atom_site_fract_x
  _atom_site_fract_y
  _atom_site_fract_z
  _atom_site_occupancy
  Zn  Zn1       1.0  0.37735  0.75595  1.00000  1.0000
  Zn  Zn2       1.0  0.62139  0.24404  0.24404  1.0000
  Zn  Zn3       1.0  0.37735  0.00000  0.75595  1.0000
  Zn  Zn4       1.0  0.88743  0.00001  0.00000  1.0000
  H   H1        1.0  0.55353  0.62191  0.30083  1.0000
  H   H2        1.0  0.93161  0.67891  0.37808  1.0000
  H   H3        1.0  0.25269  0.69916  0.32109  1.0000
  H   H4        1.0  0.93161  0.37808  0.67891  1.0000
  H   H5        1.0  0.55353  0.30083  0.62191  1.0000
  H   H6        1.0  0.25269  0.32109  0.69916  1.0000
  C   C1        1.0  0.87664  0.63130  0.00001  1.0000
  C   C2        1.0  0.24536  0.36872  0.36871  1.0000
  C   C3        1.0  0.87665  0.00000  0.63128  1.0000
  C   C4        1.0  0.48607  0.51316  0.15280  1.0000
  C   C5        1.0  0.97290  0.63963  0.48683  1.0000
  C   C6        1.0  0.33327  0.84720  0.36037  1.0000
  C   C7        1.0  0.97290  0.48683  0.63963  1.0000
  C   C8        1.0  0.48607  0.15280  0.51316  1.0000
  C   C9        1.0  0.33327  0.36037  0.84720  1.0000
  S   S1        1.0  0.87916  0.44314  1.00000  1.0000
  S   S2        1.0  0.43605  0.55688  0.55688  1.0000
  S   S3        1.0  0.87917  0.99999  0.44313  1.0000
  S   S4        1.0  0.60186  1.00000  1.00000  1.0000
  N   N1        1.0  0.87811  0.77040  0.00001  1.0000
  N   N2        1.0  0.10773  0.22963  0.22962  1.0000
  N   N3        1.0  0.87812  0.00001  0.77040  1.0000
  N   N4        1.0  0.39606  0.52896  1.00000  1.0000
  N   N5        1.0  0.86710  0.47103  0.47103  1.0000
  N   N6        1.0  0.39606  1.00000  0.52896  1.0000
  N   N7        1.0  0.47965  0.34492  0.09808  1.0000
  N   N8        1.0  0.13473  0.75316  0.65507  1.0000
  N   N9        1.0  0.38157  0.90191  0.24684  1.0000
  N   N10       1.0  0.13473  0.65507  0.75316  1.0000
  N   N11       1.0  0.47965  0.09808  0.34492  1.0000
  N   N12       1.0  0.38156  0.24684  0.90191  1.0000
