data_image0
_chemical_formula_structural       Cd4H48C40N8O32
_chemical_formula_sum              "Cd4 H48 C40 N8 O32"
_cell_length_a       7.55822
_cell_length_b       10.6811
_cell_length_c       17.8741
_cell_angle_alpha    90.0007
_cell_angle_beta     89.9986
_cell_angle_gamma    104.759

_space_group_name_H-M_alt    "P 1"
_space_group_IT_number       1

loop_
  _space_group_symop_operation_xyz
  'x, y, z'

loop_
  _atom_site_type_symbol
  _atom_site_label
  _atom_site_symmetry_multiplicity
  _atom_site_fract_x
  _atom_site_fract_y
  _atom_site_fract_z
  _atom_site_occupancy
  Cd  Cd1       1.0  0.90603  0.75641  0.96241  1.0000
  Cd  Cd2       1.0  0.59397  0.24358  0.46241  1.0000
  Cd  Cd3       1.0  0.09397  0.24359  0.03758  1.0000
  Cd  Cd4       1.0  0.40603  0.75641  0.53759  1.0000
  H   H1        1.0  0.78396  0.94061  0.05165  1.0000
  H   H2        1.0  0.71603  0.05940  0.55165  1.0000
  H   H3        1.0  0.21604  0.05939  0.94835  1.0000
  H   H4        1.0  0.28398  0.94060  0.44835  1.0000
  H   H5        1.0  0.59161  0.84945  0.01876  1.0000
  H   H6        1.0  0.90838  0.15054  0.51875  1.0000
  H   H7        1.0  0.40839  0.15055  0.98124  1.0000
  H   H8        1.0  0.09162  0.84946  0.48125  1.0000
  H   H9        1.0  0.13304  0.64047  0.86617  1.0000
  H   H10       1.0  0.36694  0.35952  0.36618  1.0000
  H   H11       1.0  0.86696  0.35953  0.13383  1.0000
  H   H12       1.0  0.63306  0.64048  0.63382  1.0000
  H   H13       1.0  0.22783  0.69966  0.94371  1.0000
  H   H14       1.0  0.27216  0.30032  0.44371  1.0000
  H   H15       1.0  0.77217  0.30034  0.05629  1.0000
  H   H16       1.0  0.72784  0.69968  0.55629  1.0000
  H   H17       1.0  0.75058  0.49314  0.97585  1.0000
  H   H18       1.0  0.74943  0.50686  0.47584  1.0000
  H   H19       1.0  0.24942  0.50686  0.02415  1.0000
  H   H20       1.0  0.25058  0.49314  0.52416  1.0000
  H   H21       1.0  0.31833  0.83713  0.32839  1.0000
  H   H22       1.0  0.18168  0.16285  0.82839  1.0000
  H   H23       1.0  0.68166  0.16287  0.67161  1.0000
  H   H24       1.0  0.81832  0.83715  0.17161  1.0000
  H   H25       1.0  0.60775  0.16086  0.19631  1.0000
  H   H26       1.0  0.89224  0.83912  0.69632  1.0000
  H   H27       1.0  0.39225  0.83914  0.80369  1.0000
  H   H28       1.0  0.10776  0.16087  0.30368  1.0000
  H   H29       1.0  0.49857  0.03788  0.07941  1.0000
  H   H30       1.0  0.00140  0.96209  0.57941  1.0000
  H   H31       1.0  0.50143  0.96212  0.92059  1.0000
  H   H32       1.0  0.99861  0.03791  0.42059  1.0000
  H   H33       1.0  0.59925  0.54825  0.87023  1.0000
  H   H34       1.0  0.90078  0.45174  0.37023  1.0000
  H   H35       1.0  0.40074  0.45175  0.12977  1.0000
  H   H36       1.0  0.09922  0.54826  0.62977  1.0000
  H   H37       1.0  0.49351  0.64315  0.92835  1.0000
  H   H38       1.0  0.00651  0.35684  0.42836  1.0000
  H   H39       1.0  0.50649  0.35685  0.07165  1.0000
  H   H40       1.0  0.99349  0.64316  0.57164  1.0000
  H   H41       1.0  0.57021  0.65206  0.06861  1.0000
  H   H42       1.0  0.92977  0.34795  0.56861  1.0000
  H   H43       1.0  0.42979  0.34794  0.93139  1.0000
  H   H44       1.0  0.07023  0.65205  0.43139  1.0000
  H   H45       1.0  0.72929  0.56601  0.09878  1.0000
  H   H46       1.0  0.77069  0.43400  0.59877  1.0000
  H   H47       1.0  0.27071  0.43399  0.90122  1.0000
  H   H48       1.0  0.22931  0.56600  0.40123  1.0000
  C   C1        1.0  0.25655  0.80702  0.06665  1.0000
  C   C2        1.0  0.24343  0.19295  0.56664  1.0000
  C   C3        1.0  0.74345  0.19298  0.93335  1.0000
  C   C4        1.0  0.75658  0.80705  0.43335  1.0000
  C   C5        1.0  0.34694  0.86786  0.13751  1.0000
  C   C6        1.0  0.15305  0.13212  0.63751  1.0000
  C   C7        1.0  0.65305  0.13215  0.86249  1.0000
  C   C8        1.0  0.84695  0.86787  0.36249  1.0000
  C   C9        1.0  0.30225  0.81296  0.20867  1.0000
  C   C10       1.0  0.19774  0.18702  0.70867  1.0000
  C   C11       1.0  0.69775  0.18704  0.79133  1.0000
  C   C12       1.0  0.80226  0.81299  0.29133  1.0000
  C   C13       1.0  0.35688  0.88225  0.27422  1.0000
  C   C14       1.0  0.14312  0.11773  0.77422  1.0000
  C   C15       1.0  0.64312  0.11775  0.72578  1.0000
  C   C16       1.0  0.85688  0.88227  0.22578  1.0000
  C   C17       1.0  0.46458  0.00958  0.26919  1.0000
  C   C18       1.0  0.03542  0.99040  0.76919  1.0000
  C   C19       1.0  0.53542  0.99042  0.73081  1.0000
  C   C20       1.0  0.96458  0.00960  0.23081  1.0000
  C   C21       1.0  0.52072  0.06256  0.19887  1.0000
  C   C22       1.0  0.97927  0.93741  0.69888  1.0000
  C   C23       1.0  0.47927  0.93744  0.80113  1.0000
  C   C24       1.0  0.02074  0.06259  0.30112  1.0000
  C   C25       1.0  0.46156  0.99300  0.13378  1.0000
  C   C26       1.0  0.03843  0.00698  0.63378  1.0000
  C   C27       1.0  0.53844  0.00700  0.86622  1.0000
  C   C28       1.0  0.96157  0.99302  0.36622  1.0000
  C   C29       1.0  0.51456  0.09236  0.33724  1.0000
  C   C30       1.0  0.98544  0.90763  0.83725  1.0000
  C   C31       1.0  0.48544  0.90764  0.66276  1.0000
  C   C32       1.0  0.01456  0.09237  0.16275  1.0000
  C   C33       1.0  0.54106  0.55425  0.92592  1.0000
  C   C34       1.0  0.95896  0.44574  0.42592  1.0000
  C   C35       1.0  0.45894  0.44575  0.07408  1.0000
  C   C36       1.0  0.04104  0.55426  0.57408  1.0000
  C   C37       1.0  0.61663  0.56384  0.05981  1.0000
  C   C38       1.0  0.88335  0.43615  0.55981  1.0000
  C   C39       1.0  0.38336  0.43616  0.94019  1.0000
  C   C40       1.0  0.11665  0.56384  0.44020  1.0000
  N   N1        1.0  0.19583  0.67780  0.21491  1.0000
  N   N2        1.0  0.30416  0.32218  0.71491  1.0000
  N   N3        1.0  0.80417  0.32220  0.78509  1.0000
  N   N4        1.0  0.69584  0.67782  0.28509  1.0000
  N   N5        1.0  0.68854  0.56736  0.98237  1.0000
  N   N6        1.0  0.81146  0.43263  0.48236  1.0000
  N   N7        1.0  0.31145  0.43263  0.01763  1.0000
  N   N8        1.0  0.18854  0.56737  0.51764  1.0000
  O   O1        1.0  0.08375  0.78370  0.06655  1.0000
  O   O2        1.0  0.41624  0.21629  0.56655  1.0000
  O   O3        1.0  0.91625  0.21629  0.93345  1.0000
  O   O4        1.0  0.58376  0.78371  0.43345  1.0000
  O   O5        1.0  0.35773  0.79115  0.01215  1.0000
  O   O6        1.0  0.14226  0.20882  0.51214  1.0000
  O   O7        1.0  0.64228  0.20885  0.98785  1.0000
  O   O8        1.0  0.85774  0.79118  0.48786  1.0000
  O   O9        1.0  0.63942  0.19706  0.33252  1.0000
  O   O10       1.0  0.86058  0.80292  0.83253  1.0000
  O   O11       1.0  0.36058  0.80294  0.66748  1.0000
  O   O12       1.0  0.13942  0.19708  0.16747  1.0000
  O   O13       1.0  0.42419  0.05794  0.39793  1.0000
  O   O14       1.0  0.07581  0.94205  0.89793  1.0000
  O   O15       1.0  0.57581  0.94206  0.60207  1.0000
  O   O16       1.0  0.92419  0.05795  0.10207  1.0000
  O   O17       1.0  0.10645  0.64427  0.27317  1.0000
  O   O18       1.0  0.39356  0.35571  0.77315  1.0000
  O   O19       1.0  0.89355  0.35573  0.72683  1.0000
  O   O20       1.0  0.60643  0.64429  0.22685  1.0000
  O   O21       1.0  0.20201  0.60359  0.16205  1.0000
  O   O22       1.0  0.29793  0.39640  0.66205  1.0000
  O   O23       1.0  0.79799  0.39641  0.83795  1.0000
  O   O24       1.0  0.70208  0.60361  0.33795  1.0000
  O   O25       1.0  0.72590  0.88080  0.01092  1.0000
  O   O26       1.0  0.77409  0.11920  0.51091  1.0000
  O   O27       1.0  0.27411  0.11920  0.98909  1.0000
  O   O28       1.0  0.22591  0.88080  0.48909  1.0000
  O   O29       1.0  0.12143  0.63573  0.92039  1.0000
  O   O30       1.0  0.37855  0.36426  0.42039  1.0000
  O   O31       1.0  0.87857  0.36427  0.07961  1.0000
  O   O32       1.0  0.62145  0.63574  0.57961  1.0000
