data_image0
_chemical_formula_structural       Cu2H56C58N16O6
_chemical_formula_sum              "Cu2 H56 C58 N16 O6"
_cell_length_a       11.2389
_cell_length_b       12.2946
_cell_length_c       12.983
_cell_angle_alpha    104.052
_cell_angle_beta     99.4202
_cell_angle_gamma    116.198

_space_group_name_H-M_alt    "P 1"
_space_group_IT_number       1

loop_
  _space_group_symop_operation_xyz
  'x, y, z'

loop_
  _atom_site_type_symbol
  _atom_site_label
  _atom_site_symmetry_multiplicity
  _atom_site_fract_x
  _atom_site_fract_y
  _atom_site_fract_z
  _atom_site_occupancy
  Cu  Cu1       1.0  0.37785  0.19961  0.47695  1.0000
  Cu  Cu2       1.0  0.62215  0.80039  0.52306  1.0000
  H   H1        1.0  0.31676  0.91204  0.37872  1.0000
  H   H2        1.0  0.68323  0.08795  0.62128  1.0000
  H   H3        1.0  0.32168  0.77568  0.52102  1.0000
  H   H4        1.0  0.67835  0.22434  0.47900  1.0000
  H   H5        1.0  0.34326  0.12577  0.69688  1.0000
  H   H6        1.0  0.65676  0.87425  0.30312  1.0000
  H   H7        1.0  0.40454  0.99932  0.80991  1.0000
  H   H8        1.0  0.59547  0.00069  0.19010  1.0000
  H   H9        1.0  0.38830  0.85052  0.73764  1.0000
  H   H10       1.0  0.61172  0.14950  0.26237  1.0000
  H   H11       1.0  0.27619  0.80439  0.89674  1.0000
  H   H12       1.0  0.72381  0.19561  0.10327  1.0000
  H   H13       1.0  0.05055  0.70367  0.93434  1.0000
  H   H14       1.0  0.94945  0.29633  0.06565  1.0000
  H   H15       1.0  0.85315  0.75483  0.65097  1.0000
  H   H16       1.0  0.14686  0.24517  0.34902  1.0000
  H   H17       1.0  0.07787  0.85506  0.61300  1.0000
  H   H18       1.0  0.92215  0.14494  0.38699  1.0000
  H   H19       1.0  0.81429  0.67745  0.90684  1.0000
  H   H20       1.0  0.18572  0.32255  0.09315  1.0000
  H   H21       1.0  0.73362  0.70165  0.79180  1.0000
  H   H22       1.0  0.26638  0.29835  0.20820  1.0000
  H   H23       1.0  0.76472  0.45072  0.88686  1.0000
  H   H24       1.0  0.23529  0.54930  0.11314  1.0000
  H   H25       1.0  0.60475  0.21376  0.70931  1.0000
  H   H26       1.0  0.39527  0.78625  0.29070  1.0000
  H   H27       1.0  0.62133  0.51289  0.59686  1.0000
  H   H28       1.0  0.37866  0.48711  0.40313  1.0000
  H   H29       1.0  0.10028  0.08936  0.54407  1.0000
  H   H30       1.0  0.89969  0.91063  0.45591  1.0000
  H   H31       1.0  0.00980  0.25404  0.64569  1.0000
  H   H32       1.0  0.99019  0.74596  0.35430  1.0000
  H   H33       1.0  0.40296  0.47845  0.60970  1.0000
  H   H34       1.0  0.59704  0.52153  0.39030  1.0000
  H   H35       1.0  0.30441  0.59949  0.71033  1.0000
  H   H36       1.0  0.69558  0.40050  0.28967  1.0000
  H   H37       1.0  0.16483  0.51644  0.76023  1.0000
  H   H38       1.0  0.83517  0.48356  0.23977  1.0000
  H   H39       1.0  0.24207  0.56410  0.49934  1.0000
  H   H40       1.0  0.75793  0.43590  0.50066  1.0000
  H   H41       1.0  0.92746  0.45638  0.66358  1.0000
  H   H42       1.0  0.07254  0.54363  0.33643  1.0000
  H   H43       1.0  0.76130  0.88940  0.01564  1.0000
  H   H44       1.0  0.23870  0.11060  0.98437  1.0000
  H   H45       1.0  0.79636  0.96719  0.85932  1.0000
  H   H46       1.0  0.20364  0.03281  0.14068  1.0000
  H   H47       1.0  0.86311  0.89318  0.20004  1.0000
  H   H48       1.0  0.13690  0.10684  0.79997  1.0000
  H   H49       1.0  0.04640  0.96563  0.25834  1.0000
  H   H50       1.0  0.95361  0.03436  0.74165  1.0000
  H   H51       1.0  0.15960  0.82461  0.19326  1.0000
  H   H52       1.0  0.84038  0.17537  0.80675  1.0000
  H   H53       1.0  0.72036  0.64904  0.08749  1.0000
  H   H54       1.0  0.27964  0.35097  0.91249  1.0000
  H   H55       1.0  0.03857  0.55502  0.10859  1.0000
  H   H56       1.0  0.96139  0.44495  0.89141  1.0000
  C   C1        1.0  0.31890  0.93349  0.46506  1.0000
  C   C2        1.0  0.68111  0.06651  0.53494  1.0000
  C   C3        1.0  0.32158  0.86586  0.53462  1.0000
  C   C4        1.0  0.67844  0.13415  0.46538  1.0000
  C   C5        1.0  0.33408  0.04875  0.62823  1.0000
  C   C6        1.0  0.66594  0.95127  0.37177  1.0000
  C   C7        1.0  0.33581  0.90788  0.73853  1.0000
  C   C8        1.0  0.66421  0.09213  0.26148  1.0000
  C   C9        1.0  0.19380  0.83961  0.75381  1.0000
  C   C10       1.0  0.80621  0.16040  0.24619  1.0000
  C   C11       1.0  0.18343  0.79410  0.84287  1.0000
  C   C12       1.0  0.81658  0.20591  0.15714  1.0000
  C   C13       1.0  0.05616  0.73666  0.86348  1.0000
  C   C14       1.0  0.94384  0.26334  0.13652  1.0000
  C   C15       1.0  0.93626  0.72299  0.79556  1.0000
  C   C16       1.0  0.06374  0.27701  0.20443  1.0000
  C   C17       1.0  0.94609  0.76594  0.70530  1.0000
  C   C18       1.0  0.05392  0.23406  0.29470  1.0000
  C   C19       1.0  0.07349  0.82347  0.68451  1.0000
  C   C20       1.0  0.92651  0.17653  0.31550  1.0000
  C   C21       1.0  0.79808  0.66130  0.81768  1.0000
  C   C22       1.0  0.20192  0.33871  0.18232  1.0000
  C   C23       1.0  0.71452  0.42661  0.79918  1.0000
  C   C24       1.0  0.28549  0.57339  0.20082  1.0000
  C   C25       1.0  0.63347  0.31077  0.71073  1.0000
  C   C26       1.0  0.36653  0.68924  0.28927  1.0000
  C   C27       1.0  0.63901  0.46024  0.64799  1.0000
  C   C28       1.0  0.36098  0.53976  0.35200  1.0000
  C   C29       1.0  0.14929  0.19409  0.57269  1.0000
  C   C30       1.0  0.85069  0.80590  0.42730  1.0000
  C   C31       1.0  0.10463  0.27382  0.62426  1.0000
  C   C32       1.0  0.89537  0.72618  0.37573  1.0000
  C   C33       1.0  0.31017  0.39259  0.60539  1.0000
  C   C34       1.0  0.68983  0.60740  0.39462  1.0000
  C   C35       1.0  0.19846  0.51591  0.68558  1.0000
  C   C36       1.0  0.80154  0.48409  0.31442  1.0000
  C   C37       1.0  0.09657  0.51332  0.59249  1.0000
  C   C38       1.0  0.90343  0.48668  0.40752  1.0000
  C   C39       1.0  0.13583  0.53685  0.49986  1.0000
  C   C40       1.0  0.86417  0.46315  0.50015  1.0000
  C   C41       1.0  0.95950  0.47582  0.59201  1.0000
  C   C42       1.0  0.04050  0.52419  0.40800  1.0000
  C   C43       1.0  0.43695  0.22960  0.31012  1.0000
  C   C44       1.0  0.56304  0.77040  0.68990  1.0000
  C   C45       1.0  0.86652  0.93834  0.00954  1.0000
  C   C46       1.0  0.13349  0.06165  0.99045  1.0000
  C   C47       1.0  0.88618  0.98247  0.92115  1.0000
  C   C48       1.0  0.11383  0.01752  0.07885  1.0000
  C   C49       1.0  0.97997  0.95554  0.08884  1.0000
  C   C50       1.0  0.02001  0.04444  0.91116  1.0000
  C   C51       1.0  0.95804  0.90199  0.18132  1.0000
  C   C52       1.0  0.04197  0.09801  0.81868  1.0000
  C   C53       1.0  0.05163  0.74696  0.15897  1.0000
  C   C54       1.0  0.94835  0.25302  0.84103  1.0000
  C   C55       1.0  0.82203  0.65633  0.10280  1.0000
  C   C56       1.0  0.17796  0.34367  0.89719  1.0000
  C   C57       1.0  0.98908  0.61357  0.11540  1.0000
  C   C58       1.0  0.01090  0.38642  0.88460  1.0000
  N   N1        1.0  0.32710  0.04751  0.52442  1.0000
  N   N2        1.0  0.67291  0.95249  0.47557  1.0000
  N   N3        1.0  0.33225  0.94044  0.63780  1.0000
  N   N4        1.0  0.66777  0.05957  0.36221  1.0000
  N   N5        1.0  0.71686  0.52058  0.75763  1.0000
  N   N6        1.0  0.28315  0.47943  0.24236  1.0000
  N   N7        1.0  0.58629  0.33239  0.61676  1.0000
  N   N8        1.0  0.41371  0.66762  0.38324  1.0000
  N   N9        1.0  0.27729  0.26920  0.56100  1.0000
  N   N10       1.0  0.72270  0.73080  0.43901  1.0000
  N   N11       1.0  0.20841  0.39869  0.64561  1.0000
  N   N12       1.0  0.79158  0.60130  0.35439  1.0000
  N   N13       1.0  0.94361  0.77288  0.15070  1.0000
  N   N14       1.0  0.05637  0.22711  0.84930  1.0000
  N   N15       1.0  0.84571  0.55768  0.08028  1.0000
  N   N16       1.0  0.15426  0.44232  0.91971  1.0000
  O   O1        1.0  0.39981  0.12088  0.33078  1.0000
  O   O2        1.0  0.60019  0.87912  0.66924  1.0000
  O   O3        1.0  0.43078  0.31823  0.38755  1.0000
  O   O4        1.0  0.56921  0.68176  0.61245  1.0000
  O   O5        1.0  0.47515  0.24752  0.22727  1.0000
  O   O6        1.0  0.52483  0.75246  0.77274  1.0000
