data_image0
_chemical_formula_structural       Cu2Mo2P4H24C22N4O18
_chemical_formula_sum              "Cu2 Mo2 P4 H24 C22 N4 O18"
_cell_length_a       8.08679
_cell_length_b       8.64382
_cell_length_c       11.8562
_cell_angle_alpha    82.1499
_cell_angle_beta     77.3248
_cell_angle_gamma    75.5319

_space_group_name_H-M_alt    "P 1"
_space_group_IT_number       1

loop_
  _space_group_symop_operation_xyz
  'x, y, z'

loop_
  _atom_site_type_symbol
  _atom_site_label
  _atom_site_symmetry_multiplicity
  _atom_site_fract_x
  _atom_site_fract_y
  _atom_site_fract_z
  _atom_site_occupancy
  Cu  Cu1       1.0  0.23645  0.91055  0.29889  1.0000
  Cu  Cu2       1.0  0.76354  0.08947  0.70109  1.0000
  Mo  Mo1       1.0  0.32787  0.27362  0.86222  1.0000
  Mo  Mo2       1.0  0.67212  0.72638  0.13780  1.0000
  P   P1        1.0  0.08489  0.67997  0.17138  1.0000
  P   P2        1.0  0.91510  0.32002  0.82862  1.0000
  P   P3        1.0  0.31295  0.90206  0.03172  1.0000
  P   P4        1.0  0.68703  0.09793  0.96829  1.0000
  H   H1        1.0  0.38629  0.19922  0.18621  1.0000
  H   H2        1.0  0.61373  0.80079  0.81377  1.0000
  H   H3        1.0  0.45627  0.42716  0.26201  1.0000
  H   H4        1.0  0.54374  0.57282  0.73801  1.0000
  H   H5        1.0  0.41044  0.43434  0.47885  1.0000
  H   H6        1.0  0.58958  0.56564  0.52115  1.0000
  H   H7        1.0  0.29897  0.21633  0.60909  1.0000
  H   H8        1.0  0.70103  0.78365  0.39090  1.0000
  H   H9        1.0  0.21423  0.01424  0.70723  1.0000
  H   H10       1.0  0.78575  0.98576  0.29276  1.0000
  H   H11       1.0  0.11652  0.76707  0.80104  1.0000
  H   H12       1.0  0.88348  0.23294  0.19896  1.0000
  H   H13       1.0  0.06337  0.57903  0.67937  1.0000
  H   H14       1.0  0.93662  0.42099  0.32063  1.0000
  H   H15       1.0  0.11581  0.64505  0.45954  1.0000
  H   H16       1.0  0.88419  0.35494  0.54047  1.0000
  H   H17       1.0  0.04587  0.86313  0.00281  1.0000
  H   H18       1.0  0.95413  0.13689  0.99720  1.0000
  H   H19       1.0  0.21729  0.69235  0.96916  1.0000
  H   H20       1.0  0.78271  0.30766  0.03083  1.0000
  H   H21       1.0  0.18037  0.18944  0.08567  1.0000
  H   H22       1.0  0.81961  0.81056  0.91433  1.0000
  H   H23       1.0  0.14488  0.38506  0.08229  1.0000
  H   H24       1.0  0.85513  0.61496  0.91771  1.0000
  C   C1        1.0  0.36738  0.20896  0.27890  1.0000
  C   C2        1.0  0.63263  0.79105  0.72109  1.0000
  C   C3        1.0  0.40686  0.33487  0.32218  1.0000
  C   C4        1.0  0.59316  0.66513  0.67783  1.0000
  C   C5        1.0  0.38121  0.33795  0.44187  1.0000
  C   C6        1.0  0.61880  0.66204  0.55812  1.0000
  C   C7        1.0  0.31834  0.21637  0.51533  1.0000
  C   C8        1.0  0.68168  0.78362  0.48466  1.0000
  C   C9        1.0  0.28229  0.09373  0.46637  1.0000
  C   C10       1.0  0.71770  0.90627  0.53364  1.0000
  C   C11       1.0  0.22051  0.95632  0.53379  1.0000
  C   C12       1.0  0.77948  0.04367  0.46622  1.0000
  C   C13       1.0  0.19319  0.92949  0.65477  1.0000
  C   C14       1.0  0.80679  0.07051  0.34523  1.0000
  C   C15       1.0  0.13792  0.79197  0.70722  1.0000
  C   C16       1.0  0.86206  0.20804  0.29277  1.0000
  C   C17       1.0  0.11024  0.68499  0.63899  1.0000
  C   C18       1.0  0.88974  0.31502  0.36101  1.0000
  C   C19       1.0  0.13750  0.72004  0.51922  1.0000
  C   C20       1.0  0.86248  0.27995  0.48079  1.0000
  C   C21       1.0  0.15989  0.78320  0.03174  1.0000
  C   C22       1.0  0.84012  0.21682  0.96827  1.0000
  N   N1        1.0  0.30531  0.09311  0.34941  1.0000
  N   N2        1.0  0.69471  0.90692  0.65060  1.0000
  N   N3        1.0  0.19142  0.85209  0.46876  1.0000
  N   N4        1.0  0.80856  0.14790  0.53126  1.0000
  O   O1        1.0  0.24704  0.00280  0.13831  1.0000
  O   O2        1.0  0.75297  0.99722  0.86169  1.0000
  O   O3        1.0  0.47419  0.22209  0.73535  1.0000
  O   O4        1.0  0.52586  0.77789  0.26466  1.0000
  O   O5        1.0  0.32562  0.01255  0.91993  1.0000
  O   O6        1.0  0.67442  0.98740  0.08005  1.0000
  O   O7        1.0  0.48731  0.77730  0.04032  1.0000
  O   O8        1.0  0.51268  0.22272  0.95967  1.0000
  O   O9        1.0  0.29601  0.47720  0.85570  1.0000
  O   O10       1.0  0.70396  0.52280  0.14430  1.0000
  O   O11       1.0  0.87829  0.74067  0.19437  1.0000
  O   O12       1.0  0.12172  0.25930  0.80562  1.0000
  O   O13       1.0  0.15263  0.29093  0.03509  1.0000
  O   O14       1.0  0.84737  0.70907  0.96491  1.0000
  O   O15       1.0  0.14637  0.73366  0.27006  1.0000
  O   O16       1.0  0.85359  0.26633  0.72995  1.0000
  O   O17       1.0  0.13766  0.50096  0.16600  1.0000
  O   O18       1.0  0.86235  0.49908  0.83399  1.0000
