data_image0
_chemical_formula_structural       MnCuH16C12N16
_chemical_formula_sum              "Mn1 Cu1 H16 C12 N16"
_cell_length_a       7.07915
_cell_length_b       7.67627
_cell_length_c       10.4937
_cell_angle_alpha    97.4732
_cell_angle_beta     102.612
_cell_angle_gamma    115.915

_space_group_name_H-M_alt    "P 1"
_space_group_IT_number       1

loop_
  _space_group_symop_operation_xyz
  'x, y, z'

loop_
  _atom_site_type_symbol
  _atom_site_label
  _atom_site_symmetry_multiplicity
  _atom_site_fract_x
  _atom_site_fract_y
  _atom_site_fract_z
  _atom_site_occupancy
  Mn  Mn1       1.0  0.00000  0.50000  1.00000  1.0000
  Cu  Cu1       1.0  0.50000  0.50000  0.50000  1.0000
  H   H1        1.0  0.18387  0.37780  0.28042  1.0000
  H   H2        1.0  0.81613  0.62220  0.71958  1.0000
  H   H3        1.0  0.10735  0.21413  0.37159  1.0000
  H   H4        1.0  0.89265  0.78587  0.62841  1.0000
  H   H5        1.0  0.74694  0.36014  0.43764  1.0000
  H   H6        1.0  0.25306  0.63985  0.56236  1.0000
  H   H7        1.0  0.81665  0.57488  0.39729  1.0000
  H   H8        1.0  0.18335  0.42512  0.60271  1.0000
  H   H9        1.0  0.19549  0.10104  0.15960  1.0000
  H   H10       1.0  0.80451  0.89896  0.84040  1.0000
  H   H11       1.0  0.32320  0.07247  0.31436  1.0000
  H   H12       1.0  0.67680  0.92753  0.68564  1.0000
  H   H13       1.0  0.52126  0.43532  0.19745  1.0000
  H   H14       1.0  0.47874  0.56468  0.80255  1.0000
  H   H15       1.0  0.60728  0.25177  0.20107  1.0000
  H   H16       1.0  0.39272  0.74823  0.79893  1.0000
  C   C1        1.0  0.39239  0.74348  0.29527  1.0000
  C   C2        1.0  0.60761  0.25652  0.70473  1.0000
  C   C3        1.0  0.72689  0.00936  0.43353  1.0000
  C   C4        1.0  0.27311  0.99064  0.56647  1.0000
  C   C5        1.0  0.78341  0.06554  0.08681  1.0000
  C   C6        1.0  0.21659  0.93446  0.91319  1.0000
  C   C7        1.0  0.76552  0.75858  0.08548  1.0000
  C   C8        1.0  0.23448  0.24143  0.91452  1.0000
  C   C9        1.0  0.31244  0.18365  0.26136  1.0000
  C   C10       1.0  0.68756  0.81635  0.73865  1.0000
  C   C11       1.0  0.53703  0.32925  0.25405  1.0000
  C   C12       1.0  0.46297  0.67075  0.74595  1.0000
  N   N1        1.0  0.22560  0.64238  0.20677  1.0000
  N   N2        1.0  0.77439  0.35761  0.79323  1.0000
  N   N3        1.0  0.56419  0.82898  0.40152  1.0000
  N   N4        1.0  0.43580  0.17102  0.59848  1.0000
  N   N5        1.0  0.88199  0.17162  0.47521  1.0000
  N   N6        1.0  0.11800  0.82837  0.52479  1.0000
  N   N7        1.0  0.82465  0.21930  0.05828  1.0000
  N   N8        1.0  0.17535  0.78071  0.94172  1.0000
  N   N9        1.0  0.73373  0.90569  0.12979  1.0000
  N   N10       1.0  0.26628  0.09432  0.87021  1.0000
  N   N11       1.0  0.78813  0.61762  0.05268  1.0000
  N   N12       1.0  0.21187  0.38239  0.94731  1.0000
  N   N13       1.0  0.23693  0.30087  0.33925  1.0000
  N   N14       1.0  0.76307  0.69913  0.66075  1.0000
  N   N15       1.0  0.68296  0.44334  0.39367  1.0000
  N   N16       1.0  0.31704  0.55666  0.60633  1.0000
