data_image0
_chemical_formula_structural       Na4H44Pd2C40N4O16
_chemical_formula_sum              "Na4 H44 Pd2 C40 N4 O16"
_cell_length_a       10.7389
_cell_length_b       10.7076
_cell_length_c       12.7344
_cell_angle_alpha    110.765
_cell_angle_beta     114.272
_cell_angle_gamma    95.5619

_space_group_name_H-M_alt    "P 1"
_space_group_IT_number       1

loop_
  _space_group_symop_operation_xyz
  'x, y, z'

loop_
  _atom_site_type_symbol
  _atom_site_label
  _atom_site_symmetry_multiplicity
  _atom_site_fract_x
  _atom_site_fract_y
  _atom_site_fract_z
  _atom_site_occupancy
  Na  Na1       1.0  0.05435  0.95000  0.13442  1.0000
  Na  Na2       1.0  0.31566  0.91837  0.36375  1.0000
  Na  Na3       1.0  0.94566  0.05002  0.86559  1.0000
  Na  Na4       1.0  0.68432  0.08166  0.63626  1.0000
  H   H1        1.0  0.87688  0.11621  0.50686  1.0000
  H   H2        1.0  0.10918  0.36998  0.99356  1.0000
  H   H3        1.0  0.12310  0.88377  0.49315  1.0000
  H   H4        1.0  0.89085  0.63004  0.00646  1.0000
  H   H5        1.0  0.88399  0.87809  0.48942  1.0000
  H   H6        1.0  0.88910  0.39523  0.01057  1.0000
  H   H7        1.0  0.11601  0.12190  0.51058  1.0000
  H   H8        1.0  0.11093  0.60481  0.98944  1.0000
  H   H9        1.0  0.69171  0.67058  0.30127  1.0000
  H   H10       1.0  0.87010  0.39089  0.19792  1.0000
  H   H11       1.0  0.30831  0.32940  0.69871  1.0000
  H   H12       1.0  0.12989  0.60912  0.80208  1.0000
  H   H13       1.0  0.69598  0.20449  0.26521  1.0000
  H   H14       1.0  0.43863  0.43067  0.23520  1.0000
  H   H15       1.0  0.30400  0.79549  0.73478  1.0000
  H   H16       1.0  0.56138  0.56933  0.76480  1.0000
  H   H17       1.0  0.76341  0.26764  0.43413  1.0000
  H   H18       1.0  0.33256  0.32761  0.06623  1.0000
  H   H19       1.0  0.23656  0.73234  0.56586  1.0000
  H   H20       1.0  0.66743  0.67236  0.93377  1.0000
  H   H21       1.0  0.57687  0.20601  0.32767  1.0000
  H   H22       1.0  0.37778  0.24826  0.17315  1.0000
  H   H23       1.0  0.42310  0.79396  0.67232  1.0000
  H   H24       1.0  0.62224  0.75174  0.82689  1.0000
  H   H25       1.0  0.48360  0.56883  0.10135  1.0000
  H   H26       1.0  0.96886  0.38267  0.39750  1.0000
  H   H27       1.0  0.51639  0.43115  0.89866  1.0000
  H   H28       1.0  0.03115  0.61734  0.60251  1.0000
  H   H29       1.0  0.44525  0.66672  0.00956  1.0000
  H   H30       1.0  0.15879  0.43638  0.48927  1.0000
  H   H31       1.0  0.55478  0.33324  0.99043  1.0000
  H   H32       1.0  0.84122  0.56363  0.51073  1.0000
  H   H33       1.0  0.35792  0.66583  0.10086  1.0000
  H   H34       1.0  0.06577  0.25680  0.39800  1.0000
  H   H35       1.0  0.64208  0.33419  0.89912  1.0000
  H   H36       1.0  0.93422  0.74321  0.60202  1.0000
  H   H37       1.0  0.87405  0.85827  0.25165  1.0000
  H   H38       1.0  0.10647  0.62097  0.24851  1.0000
  H   H39       1.0  0.12592  0.14173  0.74833  1.0000
  H   H40       1.0  0.89351  0.37903  0.75147  1.0000
  H   H41       1.0  0.81481  0.91566  0.15022  1.0000
  H   H42       1.0  0.26569  0.66384  0.34985  1.0000
  H   H43       1.0  0.18518  0.08433  0.84976  1.0000
  H   H44       1.0  0.73429  0.33617  0.65013  1.0000
  Pd  Pd1       1.0  0.49999  0.99997  0.99998  1.0000
  Pd  Pd2       1.0  0.50000  0.50002  0.50001  1.0000
  C   C1        1.0  0.23673  0.96121  0.99802  1.0000
  C   C2        1.0  0.46226  0.23833  0.50244  1.0000
  C   C3        1.0  0.76328  0.03879  0.00198  1.0000
  C   C4        1.0  0.53774  0.76170  0.49758  1.0000
  C   C5        1.0  0.33241  0.92583  0.10531  1.0000
  C   C6        1.0  0.31974  0.22602  0.39433  1.0000
  C   C7        1.0  0.66760  0.07416  0.89468  1.0000
  C   C8        1.0  0.68028  0.77399  0.60567  1.0000
  C   C9        1.0  0.57472  0.92606  0.22375  1.0000
  C   C10       1.0  0.20215  0.34990  0.27545  1.0000
  C   C11       1.0  0.42528  0.07391  0.77623  1.0000
  C   C12       1.0  0.79785  0.65012  0.72456  1.0000
  C   C13       1.0  0.68344  0.04469  0.32934  1.0000
  C   C14       1.0  0.21494  0.35315  0.17035  1.0000
  C   C15       1.0  0.31655  0.95530  0.67065  1.0000
  C   C16       1.0  0.78507  0.64686  0.82967  1.0000
  C   C17       1.0  0.79430  0.02483  0.42377  1.0000
  C   C18       1.0  0.10089  0.37013  0.07615  1.0000
  C   C19       1.0  0.20569  0.97516  0.57623  1.0000
  C   C20       1.0  0.89913  0.62989  0.92386  1.0000
  C   C21       1.0  0.79822  0.89123  0.41380  1.0000
  C   C22       1.0  0.97760  0.38440  0.08588  1.0000
  C   C23       1.0  0.20178  0.10876  0.58619  1.0000
  C   C24       1.0  0.02241  0.61562  0.91413  1.0000
  C   C25       1.0  0.68984  0.77514  0.30874  1.0000
  C   C26       1.0  0.96678  0.38098  0.19047  1.0000
  C   C27       1.0  0.31016  0.22484  0.69125  1.0000
  C   C28       1.0  0.03322  0.61903  0.80953  1.0000
  C   C29       1.0  0.57656  0.79045  0.21254  1.0000
  C   C30       1.0  0.07814  0.36344  0.28644  1.0000
  C   C31       1.0  0.42345  0.20954  0.78745  1.0000
  C   C32       1.0  0.92185  0.63657  0.71357  1.0000
  C   C33       1.0  0.68020  0.18856  0.34024  1.0000
  C   C34       1.0  0.34767  0.33894  0.16004  1.0000
  C   C35       1.0  0.31978  0.81142  0.65975  1.0000
  C   C36       1.0  0.65234  0.66106  0.83998  1.0000
  C   C37       1.0  0.45991  0.66570  0.10001  1.0000
  C   C38       1.0  0.06671  0.35998  0.39888  1.0000
  C   C39       1.0  0.54010  0.33428  0.89999  1.0000
  C   C40       1.0  0.93329  0.64003  0.60112  1.0000
  N   N1        1.0  0.46618  0.94573  0.12506  1.0000
  N   N2        1.0  0.32041  0.34003  0.37421  1.0000
  N   N3        1.0  0.53382  0.05425  0.87492  1.0000
  N   N4        1.0  0.67959  0.65999  0.62581  1.0000
  O   O1        1.0  0.29169  0.99267  0.93331  1.0000
  O   O2        1.0  0.55904  0.35843  0.56686  1.0000
  O   O3        1.0  0.70830  0.00729  0.06665  1.0000
  O   O4        1.0  0.44096  0.64160  0.43316  1.0000
  O   O5        1.0  0.11406  0.96323  0.97898  1.0000
  O   O6        1.0  0.48266  0.13490  0.52246  1.0000
  O   O7        1.0  0.88596  0.03680  0.02104  1.0000
  O   O8        1.0  0.51734  0.86513  0.47758  1.0000
  O   O9        1.0  0.28119  0.88778  0.16568  1.0000
  O   O10       1.0  0.22097  0.11392  0.33384  1.0000
  O   O11       1.0  0.71882  0.11220  0.83432  1.0000
  O   O12       1.0  0.77906  0.88608  0.66614  1.0000
  O   O13       1.0  0.88527  0.86732  0.18227  1.0000
  O   O14       1.0  0.18531  0.70223  0.31775  1.0000
  O   O15       1.0  0.11473  0.13269  0.81773  1.0000
  O   O16       1.0  0.81467  0.29777  0.68222  1.0000
