data_image0
_chemical_formula_structural       Bi4H60C56O4
_chemical_formula_sum              "Bi4 H60 C56 O4"
_cell_length_a       8.32041
_cell_length_b       10.3619
_cell_length_c       14.9207
_cell_angle_alpha    90
_cell_angle_beta     90
_cell_angle_gamma    90

_space_group_name_H-M_alt    "P 1"
_space_group_IT_number       1

loop_
  _space_group_symop_operation_xyz
  'x, y, z'

loop_
  _atom_site_type_symbol
  _atom_site_label
  _atom_site_symmetry_multiplicity
  _atom_site_fract_x
  _atom_site_fract_y
  _atom_site_fract_z
  _atom_site_occupancy
  Bi  Bi1       1.0  0.38232  0.24783  0.99470  1.0000
  Bi  Bi2       1.0  0.11768  0.75217  0.49470  1.0000
  Bi  Bi3       1.0  0.88232  0.25217  0.00530  1.0000
  Bi  Bi4       1.0  0.61768  0.74783  0.50530  1.0000
  H   H1        1.0  0.73927  0.24386  0.19051  1.0000
  H   H2        1.0  0.76073  0.75614  0.69052  1.0000
  H   H3        1.0  0.23927  0.25614  0.80948  1.0000
  H   H4        1.0  0.26073  0.74386  0.30948  1.0000
  H   H5        1.0  0.52884  0.26502  0.19794  1.0000
  H   H6        1.0  0.97115  0.73498  0.69794  1.0000
  H   H7        1.0  0.02884  0.23498  0.80206  1.0000
  H   H8        1.0  0.47116  0.76502  0.30206  1.0000
  H   H9        1.0  0.77013  0.48357  0.15866  1.0000
  H   H10       1.0  0.72987  0.51643  0.65866  1.0000
  H   H11       1.0  0.27013  0.01643  0.84134  1.0000
  H   H12       1.0  0.22987  0.98357  0.34134  1.0000
  H   H13       1.0  0.68296  0.44975  0.26515  1.0000
  H   H14       1.0  0.81704  0.55025  0.76516  1.0000
  H   H15       1.0  0.18296  0.05025  0.73484  1.0000
  H   H16       1.0  0.31704  0.94975  0.23484  1.0000
  H   H17       1.0  0.55907  0.50234  0.17509  1.0000
  H   H18       1.0  0.94093  0.49766  0.67509  1.0000
  H   H19       1.0  0.05907  0.99766  0.82491  1.0000
  H   H20       1.0  0.44093  0.00234  0.32491  1.0000
  H   H21       1.0  0.63093  0.05000  0.09156  1.0000
  H   H22       1.0  0.86906  0.95000  0.59156  1.0000
  H   H23       1.0  0.13093  0.45000  0.90844  1.0000
  H   H24       1.0  0.36906  0.55000  0.40844  1.0000
  H   H25       1.0  0.64356  0.81964  0.13546  1.0000
  H   H26       1.0  0.85643  0.18036  0.63546  1.0000
  H   H27       1.0  0.14357  0.68036  0.86454  1.0000
  H   H28       1.0  0.35643  0.31964  0.36454  1.0000
  H   H29       1.0  0.40664  0.67775  0.11466  1.0000
  H   H30       1.0  0.09337  0.32224  0.61466  1.0000
  H   H31       1.0  0.90664  0.82224  0.88534  1.0000
  H   H32       1.0  0.59337  0.17776  0.38534  1.0000
  H   H33       1.0  0.15369  0.76735  0.04844  1.0000
  H   H34       1.0  0.34631  0.23265  0.54845  1.0000
  H   H35       1.0  0.65369  0.73265  0.95156  1.0000
  H   H36       1.0  0.84631  0.26735  0.45156  1.0000
  H   H37       1.0  0.14241  0.99745  0.00235  1.0000
  H   H38       1.0  0.35759  0.00255  0.50235  1.0000
  H   H39       1.0  0.64241  0.50255  0.99765  1.0000
  H   H40       1.0  0.85759  0.49746  0.49765  1.0000
  H   H41       1.0  0.25989  0.51909  0.06785  1.0000
  H   H42       1.0  0.24010  0.48091  0.56785  1.0000
  H   H43       1.0  0.75990  0.98091  0.93215  1.0000
  H   H44       1.0  0.74010  0.01909  0.43215  1.0000
  H   H45       1.0  0.12561  0.61433  0.19998  1.0000
  H   H46       1.0  0.37440  0.38567  0.69998  1.0000
  H   H47       1.0  0.62561  0.88567  0.80002  1.0000
  H   H48       1.0  0.87439  0.11433  0.30002  1.0000
  H   H49       1.0  0.02716  0.47289  0.32332  1.0000
  H   H50       1.0  0.47285  0.52711  0.82332  1.0000
  H   H51       1.0  0.52716  0.02711  0.67668  1.0000
  H   H52       1.0  0.97285  0.97289  0.17668  1.0000
  H   H53       1.0  0.07657  0.23614  0.31651  1.0000
  H   H54       1.0  0.42343  0.76386  0.81651  1.0000
  H   H55       1.0  0.57657  0.26386  0.68349  1.0000
  H   H56       1.0  0.92343  0.73614  0.18349  1.0000
  H   H57       1.0  0.21619  0.14024  0.18575  1.0000
  H   H58       1.0  0.28380  0.85976  0.68575  1.0000
  H   H59       1.0  0.71619  0.35976  0.81425  1.0000
  H   H60       1.0  0.78381  0.64024  0.31425  1.0000
  C   C1        1.0  0.63796  0.30328  0.16560  1.0000
  C   C2        1.0  0.86204  0.69672  0.66560  1.0000
  C   C3        1.0  0.13796  0.19671  0.83440  1.0000
  C   C4        1.0  0.36204  0.80328  0.33440  1.0000
  C   C5        1.0  0.66416  0.44319  0.19247  1.0000
  C   C6        1.0  0.83583  0.55681  0.69247  1.0000
  C   C7        1.0  0.16417  0.05681  0.80753  1.0000
  C   C8        1.0  0.33584  0.94319  0.30753  1.0000
  C   C9        1.0  0.38599  0.03932  0.04356  1.0000
  C   C10       1.0  0.11400  0.96068  0.54356  1.0000
  C   C11       1.0  0.88599  0.46068  0.95644  1.0000
  C   C12       1.0  0.61401  0.53932  0.45644  1.0000
  C   C13       1.0  0.52650  0.98806  0.08103  1.0000
  C   C14       1.0  0.97350  0.01194  0.58103  1.0000
  C   C15       1.0  0.02650  0.51195  0.91897  1.0000
  C   C16       1.0  0.47350  0.48806  0.41897  1.0000
  C   C17       1.0  0.53389  0.85824  0.10589  1.0000
  C   C18       1.0  0.96611  0.14176  0.60589  1.0000
  C   C19       1.0  0.03389  0.64176  0.89411  1.0000
  C   C20       1.0  0.46611  0.35824  0.39411  1.0000
  C   C21       1.0  0.40017  0.77863  0.09428  1.0000
  C   C22       1.0  0.09983  0.22137  0.59428  1.0000
  C   C23       1.0  0.90018  0.72137  0.90572  1.0000
  C   C24       1.0  0.59983  0.27863  0.40572  1.0000
  C   C25       1.0  0.25871  0.82904  0.05800  1.0000
  C   C26       1.0  0.24129  0.17096  0.55800  1.0000
  C   C27       1.0  0.75871  0.67096  0.94200  1.0000
  C   C28       1.0  0.74129  0.32904  0.44200  1.0000
  C   C29       1.0  0.25201  0.95891  0.03239  1.0000
  C   C30       1.0  0.24799  0.04108  0.53238  1.0000
  C   C31       1.0  0.75201  0.54109  0.96761  1.0000
  C   C32       1.0  0.74799  0.45892  0.46762  1.0000
  C   C33       1.0  0.24812  0.32271  0.11731  1.0000
  C   C34       1.0  0.25188  0.67729  0.61730  1.0000
  C   C35       1.0  0.74812  0.17729  0.88269  1.0000
  C   C36       1.0  0.75188  0.82271  0.38270  1.0000
  C   C37       1.0  0.22125  0.45601  0.12240  1.0000
  C   C38       1.0  0.27876  0.54399  0.62240  1.0000
  C   C39       1.0  0.72125  0.04399  0.87760  1.0000
  C   C40       1.0  0.77876  0.95601  0.37760  1.0000
  C   C41       1.0  0.14326  0.51021  0.19634  1.0000
  C   C42       1.0  0.35674  0.48978  0.69634  1.0000
  C   C43       1.0  0.64326  0.98978  0.80366  1.0000
  C   C44       1.0  0.85674  0.01022  0.30366  1.0000
  C   C45       1.0  0.08919  0.43112  0.26582  1.0000
  C   C46       1.0  0.41081  0.56887  0.76581  1.0000
  C   C47       1.0  0.58919  0.06888  0.73419  1.0000
  C   C48       1.0  0.91082  0.93112  0.23419  1.0000
  C   C49       1.0  0.11566  0.29801  0.26150  1.0000
  C   C50       1.0  0.38434  0.70199  0.76150  1.0000
  C   C51       1.0  0.61566  0.20199  0.73850  1.0000
  C   C52       1.0  0.88434  0.79801  0.23850  1.0000
  C   C53       1.0  0.19514  0.24414  0.18784  1.0000
  C   C54       1.0  0.30486  0.75586  0.68784  1.0000
  C   C55       1.0  0.69514  0.25586  0.81216  1.0000
  C   C56       1.0  0.80486  0.74414  0.31216  1.0000
  O   O1        1.0  0.62516  0.28815  0.07033  1.0000
  O   O2        1.0  0.87484  0.71185  0.57033  1.0000
  O   O3        1.0  0.12516  0.21185  0.92967  1.0000
  O   O4        1.0  0.37484  0.78815  0.42967  1.0000
