data_image0
_chemical_formula_structural       CoH22C30N6O6
_chemical_formula_sum              "Co1 H22 C30 N6 O6"
_cell_length_a       7.38841
_cell_length_b       8.62971
_cell_length_c       9.90051
_cell_angle_alpha    76.4106
_cell_angle_beta     92.2092
_cell_angle_gamma    87.1446

_space_group_name_H-M_alt    "P 1"
_space_group_IT_number       1

loop_
  _space_group_symop_operation_xyz
  'x, y, z'

loop_
  _atom_site_type_symbol
  _atom_site_label
  _atom_site_symmetry_multiplicity
  _atom_site_fract_x
  _atom_site_fract_y
  _atom_site_fract_z
  _atom_site_occupancy
  Co  Co1       1.0  0.50000  0.50000  0.00000  1.0000
  H   H1        1.0  0.73566  0.25627  0.62272  1.0000
  H   H2        1.0  0.26434  0.74373  0.37728  1.0000
  H   H3        1.0  0.00814  0.85786  0.24878  1.0000
  H   H4        1.0  0.99185  0.14215  0.75122  1.0000
  H   H5        1.0  0.18662  0.89505  0.83439  1.0000
  H   H6        1.0  0.81338  0.10496  0.16561  1.0000
  H   H7        1.0  0.63497  0.75267  0.12381  1.0000
  H   H8        1.0  0.36503  0.24732  0.87620  1.0000
  H   H9        1.0  0.74446  0.77352  0.36014  1.0000
  H   H10       1.0  0.25554  0.22648  0.63986  1.0000
  H   H11       1.0  0.78620  0.52236  0.55216  1.0000
  H   H12       1.0  0.21380  0.47763  0.44784  1.0000
  H   H13       1.0  0.62929  0.25999  0.25105  1.0000
  H   H14       1.0  0.37071  0.74001  0.74895  1.0000
  H   H15       1.0  0.90988  0.77771  0.59547  1.0000
  H   H16       1.0  0.09011  0.22228  0.40452  1.0000
  H   H17       1.0  0.53727  0.10157  0.73365  1.0000
  H   H18       1.0  0.46273  0.89843  0.26635  1.0000
  H   H19       1.0  0.48952  0.88341  0.93857  1.0000
  H   H20       1.0  0.51049  0.11659  0.06144  1.0000
  H   H21       1.0  0.85024  0.57156  0.80968  1.0000
  H   H22       1.0  0.14975  0.42844  0.19032  1.0000
  C   C1        1.0  0.00429  0.92045  0.13962  1.0000
  C   C2        1.0  0.99570  0.07955  0.86038  1.0000
  C   C3        1.0  0.10636  0.94094  0.90767  1.0000
  C   C4        1.0  0.89364  0.05906  0.09233  1.0000
  C   C5        1.0  0.11243  0.86008  0.04837  1.0000
  C   C6        1.0  0.88757  0.13993  0.95163  1.0000
  C   C7        1.0  0.23723  0.71465  0.10337  1.0000
  C   C8        1.0  0.76277  0.28535  0.89663  1.0000
  C   C9        1.0  0.65728  0.64695  0.20849  1.0000
  C   C10       1.0  0.34272  0.35305  0.79151  1.0000
  C   C11       1.0  0.71970  0.65703  0.34033  1.0000
  C   C12       1.0  0.28031  0.34297  0.65967  1.0000
  C   C13       1.0  0.74502  0.51895  0.44612  1.0000
  C   C14       1.0  0.25498  0.48105  0.55389  1.0000
  C   C15       1.0  0.71320  0.37184  0.41498  1.0000
  C   C16       1.0  0.28680  0.62816  0.58502  1.0000
  C   C17       1.0  0.65358  0.37128  0.27899  1.0000
  C   C18       1.0  0.34642  0.62872  0.72102  1.0000
  C   C19       1.0  0.72623  0.95661  0.64582  1.0000
  C   C20       1.0  0.27377  0.04339  0.35418  1.0000
  C   C21       1.0  0.81556  0.80519  0.66955  1.0000
  C   C22       1.0  0.18444  0.19481  0.33045  1.0000
  C   C23       1.0  0.61084  0.98635  0.74660  1.0000
  C   C24       1.0  0.38916  0.01365  0.25339  1.0000
  C   C25       1.0  0.58556  0.86432  0.86242  1.0000
  C   C26       1.0  0.41444  0.13569  0.13758  1.0000
  C   C27       1.0  0.78386  0.69059  0.78966  1.0000
  C   C28       1.0  0.21614  0.30940  0.21034  1.0000
  C   C29       1.0  0.74668  0.07827  0.51297  1.0000
  C   C30       1.0  0.25333  0.92173  0.48704  1.0000
  N   N1        1.0  0.66630  0.71669  0.88388  1.0000
  N   N2        1.0  0.33370  0.28331  0.11612  1.0000
  N   N3        1.0  0.73029  0.23365  0.52367  1.0000
  N   N4        1.0  0.26972  0.76636  0.47632  1.0000
  N   N5        1.0  0.62005  0.50673  0.17902  1.0000
  N   N6        1.0  0.37995  0.49327  0.82097  1.0000
  O   O1        1.0  0.31302  0.65898  0.00766  1.0000
  O   O2        1.0  0.68698  0.34103  0.99233  1.0000
  O   O3        1.0  0.26146  0.65876  0.23290  1.0000
  O   O4        1.0  0.73853  0.34124  0.76710  1.0000
  O   O5        1.0  0.77254  0.03633  0.40310  1.0000
  O   O6        1.0  0.22746  0.96367  0.59690  1.0000
