data_image0
_chemical_formula_structural       MnH22C30N6O6
_chemical_formula_sum              "Mn1 H22 C30 N6 O6"
_cell_length_a       7.03433
_cell_length_b       8.77267
_cell_length_c       10.0388
_cell_angle_alpha    74.8688
_cell_angle_beta     88.5042
_cell_angle_gamma    88.6656

_space_group_name_H-M_alt    "P 1"
_space_group_IT_number       1

loop_
  _space_group_symop_operation_xyz
  'x, y, z'

loop_
  _atom_site_type_symbol
  _atom_site_label
  _atom_site_symmetry_multiplicity
  _atom_site_fract_x
  _atom_site_fract_y
  _atom_site_fract_z
  _atom_site_occupancy
  Mn  Mn1       1.0  1.00000  0.00000  0.50000  1.0000
  H   H1        1.0  0.24901  0.75098  0.12412  1.0000
  H   H2        1.0  0.75099  0.24902  0.87588  1.0000
  H   H3        1.0  0.98153  0.36160  0.45714  1.0000
  H   H4        1.0  0.01847  0.63841  0.54286  1.0000
  H   H5        1.0  0.04617  0.58872  0.26043  1.0000
  H   H6        1.0  0.95383  0.41128  0.73957  1.0000
  H   H7        1.0  0.40339  0.28247  0.08486  1.0000
  H   H8        1.0  0.59661  0.71753  0.91514  1.0000
  H   H9        1.0  0.33002  0.06575  0.29146  1.0000
  H   H10       1.0  0.66997  0.93425  0.70854  1.0000
  H   H11       1.0  0.27984  0.01473  0.05620  1.0000
  H   H12       1.0  0.72016  0.98527  0.94380  1.0000
  H   H13       1.0  0.14409  0.25180  0.63526  1.0000
  H   H14       1.0  0.85591  0.74821  0.36474  1.0000
  H   H15       1.0  0.23709  0.26731  0.86963  1.0000
  H   H16       1.0  0.76291  0.73269  0.13037  1.0000
  H   H17       1.0  0.14648  0.76168  0.75749  1.0000
  H   H18       1.0  0.85353  0.23832  0.24251  1.0000
  H   H19       1.0  0.50297  0.62338  0.24828  1.0000
  H   H20       1.0  0.49703  0.37662  0.75172  1.0000
  H   H21       1.0  0.67362  0.37132  0.33891  1.0000
  H   H22       1.0  0.32638  0.62868  0.66109  1.0000
  C   C1        1.0  0.07768  0.34770  0.37461  1.0000
  C   C2        1.0  0.92232  0.65230  0.62539  1.0000
  C   C3        1.0  0.11335  0.47528  0.26265  1.0000
  C   C4        1.0  0.88665  0.52472  0.73735  1.0000
  C   C5        1.0  0.22508  0.45419  0.15132  1.0000
  C   C6        1.0  0.77492  0.54581  0.84868  1.0000
  C   C7        1.0  0.30935  0.30474  0.16567  1.0000
  C   C8        1.0  0.69065  0.69526  0.83433  1.0000
  C   C9        1.0  0.27025  0.18316  0.28175  1.0000
  C   C10       1.0  0.72974  0.81684  0.71825  1.0000
  C   C11       1.0  0.24471  0.57727  0.01769  1.0000
  C   C12       1.0  0.75529  0.42273  0.98231  1.0000
  C   C13       1.0  0.21987  0.86873  0.91987  1.0000
  C   C14       1.0  0.78013  0.13127  0.08013  1.0000
  C   C15       1.0  0.24466  0.01393  0.95140  1.0000
  C   C16       1.0  0.75534  0.98606  0.04860  1.0000
  C   C17       1.0  0.16494  0.14520  0.71808  1.0000
  C   C18       1.0  0.83506  0.85480  0.28192  1.0000
  C   C19       1.0  0.21921  0.15273  0.84852  1.0000
  C   C20       1.0  0.78079  0.84727  0.15149  1.0000
  C   C21       1.0  0.16713  0.87112  0.78555  1.0000
  C   C22       1.0  0.83287  0.12888  0.21444  1.0000
  C   C23       1.0  0.28593  0.78895  0.38818  1.0000
  C   C24       1.0  0.71406  0.21105  0.61182  1.0000
  C   C25       1.0  0.40107  0.64341  0.44743  1.0000
  C   C26       1.0  0.59892  0.35659  0.55257  1.0000
  C   C27       1.0  0.50197  0.56914  0.35870  1.0000
  C   C28       1.0  0.49803  0.43086  0.64130  1.0000
  C   C29       1.0  0.59876  0.42725  0.41006  1.0000
  C   C30       1.0  0.40124  0.57275  0.58994  1.0000
  N   N1        1.0  0.14507  0.19912  0.38311  1.0000
  N   N2        1.0  0.85494  0.80088  0.61689  1.0000
  N   N3        1.0  0.23671  0.73042  0.02701  1.0000
  N   N4        1.0  0.76329  0.26958  0.97299  1.0000
  N   N5        1.0  0.13511  0.00705  0.68783  1.0000
  N   N6        1.0  0.86489  0.99296  0.31218  1.0000
  O   O1        1.0  0.26356  0.53807  0.90746  1.0000
  O   O2        1.0  0.73644  0.46193  0.09254  1.0000
  O   O3        1.0  0.20763  0.85545  0.47730  1.0000
  O   O4        1.0  0.79237  0.14456  0.52270  1.0000
  O   O5        1.0  0.26753  0.83797  0.25893  1.0000
  O   O6        1.0  0.73247  0.16203  0.74107  1.0000
