data_image0
_chemical_formula_structural       Cd4H20C12S4N4O8
_chemical_formula_sum              "Cd4 H20 C12 S4 N4 O8"
_cell_length_a       5.62436
_cell_length_b       9.55269
_cell_length_c       9.57104
_cell_angle_alpha    90.0002
_cell_angle_beta     89.9996
_cell_angle_gamma    89.9995

_space_group_name_H-M_alt    "P 1"
_space_group_IT_number       1

loop_
  _space_group_symop_operation_xyz
  'x, y, z'

loop_
  _atom_site_type_symbol
  _atom_site_label
  _atom_site_symmetry_multiplicity
  _atom_site_fract_x
  _atom_site_fract_y
  _atom_site_fract_z
  _atom_site_occupancy
  Cd  Cd1       1.0  0.85936  0.33527  0.41147  1.0000
  Cd  Cd2       1.0  0.64063  0.66473  0.91147  1.0000
  Cd  Cd3       1.0  0.35936  0.16475  0.58852  1.0000
  Cd  Cd4       1.0  0.14064  0.83526  0.08853  1.0000
  H   H1        1.0  0.44475  0.51040  0.60574  1.0000
  H   H2        1.0  0.05525  0.48959  0.10574  1.0000
  H   H3        1.0  0.94475  0.98961  0.39425  1.0000
  H   H4        1.0  0.55526  0.01039  0.89425  1.0000
  H   H5        1.0  0.50365  0.60005  0.44603  1.0000
  H   H6        1.0  0.99635  0.39994  0.94603  1.0000
  H   H7        1.0  0.00365  0.89996  0.55396  1.0000
  H   H8        1.0  0.49635  0.10004  0.05397  1.0000
  H   H9        1.0  0.16151  0.69741  0.56960  1.0000
  H   H10       1.0  0.33849  0.30259  0.06960  1.0000
  H   H11       1.0  0.66150  0.80261  0.43039  1.0000
  H   H12       1.0  0.83849  0.19739  0.93039  1.0000
  H   H13       1.0  0.81759  0.56899  0.60293  1.0000
  H   H14       1.0  0.68241  0.43100  0.10293  1.0000
  H   H15       1.0  0.31759  0.93101  0.39707  1.0000
  H   H16       1.0  0.18241  0.06899  0.89708  1.0000
  H   H17       1.0  0.02822  0.46932  0.66399  1.0000
  H   H18       1.0  0.47177  0.53067  0.16398  1.0000
  H   H19       1.0  0.52821  0.03070  0.33601  1.0000
  H   H20       1.0  0.97180  0.96931  0.83603  1.0000
  C   C1        1.0  0.37943  0.52979  0.49961  1.0000
  C   C2        1.0  0.12057  0.47020  0.99961  1.0000
  C   C3        1.0  0.87943  0.97023  0.50039  1.0000
  C   C4        1.0  0.62058  0.02978  0.00039  1.0000
  C   C5        1.0  0.13688  0.60129  0.50758  1.0000
  C   C6        1.0  0.36313  0.39871  0.00757  1.0000
  C   C7        1.0  0.63686  0.89873  0.49242  1.0000
  C   C8        1.0  0.86313  0.10128  0.99242  1.0000
  C   C9        1.0  0.05688  0.64475  0.36008  1.0000
  C   C10       1.0  0.44312  0.35525  0.86008  1.0000
  C   C11       1.0  0.55690  0.85525  0.63993  1.0000
  C   C12       1.0  0.94311  0.14475  0.13994  1.0000
  S   S1        1.0  0.37722  0.36483  0.40246  1.0000
  S   S2        1.0  0.12277  0.63516  0.90246  1.0000
  S   S3        1.0  0.87723  0.13518  0.59753  1.0000
  S   S4        1.0  0.62277  0.86482  0.09754  1.0000
  N   N1        1.0  0.96091  0.50964  0.57312  1.0000
  N   N2        1.0  0.53908  0.49036  0.07312  1.0000
  N   N3        1.0  0.46090  0.99037  0.42688  1.0000
  N   N4        1.0  0.03911  0.00964  0.92690  1.0000
  O   O1        1.0  0.17028  0.74970  0.30994  1.0000
  O   O2        1.0  0.32973  0.25027  0.80994  1.0000
  O   O3        1.0  0.67028  0.75031  0.69006  1.0000
  O   O4        1.0  0.82970  0.24970  0.19005  1.0000
  O   O5        1.0  0.89842  0.57541  0.29758  1.0000
  O   O6        1.0  0.60157  0.42459  0.79758  1.0000
  O   O7        1.0  0.39846  0.92460  0.70242  1.0000
  O   O8        1.0  0.10153  0.07542  0.20243  1.0000
