data_image0
_chemical_formula_structural       Zn4H20C12S4N4O8
_chemical_formula_sum              "Zn4 H20 C12 S4 N4 O8"
_cell_length_a       5.73326
_cell_length_b       9.19766
_cell_length_c       9.11306
_cell_angle_alpha    90.0009
_cell_angle_beta     89.9994
_cell_angle_gamma    90.0001

_space_group_name_H-M_alt    "P 1"
_space_group_IT_number       1

loop_
  _space_group_symop_operation_xyz
  'x, y, z'

loop_
  _atom_site_type_symbol
  _atom_site_label
  _atom_site_symmetry_multiplicity
  _atom_site_fract_x
  _atom_site_fract_y
  _atom_site_fract_z
  _atom_site_occupancy
  Zn  Zn1       1.0  0.57464  0.17224  0.91767  1.0000
  Zn  Zn2       1.0  0.92537  0.82776  0.41766  1.0000
  Zn  Zn3       1.0  0.07464  0.32776  0.08233  1.0000
  Zn  Zn4       1.0  0.42536  0.67225  0.58233  1.0000
  H   H1        1.0  0.58972  0.36430  0.70813  1.0000
  H   H2        1.0  0.91029  0.63570  0.20812  1.0000
  H   H3        1.0  0.08971  0.13570  0.29187  1.0000
  H   H4        1.0  0.41027  0.86430  0.79188  1.0000
  H   H5        1.0  0.81071  0.39723  0.81367  1.0000
  H   H6        1.0  0.68931  0.60277  0.31367  1.0000
  H   H7        1.0  0.31070  0.10277  0.18633  1.0000
  H   H8        1.0  0.18929  0.89724  0.68634  1.0000
  H   H9        1.0  0.20368  0.34904  0.71611  1.0000
  H   H10       1.0  0.29632  0.65096  0.21610  1.0000
  H   H11       1.0  0.70367  0.15096  0.28390  1.0000
  H   H12       1.0  0.79630  0.84903  0.78390  1.0000
  H   H13       1.0  0.23652  0.17376  0.63629  1.0000
  H   H14       1.0  0.26350  0.82625  0.13629  1.0000
  H   H15       1.0  0.73650  0.32625  0.36371  1.0000
  H   H16       1.0  0.76348  0.67374  0.86370  1.0000
  H   H17       1.0  0.88718  0.30717  0.55352  1.0000
  H   H18       1.0  0.61284  0.69283  0.05351  1.0000
  H   H19       1.0  0.38716  0.19283  0.44649  1.0000
  H   H20       1.0  0.11281  0.80717  0.94649  1.0000
  C   C1        1.0  0.13220  0.23879  0.71266  1.0000
  C   C2        1.0  0.36782  0.76122  0.21265  1.0000
  C   C3        1.0  0.63219  0.26122  0.28734  1.0000
  C   C4        1.0  0.86780  0.73878  0.78734  1.0000
  C   C5        1.0  0.88193  0.24399  0.65602  1.0000
  C   C6        1.0  0.61808  0.75601  0.15601  1.0000
  C   C7        1.0  0.38192  0.25601  0.34399  1.0000
  C   C8        1.0  0.11807  0.74398  0.84399  1.0000
  C   C9        1.0  0.79385  0.09081  0.61886  1.0000
  C   C10       1.0  0.70617  0.90919  0.11887  1.0000
  C   C11       1.0  0.29384  0.40919  0.38113  1.0000
  C   C12       1.0  0.20616  0.59081  0.88113  1.0000
  S   S1        1.0  0.16223  0.15474  0.89248  1.0000
  S   S2        1.0  0.33778  0.84526  0.39247  1.0000
  S   S3        1.0  0.66222  0.34526  0.10752  1.0000
  S   S4        1.0  0.83777  0.65474  0.60752  1.0000
  N   N1        1.0  0.72492  0.31421  0.76173  1.0000
  N   N2        1.0  0.77509  0.68579  0.26172  1.0000
  N   N3        1.0  0.22492  0.18579  0.23828  1.0000
  N   N4        1.0  0.27508  0.81420  0.73828  1.0000
  O   O1        1.0  0.90297  0.03015  0.51244  1.0000
  O   O2        1.0  0.59703  0.96986  0.01243  1.0000
  O   O3        1.0  0.40295  0.46985  0.48755  1.0000
  O   O4        1.0  0.09702  0.53014  0.98757  1.0000
  O   O5        1.0  0.63172  0.03702  0.69444  1.0000
  O   O6        1.0  0.86828  0.96298  0.19444  1.0000
  O   O7        1.0  0.13171  0.46298  0.30555  1.0000
  O   O8        1.0  0.36828  0.53702  0.80557  1.0000
