data_image0
_chemical_formula_structural       Cd2P4H56C52S8N4O8
_chemical_formula_sum              "Cd2 P4 H56 C52 S8 N4 O8"
_cell_length_a       8.04216
_cell_length_b       10.4062
_cell_length_c       17.5735
_cell_angle_alpha    90
_cell_angle_beta     90
_cell_angle_gamma    100.405

_space_group_name_H-M_alt    "P 1"
_space_group_IT_number       1

loop_
  _space_group_symop_operation_xyz
  'x, y, z'

loop_
  _atom_site_type_symbol
  _atom_site_label
  _atom_site_symmetry_multiplicity
  _atom_site_fract_x
  _atom_site_fract_y
  _atom_site_fract_z
  _atom_site_occupancy
  Cd  Cd1       1.0  0.50000  0.00000  0.50000  1.0000
  Cd  Cd2       1.0  0.00000  0.00000  0.00000  1.0000
  P   P1        1.0  0.69213  0.83449  0.61224  1.0000
  P   P2        1.0  0.80787  0.16551  0.11224  1.0000
  P   P3        1.0  0.30787  0.16551  0.38776  1.0000
  P   P4        1.0  0.19213  0.83449  0.88776  1.0000
  H   H1        1.0  0.00518  0.01165  0.58088  1.0000
  H   H2        1.0  0.49482  0.98836  0.08088  1.0000
  H   H3        1.0  0.99482  0.98835  0.41912  1.0000
  H   H4        1.0  0.50518  0.01165  0.91912  1.0000
  H   H5        1.0  0.08728  0.00131  0.67586  1.0000
  H   H6        1.0  0.41272  0.99869  0.17586  1.0000
  H   H7        1.0  0.91272  0.99869  0.32414  1.0000
  H   H8        1.0  0.58728  0.00131  0.82415  1.0000
  H   H9        1.0  0.90380  0.07369  0.66030  1.0000
  H   H10       1.0  0.59620  0.92632  0.16030  1.0000
  H   H11       1.0  0.09620  0.92631  0.33970  1.0000
  H   H12       1.0  0.40379  0.07369  0.83970  1.0000
  H   H13       1.0  0.75603  0.70963  0.75685  1.0000
  H   H14       1.0  0.74397  0.29037  0.25685  1.0000
  H   H15       1.0  0.24397  0.29037  0.24315  1.0000
  H   H16       1.0  0.25604  0.70962  0.74315  1.0000
  H   H17       1.0  0.63346  0.49284  0.81117  1.0000
  H   H18       1.0  0.86654  0.50716  0.31117  1.0000
  H   H19       1.0  0.36653  0.50716  0.18883  1.0000
  H   H20       1.0  0.13346  0.49284  0.68883  1.0000
  H   H21       1.0  0.35858  0.38863  0.60235  1.0000
  H   H22       1.0  0.14142  0.61138  0.10235  1.0000
  H   H23       1.0  0.64141  0.61137  0.39765  1.0000
  H   H24       1.0  0.85858  0.38863  0.89765  1.0000
  H   H25       1.0  0.47943  0.60484  0.54895  1.0000
  H   H26       1.0  0.02058  0.39516  0.04895  1.0000
  H   H27       1.0  0.52057  0.39516  0.45105  1.0000
  H   H28       1.0  0.97943  0.60484  0.95105  1.0000
  H   H29       1.0  0.19194  0.26286  0.68902  1.0000
  H   H30       1.0  0.30806  0.73714  0.18902  1.0000
  H   H31       1.0  0.80806  0.73714  0.31098  1.0000
  H   H32       1.0  0.69194  0.26286  0.81098  1.0000
  H   H33       1.0  0.25699  0.14264  0.74920  1.0000
  H   H34       1.0  0.24301  0.85736  0.24920  1.0000
  H   H35       1.0  0.74301  0.85736  0.25080  1.0000
  H   H36       1.0  0.75699  0.14264  0.75080  1.0000
  H   H37       1.0  0.35982  0.18068  0.65910  1.0000
  H   H38       1.0  0.14017  0.81932  0.15910  1.0000
  H   H39       1.0  0.64017  0.81932  0.34090  1.0000
  H   H40       1.0  0.85982  0.18068  0.84090  1.0000
  H   H41       1.0  0.19378  0.83862  0.60400  1.0000
  H   H42       1.0  0.30622  0.16138  0.10400  1.0000
  H   H43       1.0  0.80622  0.16138  0.39600  1.0000
  H   H44       1.0  0.69378  0.83862  0.89600  1.0000
  H   H45       1.0  0.98856  0.63272  0.61005  1.0000
  H   H46       1.0  0.51144  0.36728  0.11005  1.0000
  H   H47       1.0  0.01144  0.36728  0.38995  1.0000
  H   H48       1.0  0.48857  0.63272  0.88995  1.0000
  H   H49       1.0  0.16089  0.54277  0.38532  1.0000
  H   H50       1.0  0.33911  0.45723  0.88532  1.0000
  H   H51       1.0  0.83911  0.45723  0.61468  1.0000
  H   H52       1.0  0.66089  0.54277  0.11468  1.0000
  H   H53       1.0  0.34498  0.75949  0.38682  1.0000
  H   H54       1.0  0.15502  0.24051  0.88682  1.0000
  H   H55       1.0  0.65502  0.24051  0.61318  1.0000
  H   H56       1.0  0.84498  0.75949  0.11318  1.0000
  C   C1        1.0  0.97320  0.99765  0.64148  1.0000
  C   C2        1.0  0.52680  0.00235  0.14148  1.0000
  C   C3        1.0  0.02680  0.00234  0.35852  1.0000
  C   C4        1.0  0.47319  0.99765  0.85852  1.0000
  C   C5        1.0  0.62210  0.67278  0.64962  1.0000
  C   C6        1.0  0.87790  0.32722  0.14962  1.0000
  C   C7        1.0  0.37790  0.32721  0.35038  1.0000
  C   C8        1.0  0.12211  0.67278  0.85038  1.0000
  C   C9        1.0  0.66710  0.64018  0.72357  1.0000
  C   C10       1.0  0.83289  0.35982  0.22357  1.0000
  C   C11       1.0  0.33290  0.35982  0.27643  1.0000
  C   C12       1.0  0.16711  0.64018  0.77643  1.0000
  C   C13       1.0  0.59902  0.51918  0.75410  1.0000
  C   C14       1.0  0.90098  0.48082  0.25410  1.0000
  C   C15       1.0  0.40098  0.48082  0.24590  1.0000
  C   C16       1.0  0.09902  0.51918  0.74590  1.0000
  C   C17       1.0  0.48439  0.42887  0.71181  1.0000
  C   C18       1.0  0.01561  0.57113  0.21181  1.0000
  C   C19       1.0  0.51561  0.57113  0.28819  1.0000
  C   C20       1.0  0.98439  0.42887  0.78819  1.0000
  C   C21       1.0  0.44232  0.45904  0.63725  1.0000
  C   C22       1.0  0.05769  0.54096  0.13725  1.0000
  C   C23       1.0  0.55768  0.54096  0.36275  1.0000
  C   C24       1.0  0.94232  0.45904  0.86276  1.0000
  C   C25       1.0  0.51122  0.58099  0.60698  1.0000
  C   C26       1.0  0.98878  0.41901  0.10698  1.0000
  C   C27       1.0  0.48878  0.41901  0.39302  1.0000
  C   C28       1.0  0.01122  0.58099  0.89301  1.0000
  C   C29       1.0  0.30054  0.22054  0.70808  1.0000
  C   C30       1.0  0.19946  0.77946  0.20808  1.0000
  C   C31       1.0  0.69946  0.77946  0.29192  1.0000
  C   C32       1.0  0.80054  0.22054  0.79192  1.0000
  C   C33       1.0  0.17948  0.77106  0.55612  1.0000
  C   C34       1.0  0.32052  0.22894  0.05612  1.0000
  C   C35       1.0  0.82052  0.22893  0.44388  1.0000
  C   C36       1.0  0.67948  0.77106  0.94388  1.0000
  C   C37       1.0  0.06682  0.65306  0.55951  1.0000
  C   C38       1.0  0.43318  0.34694  0.05951  1.0000
  C   C39       1.0  0.93318  0.34694  0.44049  1.0000
  C   C40       1.0  0.56682  0.65306  0.94049  1.0000
  C   C41       1.0  0.05692  0.56439  0.49871  1.0000
  C   C42       1.0  0.44308  0.43561  0.99871  1.0000
  C   C43       1.0  0.94308  0.43560  0.50129  1.0000
  C   C44       1.0  0.55692  0.56440  0.00129  1.0000
  C   C45       1.0  0.15995  0.60440  0.43528  1.0000
  C   C46       1.0  0.34005  0.39560  0.93528  1.0000
  C   C47       1.0  0.84005  0.39560  0.56472  1.0000
  C   C48       1.0  0.65995  0.60440  0.06472  1.0000
  C   C49       1.0  0.26564  0.72581  0.43581  1.0000
  C   C50       1.0  0.23436  0.27419  0.93581  1.0000
  C   C51       1.0  0.73436  0.27419  0.56419  1.0000
  C   C52       1.0  0.76564  0.72581  0.06419  1.0000
  S   S1        1.0  0.72012  0.83174  0.49893  1.0000
  S   S2        1.0  0.77988  0.16826  0.99893  1.0000
  S   S3        1.0  0.27988  0.16826  0.50107  1.0000
  S   S4        1.0  0.22012  0.83174  0.00107  1.0000
  S   S5        1.0  0.54049  0.95652  0.64922  1.0000
  S   S6        1.0  0.95951  0.04348  0.14922  1.0000
  S   S7        1.0  0.45951  0.04348  0.35078  1.0000
  S   S8        1.0  0.04049  0.95652  0.85078  1.0000
  N   N1        1.0  0.27800  0.80764  0.49545  1.0000
  N   N2        1.0  0.22200  0.19236  0.99545  1.0000
  N   N3        1.0  0.72200  0.19236  0.50455  1.0000
  N   N4        1.0  0.77800  0.80764  0.00455  1.0000
  O   O1        1.0  0.87371  0.86980  0.65444  1.0000
  O   O2        1.0  0.62628  0.13020  0.15444  1.0000
  O   O3        1.0  0.12629  0.13020  0.34556  1.0000
  O   O4        1.0  0.37371  0.86980  0.84556  1.0000
  O   O5        1.0  0.42079  0.31498  0.74826  1.0000
  O   O6        1.0  0.07921  0.68502  0.24826  1.0000
  O   O7        1.0  0.57921  0.68502  0.25174  1.0000
  O   O8        1.0  0.92079  0.31498  0.75174  1.0000
