data_image0
_chemical_formula_structural       NiH60Pt2C56N8Cl2
_chemical_formula_sum              "Ni1 H60 Pt2 C56 N8 Cl2"
_cell_length_a       9.12511
_cell_length_b       9.99923
_cell_length_c       15.5834
_cell_angle_alpha    72.4572
_cell_angle_beta     90.1308
_cell_angle_gamma    90.4229

_space_group_name_H-M_alt    "P 1"
_space_group_IT_number       1

loop_
  _space_group_symop_operation_xyz
  'x, y, z'

loop_
  _atom_site_type_symbol
  _atom_site_label
  _atom_site_symmetry_multiplicity
  _atom_site_fract_x
  _atom_site_fract_y
  _atom_site_fract_z
  _atom_site_occupancy
  Ni  Ni1       1.0  0.50000  0.49999  0.99999  1.0000
  H   H1        1.0  0.34638  0.58753  0.12593  1.0000
  H   H2        1.0  0.66067  0.28824  0.12437  1.0000
  H   H3        1.0  0.65360  0.41248  0.87407  1.0000
  H   H4        1.0  0.33933  0.71175  0.87564  1.0000
  H   H5        1.0  0.66895  0.75651  0.27071  1.0000
  H   H6        1.0  0.33816  0.97830  0.26327  1.0000
  H   H7        1.0  0.33105  0.24349  0.72928  1.0000
  H   H8        1.0  0.66185  0.02169  0.73673  1.0000
  H   H9        1.0  0.86150  0.69027  0.17579  1.0000
  H   H10       1.0  0.14521  0.13746  0.17161  1.0000
  H   H11       1.0  0.13850  0.30973  0.82421  1.0000
  H   H12       1.0  0.85481  0.86252  0.82839  1.0000
  H   H13       1.0  0.78682  0.56270  0.06712  1.0000
  H   H14       1.0  0.22021  0.37096  0.06743  1.0000
  H   H15       1.0  0.21318  0.43730  0.93288  1.0000
  H   H16       1.0  0.77979  0.62903  0.93257  1.0000
  H   H17       1.0  0.50957  0.65733  0.38836  1.0000
  H   H18       1.0  0.49127  0.96416  0.38301  1.0000
  H   H19       1.0  0.49043  0.34268  0.61164  1.0000
  H   H20       1.0  0.50873  0.03583  0.61699  1.0000
  H   H21       1.0  0.00776  0.75936  0.26500  1.0000
  H   H22       1.0  0.99611  0.97216  0.26511  1.0000
  H   H23       1.0  0.99225  0.24066  0.73500  1.0000
  H   H24       1.0  0.00388  0.02784  0.73490  1.0000
  H   H25       1.0  0.20311  0.71846  0.16857  1.0000
  H   H26       1.0  0.80513  0.10966  0.16740  1.0000
  H   H27       1.0  0.79689  0.28156  0.83142  1.0000
  H   H28       1.0  0.19487  0.89034  0.83260  1.0000
  H   H29       1.0  0.40364  0.63849  0.54287  1.0000
  H   H30       1.0  0.58979  0.83024  0.53765  1.0000
  H   H31       1.0  0.59636  0.36150  0.45712  1.0000
  H   H32       1.0  0.41021  0.16975  0.46235  1.0000
  H   H33       1.0  0.33951  0.81382  0.51275  1.0000
  H   H34       1.0  0.65177  0.68515  0.50471  1.0000
  H   H35       1.0  0.66049  0.18618  0.48725  1.0000
  H   H36       1.0  0.34824  0.31484  0.49528  1.0000
  H   H37       1.0  0.09887  0.66202  0.69235  1.0000
  H   H38       1.0  0.88655  0.64935  0.68933  1.0000
  H   H39       1.0  0.90113  0.33798  0.30765  1.0000
  H   H40       1.0  0.11346  0.35065  0.31067  1.0000
  H   H41       1.0  0.19442  0.81822  0.63089  1.0000
  H   H42       1.0  0.79026  0.55924  0.62305  1.0000
  H   H43       1.0  0.80559  0.18178  0.36912  1.0000
  H   H44       1.0  0.20974  0.44076  0.37695  1.0000
  H   H45       1.0  0.29259  0.65998  0.68329  1.0000
  H   H46       1.0  0.69340  0.66535  0.67818  1.0000
  H   H47       1.0  0.70741  0.34001  0.31670  1.0000
  H   H48       1.0  0.30660  0.33465  0.32181  1.0000
  H   H49       1.0  0.14797  0.47839  0.52589  1.0000
  H   H50       1.0  0.84972  0.99790  0.53071  1.0000
  H   H51       1.0  0.85203  0.52161  0.47411  1.0000
  H   H52       1.0  0.15028  0.00209  0.46929  1.0000
  H   H53       1.0  0.05905  0.47651  0.62709  1.0000
  H   H54       1.0  0.93212  0.89629  0.63183  1.0000
  H   H55       1.0  0.94095  0.52350  0.37291  1.0000
  H   H56       1.0  0.06788  0.10371  0.36817  1.0000
  H   H57       1.0  0.25366  0.45685  0.62665  1.0000
  H   H58       1.0  0.73821  0.92128  0.62855  1.0000
  H   H59       1.0  0.74634  0.54315  0.37335  1.0000
  H   H60       1.0  0.26178  0.07872  0.37145  1.0000
  Pt  Pt1       1.0  0.99762  0.76747  0.46877  1.0000
  Pt  Pt2       1.0  0.00238  0.23253  0.53123  1.0000
  C   C1        1.0  0.45905  0.60763  0.14340  1.0000
  C   C2        1.0  0.54807  0.25117  0.14139  1.0000
  C   C3        1.0  0.54094  0.39237  0.85660  1.0000
  C   C4        1.0  0.45193  0.74882  0.85861  1.0000
  C   C5        1.0  0.49162  0.66670  0.21231  1.0000
  C   C6        1.0  0.51522  0.12502  0.20845  1.0000
  C   C7        1.0  0.50838  0.33330  0.78768  1.0000
  C   C8        1.0  0.48478  0.87498  0.79155  1.0000
  C   C9        1.0  0.63900  0.70129  0.22250  1.0000
  C   C10       1.0  0.36785  0.08072  0.21721  1.0000
  C   C11       1.0  0.36101  0.29871  0.77750  1.0000
  C   C12       1.0  0.63215  0.91928  0.78280  1.0000
  C   C13       1.0  0.74601  0.66657  0.16942  1.0000
  C   C14       1.0  0.26066  0.16727  0.16577  1.0000
  C   C15       1.0  0.25398  0.33343  0.83058  1.0000
  C   C16       1.0  0.73934  0.83273  0.83424  1.0000
  C   C17       1.0  0.70622  0.60038  0.10597  1.0000
  C   C18       1.0  0.30068  0.29517  0.10479  1.0000
  C   C19       1.0  0.29378  0.39962  0.89403  1.0000
  C   C20       1.0  0.69932  0.70483  0.89521  1.0000
  C   C21       1.0  0.37306  0.69000  0.27019  1.0000
  C   C22       1.0  0.63194  0.04406  0.26669  1.0000
  C   C23       1.0  0.62694  0.31000  0.72981  1.0000
  C   C24       1.0  0.36806  0.95595  0.73331  1.0000
  C   C25       1.0  0.39994  0.68354  0.36033  1.0000
  C   C26       1.0  0.60170  0.96375  0.35610  1.0000
  C   C27       1.0  0.60005  0.31644  0.63967  1.0000
  C   C28       1.0  0.39830  0.03626  0.64390  1.0000
  C   C29       1.0  0.28858  0.70945  0.41435  1.0000
  C   C30       1.0  0.71036  0.88361  0.41090  1.0000
  C   C31       1.0  0.71142  0.29054  0.58565  1.0000
  C   C32       1.0  0.28964  0.11639  0.58911  1.0000
  C   C33       1.0  0.14436  0.74254  0.38116  1.0000
  C   C34       1.0  0.85557  0.88011  0.37957  1.0000
  C   C35       1.0  0.85564  0.25747  0.61884  1.0000
  C   C36       1.0  0.14443  0.11989  0.62043  1.0000
  C   C37       1.0  0.11801  0.73990  0.29248  1.0000
  C   C38       1.0  0.88524  0.96744  0.29157  1.0000
  C   C39       1.0  0.88199  0.26012  0.70752  1.0000
  C   C40       1.0  0.11476  0.03256  0.70843  1.0000
  C   C41       1.0  0.22878  0.71577  0.23767  1.0000
  C   C42       1.0  0.77704  0.04645  0.23590  1.0000
  C   C43       1.0  0.77123  0.28426  0.76232  1.0000
  C   C44       1.0  0.22297  0.95356  0.76410  1.0000
  C   C45       1.0  0.31280  0.70754  0.50989  1.0000
  C   C46       1.0  0.68104  0.79213  0.50505  1.0000
  C   C47       1.0  0.68719  0.29246  0.49011  1.0000
  C   C48       1.0  0.31895  0.20786  0.49495  1.0000
  C   C49       1.0  0.19112  0.70379  0.64727  1.0000
  C   C50       1.0  0.79540  0.65567  0.64257  1.0000
  C   C51       1.0  0.80889  0.29621  0.35273  1.0000
  C   C52       1.0  0.20461  0.34433  0.35743  1.0000
  C   C53       1.0  0.15873  0.50977  0.58718  1.0000
  C   C54       1.0  0.83424  0.90601  0.58980  1.0000
  C   C55       1.0  0.84128  0.49023  0.41282  1.0000
  C   C56       1.0  0.16575  0.09399  0.41021  1.0000
  N   N1        1.0  0.56358  0.57653  0.09182  1.0000
  N   N2        1.0  0.44332  0.33263  0.09098  1.0000
  N   N3        1.0  0.43642  0.42347  0.90819  1.0000
  N   N4        1.0  0.55669  0.66738  0.90902  1.0000
  N   N5        1.0  0.17604  0.66354  0.56380  1.0000
  N   N6        1.0  0.81533  0.77838  0.56186  1.0000
  N   N7        1.0  0.82396  0.33646  0.43620  1.0000
  N   N8        1.0  0.18467  0.22162  0.43814  1.0000
  Cl  Cl1       1.0  0.82678  0.36027  0.99677  1.0000
  Cl  Cl2       1.0  0.17321  0.63973  0.00322  1.0000
