data_image0
_chemical_formula_structural       Sn2P4H28C12N4O12
_chemical_formula_sum              "Sn2 P4 H28 C12 N4 O12"
_cell_length_a       7.06574
_cell_length_b       8.03859
_cell_length_c       10.3386
_cell_angle_alpha    90.0001
_cell_angle_beta     90.0004
_cell_angle_gamma    110.835

_space_group_name_H-M_alt    "P 1"
_space_group_IT_number       1

loop_
  _space_group_symop_operation_xyz
  'x, y, z'

loop_
  _atom_site_type_symbol
  _atom_site_label
  _atom_site_symmetry_multiplicity
  _atom_site_fract_x
  _atom_site_fract_y
  _atom_site_fract_z
  _atom_site_occupancy
  Sn  Sn1       1.0  0.61684  0.19425  0.95662  1.0000
  Sn  Sn2       1.0  0.38326  0.80576  0.45660  1.0000
  P   P1        1.0  0.13887  0.19339  0.04169  1.0000
  P   P2        1.0  0.86114  0.80661  0.54170  1.0000
  P   P3        1.0  0.63739  0.17698  0.29117  1.0000
  P   P4        1.0  0.36261  0.82302  0.79117  1.0000
  H   H1        1.0  0.09583  0.86082  0.97049  1.0000
  H   H2        1.0  0.90417  0.13919  0.47049  1.0000
  H   H3        1.0  0.73210  0.43733  0.10725  1.0000
  H   H4        1.0  0.26789  0.56267  0.60725  1.0000
  H   H5        1.0  0.21853  0.00555  0.19988  1.0000
  H   H6        1.0  0.78147  0.99446  0.69989  1.0000
  H   H7        1.0  0.96104  0.98839  0.21519  1.0000
  H   H8        1.0  0.03895  0.01160  0.71519  1.0000
  H   H9        1.0  0.24901  0.74629  0.14255  1.0000
  H   H10       1.0  0.75098  0.25370  0.64254  1.0000
  H   H11       1.0  0.08055  0.59530  0.03358  1.0000
  H   H12       1.0  0.91945  0.40470  0.53358  1.0000
  H   H13       1.0  0.00946  0.47512  0.25199  1.0000
  H   H14       1.0  0.99054  0.52488  0.75199  1.0000
  H   H15       1.0  0.97564  0.67420  0.31197  1.0000
  H   H16       1.0  0.02436  0.32580  0.81197  1.0000
  H   H17       1.0  0.68984  0.75050  0.23126  1.0000
  H   H18       1.0  0.31015  0.24950  0.73126  1.0000
  H   H19       1.0  0.51536  0.60112  0.11900  1.0000
  H   H20       1.0  0.48464  0.39888  0.61901  1.0000
  H   H21       1.0  0.78621  0.66398  0.95105  1.0000
  H   H22       1.0  0.21379  0.33602  0.45105  1.0000
  H   H23       1.0  0.75607  0.86519  0.99801  1.0000
  H   H24       1.0  0.24393  0.13481  0.49801  1.0000
  H   H25       1.0  0.45259  0.37847  0.26275  1.0000
  H   H26       1.0  0.54740  0.62153  0.76275  1.0000
  H   H27       1.0  0.64848  0.46374  0.38466  1.0000
  H   H28       1.0  0.35152  0.53625  0.88466  1.0000
  C   C1        1.0  0.08164  0.99618  0.14623  1.0000
  C   C2        1.0  0.91836  0.00382  0.64624  1.0000
  C   C3        1.0  0.08945  0.68638  0.11432  1.0000
  C   C4        1.0  0.91054  0.31362  0.61432  1.0000
  C   C5        1.0  0.96375  0.58823  0.22724  1.0000
  C   C6        1.0  0.03624  0.41177  0.72724  1.0000
  C   C7        1.0  0.67538  0.66370  0.14686  1.0000
  C   C8        1.0  0.32462  0.33630  0.64686  1.0000
  C   C9        1.0  0.80202  0.75654  0.03225  1.0000
  C   C10       1.0  0.19798  0.24346  0.53225  1.0000
  C   C11       1.0  0.60928  0.39658  0.29067  1.0000
  C   C12       1.0  0.39072  0.60342  0.79067  1.0000
  N   N1        1.0  0.02348  0.83153  0.06319  1.0000
  N   N2        1.0  0.97652  0.16847  0.56318  1.0000
  N   N3        1.0  0.74377  0.51518  0.18988  1.0000
  N   N4        1.0  0.25622  0.48482  0.68988  1.0000
  O   O1        1.0  0.28805  0.16437  0.94042  1.0000
  O   O2        1.0  0.71195  0.83563  0.44042  1.0000
  O   O3        1.0  0.23194  0.36055  0.12156  1.0000
  O   O4        1.0  0.76805  0.63945  0.62156  1.0000
  O   O5        1.0  0.93759  0.17164  0.97307  1.0000
  O   O6        1.0  0.06240  0.82836  0.47306  1.0000
  O   O7        1.0  0.56927  0.09756  0.15460  1.0000
  O   O8        1.0  0.43072  0.90244  0.65460  1.0000
  O   O9        1.0  0.85270  0.20146  0.32604  1.0000
  O   O10       1.0  0.14729  0.79854  0.82604  1.0000
  O   O11       1.0  0.47582  0.07312  0.39249  1.0000
  O   O12       1.0  0.52418  0.92688  0.89250  1.0000
