data_image0
_chemical_formula_structural       FeNiP2H44C42S4N2O4
_chemical_formula_sum              "Fe1 Ni1 P2 H44 C42 S4 N2 O4"
_cell_length_a       8.90043
_cell_length_b       10.435
_cell_length_c       12.8067
_cell_angle_alpha    115.449
_cell_angle_beta     96.3827
_cell_angle_gamma    96.7054

_space_group_name_H-M_alt    "P 1"
_space_group_IT_number       1

loop_
  _space_group_symop_operation_xyz
  'x, y, z'

loop_
  _atom_site_type_symbol
  _atom_site_label
  _atom_site_symmetry_multiplicity
  _atom_site_fract_x
  _atom_site_fract_y
  _atom_site_fract_z
  _atom_site_occupancy
  Fe  Fe1       1.0  1.00000  0.50000  0.00000  1.0000
  Ni  Ni1       1.0  1.00000  0.99999  0.49999  1.0000
  P   P1        1.0  0.92016  0.17915  0.35721  1.0000
  P   P2        1.0  0.07983  0.82087  0.64280  1.0000
  H   H1        1.0  0.64888  0.95836  0.24581  1.0000
  H   H2        1.0  0.35113  0.04166  0.75420  1.0000
  H   H3        1.0  0.40167  0.93979  0.12750  1.0000
  H   H4        1.0  0.59833  0.06021  0.87250  1.0000
  H   H5        1.0  0.53991  0.37572  0.17930  1.0000
  H   H6        1.0  0.46007  0.62428  0.82070  1.0000
  H   H7        1.0  0.78973  0.39445  0.29868  1.0000
  H   H8        1.0  0.21025  0.60557  0.70132  1.0000
  H   H9        1.0  0.25941  0.93228  0.97006  1.0000
  H   H10       1.0  0.74060  0.06772  0.02994  1.0000
  H   H11       1.0  0.12814  0.04585  0.96239  1.0000
  H   H12       1.0  0.87186  0.95414  0.03760  1.0000
  H   H13       1.0  0.15806  0.01472  0.09030  1.0000
  H   H14       1.0  0.84193  0.98527  0.90969  1.0000
  H   H15       1.0  0.17288  0.36929  0.52057  1.0000
  H   H16       1.0  0.82710  0.63072  0.47944  1.0000
  H   H17       1.0  0.16727  0.51335  0.48177  1.0000
  H   H18       1.0  0.83272  0.48666  0.51824  1.0000
  H   H19       1.0  0.28721  0.23365  0.34225  1.0000
  H   H20       1.0  0.71279  0.76636  0.65777  1.0000
  H   H21       1.0  0.39988  0.40955  0.42675  1.0000
  H   H22       1.0  0.60011  0.59046  0.57327  1.0000
  H   H23       1.0  0.26972  0.37055  0.29657  1.0000
  H   H24       1.0  0.73028  0.62945  0.70345  1.0000
  H   H25       1.0  0.17906  0.28075  0.92075  1.0000
  H   H26       1.0  0.82093  0.71925  0.07925  1.0000
  H   H27       1.0  0.86981  0.20577  0.88047  1.0000
  H   H28       1.0  0.13018  0.79423  0.11953  1.0000
  H   H29       1.0  0.76777  0.37183  0.07758  1.0000
  H   H30       1.0  0.23222  0.62817  0.92243  1.0000
  H   H31       1.0  0.01296  0.55654  0.23834  1.0000
  H   H32       1.0  0.98705  0.44345  0.76167  1.0000
  H   H33       1.0  0.38994  0.49522  0.08948  1.0000
  H   H34       1.0  0.61006  0.50476  0.91051  1.0000
  H   H35       1.0  0.27319  0.64540  0.32313  1.0000
  H   H36       1.0  0.72682  0.35460  0.67687  1.0000
  H   H37       1.0  0.44635  0.82906  0.48599  1.0000
  H   H38       1.0  0.55366  0.17091  0.51401  1.0000
  H   H39       1.0  0.70868  0.97813  0.57796  1.0000
  H   H40       1.0  0.29133  0.02186  0.42203  1.0000
  H   H41       1.0  0.88135  0.75805  0.27566  1.0000
  H   H42       1.0  0.11866  0.24195  0.72434  1.0000
  H   H43       1.0  0.62936  0.60317  0.16952  1.0000
  H   H44       1.0  0.37066  0.39682  0.83047  1.0000
  C   C1        1.0  0.73696  0.17718  0.27995  1.0000
  C   C2        1.0  0.26303  0.82284  0.72006  1.0000
  C   C3        1.0  0.62509  0.05089  0.23220  1.0000
  C   C4        1.0  0.37491  0.94912  0.76780  1.0000
  C   C5        1.0  0.48582  0.03952  0.16444  1.0000
  C   C6        1.0  0.51418  0.96048  0.83556  1.0000
  C   C7        1.0  0.45727  0.15629  0.14248  1.0000
  C   C8        1.0  0.54272  0.84372  0.85752  1.0000
  C   C9        1.0  0.56678  0.28474  0.19367  1.0000
  C   C10       1.0  0.43322  0.71527  0.80633  1.0000
  C   C11       1.0  0.70472  0.29529  0.26155  1.0000
  C   C12       1.0  0.29527  0.70472  0.73845  1.0000
  C   C13       1.0  0.21232  0.02838  0.02174  1.0000
  C   C14       1.0  0.78768  0.97162  0.97826  1.0000
  C   C15       1.0  0.16317  0.39658  0.44631  1.0000
  C   C16       1.0  0.83682  0.60343  0.55370  1.0000
  C   C17       1.0  0.28674  0.34909  0.37324  1.0000
  C   C18       1.0  0.71325  0.65092  0.62678  1.0000
  C   C19       1.0  0.15259  0.44501  0.09975  1.0000
  C   C20       1.0  0.84741  0.55498  0.90025  1.0000
  C   C21       1.0  0.10368  0.32945  0.98207  1.0000
  C   C22       1.0  0.89632  0.67056  0.01793  1.0000
  C   C23       1.0  0.94061  0.28786  0.96184  1.0000
  C   C24       1.0  0.05939  0.71213  0.03816  1.0000
  C   C25       1.0  0.88682  0.37699  0.06592  1.0000
  C   C26       1.0  0.11318  0.62301  0.93409  1.0000
  C   C27       1.0  0.01618  0.47438  0.15069  1.0000
  C   C28       1.0  0.98383  0.52562  0.84931  1.0000
  C   C29       1.0  0.30847  0.52214  0.15033  1.0000
  C   C30       1.0  0.69154  0.47785  0.84966  1.0000
  C   C31       1.0  0.35682  0.62136  0.26413  1.0000
  C   C32       1.0  0.64318  0.37862  0.73586  1.0000
  C   C33       1.0  0.51102  0.70308  0.31772  1.0000
  C   C34       1.0  0.48899  0.29689  0.68227  1.0000
  C   C35       1.0  0.53961  0.81017  0.43564  1.0000
  C   C36       1.0  0.46040  0.18980  0.56435  1.0000
  C   C37       1.0  0.68467  0.89413  0.48750  1.0000
  C   C38       1.0  0.31534  0.10585  0.51249  1.0000
  C   C39       1.0  0.78134  0.77039  0.31829  1.0000
  C   C40       1.0  0.21868  0.22961  0.68171  1.0000
  C   C41       1.0  0.63905  0.68446  0.26015  1.0000
  C   C42       1.0  0.36097  0.31553  0.73984  1.0000
  S   S1        1.0  0.01414  0.01325  0.26718  1.0000
  S   S2        1.0  0.98585  0.98676  0.73282  1.0000
  S   S3        1.0  0.89298  0.19092  0.51840  1.0000
  S   S4        1.0  0.10702  0.80908  0.48159  1.0000
  N   N1        1.0  0.80483  0.87633  0.42998  1.0000
  N   N2        1.0  0.19518  0.12367  0.57002  1.0000
  O   O1        1.0  0.00929  0.33386  0.37640  1.0000
  O   O2        1.0  0.99070  0.66615  0.62360  1.0000
  O   O3        1.0  0.32987  0.15578  0.07365  1.0000
  O   O4        1.0  0.67013  0.84423  0.92635  1.0000
