data_image0
_chemical_formula_structural       Ca2H28C24N8O12
_chemical_formula_sum              "Ca2 H28 C24 N8 O12"
_cell_length_a       7.78156
_cell_length_b       8.70202
_cell_length_c       11.9396
_cell_angle_alpha    81.951
_cell_angle_beta     78.0816
_cell_angle_gamma    69.0008

_space_group_name_H-M_alt    "P 1"
_space_group_IT_number       1

loop_
  _space_group_symop_operation_xyz
  'x, y, z'

loop_
  _atom_site_type_symbol
  _atom_site_label
  _atom_site_symmetry_multiplicity
  _atom_site_fract_x
  _atom_site_fract_y
  _atom_site_fract_z
  _atom_site_occupancy
  Ca  Ca1       1.0  0.22575  0.52231  0.05593  1.0000
  Ca  Ca2       1.0  0.77425  0.47770  0.94407  1.0000
  H   H1        1.0  0.13128  0.60608  0.83788  1.0000
  H   H2        1.0  0.86871  0.39392  0.16212  1.0000
  H   H3        1.0  0.95927  0.74362  0.90371  1.0000
  H   H4        1.0  0.04073  0.25638  0.09629  1.0000
  H   H5        1.0  0.51757  0.21333  0.99062  1.0000
  H   H6        1.0  0.48242  0.78667  0.00938  1.0000
  H   H7        1.0  0.34120  0.14885  0.03770  1.0000
  H   H8        1.0  0.65879  0.85115  0.96229  1.0000
  H   H9        1.0  0.53043  0.32703  0.45453  1.0000
  H   H10       1.0  0.46958  0.67296  0.54547  1.0000
  H   H11       1.0  0.96729  0.39390  0.31112  1.0000
  H   H12       1.0  0.03272  0.60608  0.68888  1.0000
  H   H13       1.0  0.03017  0.11042  0.54534  1.0000
  H   H14       1.0  0.96983  0.88957  0.45466  1.0000
  H   H15       1.0  0.84864  0.27875  0.49110  1.0000
  H   H16       1.0  0.15137  0.72125  0.50890  1.0000
  H   H17       1.0  0.93718  0.29650  0.61415  1.0000
  H   H18       1.0  0.06283  0.70350  0.38585  1.0000
  H   H19       1.0  0.85351  0.14692  0.22692  1.0000
  H   H20       1.0  0.14649  0.85308  0.77308  1.0000
  H   H21       1.0  0.74223  0.63788  0.21526  1.0000
  H   H22       1.0  0.25777  0.36212  0.78475  1.0000
  H   H23       1.0  0.38688  0.93744  0.39854  1.0000
  H   H24       1.0  0.61312  0.06256  0.60146  1.0000
  H   H25       1.0  0.43614  0.75488  0.32639  1.0000
  H   H26       1.0  0.56386  0.24513  0.67360  1.0000
  H   H27       1.0  0.33686  0.95419  0.25782  1.0000
  H   H28       1.0  0.66314  0.04582  0.74218  1.0000
  C   C1        1.0  0.54779  0.42737  0.22522  1.0000
  C   C2        1.0  0.45222  0.57263  0.77478  1.0000
  C   C3        1.0  0.38798  0.39564  0.30845  1.0000
  C   C4        1.0  0.61202  0.60435  0.69155  1.0000
  C   C5        1.0  0.40452  0.33805  0.42269  1.0000
  C   C6        1.0  0.59549  0.66194  0.57731  1.0000
  C   C7        1.0  0.11889  0.30603  0.45359  1.0000
  C   C8        1.0  0.88112  0.69396  0.54641  1.0000
  C   C9        1.0  0.09661  0.37415  0.34172  1.0000
  C   C10       1.0  0.90340  0.62584  0.65828  1.0000
  C   C11       1.0  0.97432  0.24557  0.52992  1.0000
  C   C12       1.0  0.02568  0.75443  0.47009  1.0000
  C   C13       1.0  0.14634  0.91665  0.10051  1.0000
  C   C14       1.0  0.85366  0.08336  0.89949  1.0000
  C   C15       1.0  0.96324  0.90357  0.16336  1.0000
  C   C16       1.0  0.03676  0.09643  0.83664  1.0000
  C   C17       1.0  0.82661  0.03432  0.22050  1.0000
  C   C18       1.0  0.17338  0.96568  0.77950  1.0000
  C   C19       1.0  0.62557  0.88906  0.26560  1.0000
  C   C20       1.0  0.37443  0.11094  0.73440  1.0000
  C   C21       1.0  0.76739  0.75347  0.21340  1.0000
  C   C22       1.0  0.23261  0.24654  0.78661  1.0000
  C   C23       1.0  0.43577  0.88221  0.31554  1.0000
  C   C24       1.0  0.56423  0.11780  0.68446  1.0000
  N   N1        1.0  0.23070  0.41705  0.26906  1.0000
  N   N2        1.0  0.76931  0.58294  0.73094  1.0000
  N   N3        1.0  0.27290  0.29237  0.49464  1.0000
  N   N4        1.0  0.72711  0.70763  0.50536  1.0000
  N   N5        1.0  0.93420  0.75983  0.16208  1.0000
  N   N6        1.0  0.06580  0.24017  0.83793  1.0000
  N   N7        1.0  0.65795  0.02902  0.27030  1.0000
  N   N8        1.0  0.34204  0.97099  0.72970  1.0000
  O   O1        1.0  0.52925  0.46425  0.12054  1.0000
  O   O2        1.0  0.47075  0.53575  0.87946  1.0000
  O   O3        1.0  0.69223  0.41115  0.26632  1.0000
  O   O4        1.0  0.30777  0.58886  0.73367  1.0000
  O   O5        1.0  0.26168  0.78934  0.05224  1.0000
  O   O6        1.0  0.73832  0.21066  0.94776  1.0000
  O   O7        1.0  0.17472  0.05172  0.09977  1.0000
  O   O8        1.0  0.82528  0.94829  0.90023  1.0000
  O   O9        1.0  0.02698  0.62190  0.90636  1.0000
  O   O10       1.0  0.97302  0.37810  0.09363  1.0000
  O   O11       1.0  0.37869  0.24624  0.00980  1.0000
  O   O12       1.0  0.62131  0.75377  0.99020  1.0000
