data_image0
_chemical_formula_structural       Sm2Cd3H48C28N6Cl2O26
_chemical_formula_sum              "Sm2 Cd3 H48 C28 N6 Cl2 O26"
_cell_length_a       8.57177
_cell_length_b       9.06367
_cell_length_c       15.422
_cell_angle_alpha    98.4414
_cell_angle_beta     101.619
_cell_angle_gamma    103.247

_space_group_name_H-M_alt    "P 1"
_space_group_IT_number       1

loop_
  _space_group_symop_operation_xyz
  'x, y, z'

loop_
  _atom_site_type_symbol
  _atom_site_label
  _atom_site_symmetry_multiplicity
  _atom_site_fract_x
  _atom_site_fract_y
  _atom_site_fract_z
  _atom_site_occupancy
  Sm  Sm1       1.0  0.81652  0.68733  0.27486  1.0000
  Sm  Sm2       1.0  0.18348  0.31267  0.72514  1.0000
  Cd  Cd1       1.0  1.00000  1.00000  1.00000  1.0000
  Cd  Cd2       1.0  0.91551  0.75014  0.59749  1.0000
  Cd  Cd3       1.0  0.08449  0.24986  0.40251  1.0000
  H   H1        1.0  0.07356  0.94669  0.16845  1.0000
  H   H2        1.0  0.92644  0.05331  0.83155  1.0000
  H   H3        1.0  0.06441  0.12268  0.18861  1.0000
  H   H4        1.0  0.93559  0.87732  0.81139  1.0000
  H   H5        1.0  0.65599  0.95242  0.04286  1.0000
  H   H6        1.0  0.34401  0.04758  0.95714  1.0000
  H   H7        1.0  0.66471  0.03899  0.96175  1.0000
  H   H8        1.0  0.33529  0.96101  0.03825  1.0000
  H   H9        1.0  0.12314  0.78028  0.43333  1.0000
  H   H10       1.0  0.87685  0.21971  0.56667  1.0000
  H   H11       1.0  0.16240  0.89432  0.36918  1.0000
  H   H12       1.0  0.83760  0.10567  0.63082  1.0000
  H   H13       1.0  0.64891  0.87184  0.45499  1.0000
  H   H14       1.0  0.35109  0.12816  0.54501  1.0000
  H   H15       1.0  0.53660  0.99015  0.40398  1.0000
  H   H16       1.0  0.46340  0.00985  0.59603  1.0000
  H   H17       1.0  0.97540  0.41258  0.11543  1.0000
  H   H18       1.0  0.02460  0.58742  0.88457  1.0000
  H   H19       1.0  0.81412  0.24700  0.10304  1.0000
  H   H20       1.0  0.18588  0.75300  0.89696  1.0000
  H   H21       1.0  0.65951  0.57255  0.02819  1.0000
  H   H22       1.0  0.34049  0.42745  0.97181  1.0000
  H   H23       1.0  0.78627  0.45484  0.99526  1.0000
  H   H24       1.0  0.21373  0.54516  0.00474  1.0000
  H   H25       1.0  0.68217  0.31801  0.36208  1.0000
  H   H26       1.0  0.31783  0.68199  0.63792  1.0000
  H   H27       1.0  0.50300  0.35324  0.38900  1.0000
  H   H28       1.0  0.49700  0.64677  0.61100  1.0000
  H   H29       1.0  0.42120  0.24289  0.18910  1.0000
  H   H30       1.0  0.57880  0.75711  0.81090  1.0000
  H   H31       1.0  0.63154  0.25057  0.22599  1.0000
  H   H32       1.0  0.36846  0.74943  0.77401  1.0000
  H   H33       1.0  0.31221  0.67218  0.33393  1.0000
  H   H34       1.0  0.68779  0.32782  0.66607  1.0000
  H   H35       1.0  0.48456  0.64544  0.40606  1.0000
  H   H36       1.0  0.51544  0.35456  0.59394  1.0000
  H   H37       1.0  0.54383  0.26999  0.06283  1.0000
  H   H38       1.0  0.45617  0.73000  0.93717  1.0000
  H   H39       1.0  0.50014  0.44817  0.09915  1.0000
  H   H40       1.0  0.49986  0.55183  0.90085  1.0000
  H   H41       1.0  0.31842  0.41260  0.28164  1.0000
  H   H42       1.0  0.68158  0.58741  0.71836  1.0000
  H   H43       1.0  0.37975  0.51960  0.20115  1.0000
  H   H44       1.0  0.62025  0.48040  0.79885  1.0000
  H   H45       1.0  0.46070  0.96255  0.25665  1.0000
  H   H46       1.0  0.53931  0.03745  0.74336  1.0000
  H   H47       1.0  0.33080  0.77631  0.21411  1.0000
  H   H48       1.0  0.66920  0.22369  0.78589  1.0000
  C   C1        1.0  0.62029  0.91712  0.39296  1.0000
  C   C2        1.0  0.37971  0.08288  0.60704  1.0000
  C   C3        1.0  0.86859  0.36648  0.14221  1.0000
  C   C4        1.0  0.13141  0.63352  0.85779  1.0000
  C   C5        1.0  0.72539  0.53454  0.44422  1.0000
  C   C6        1.0  0.27461  0.46546  0.55578  1.0000
  C   C7        1.0  0.77056  0.53499  0.05203  1.0000
  C   C8        1.0  0.22943  0.46501  0.94797  1.0000
  C   C9        1.0  0.61424  0.40662  0.36793  1.0000
  C   C10       1.0  0.38576  0.59338  0.63207  1.0000
  C   C11       1.0  0.54744  0.32017  0.20405  1.0000
  C   C12       1.0  0.45256  0.67983  0.79595  1.0000
  C   C13       1.0  0.43603  0.65435  0.33619  1.0000
  C   C14       1.0  0.56397  0.34565  0.66381  1.0000
  C   C15       1.0  0.91163  0.68326  0.07667  1.0000
  C   C16       1.0  0.08838  0.31674  0.92333  1.0000
  C   C17       1.0  0.57860  0.37224  0.11837  1.0000
  C   C18       1.0  0.42140  0.62776  0.88163  1.0000
  C   C19       1.0  0.53752  0.82686  0.15605  1.0000
  C   C20       1.0  0.46248  0.17315  0.84395  1.0000
  C   C21       1.0  0.41782  0.50476  0.27114  1.0000
  C   C22       1.0  0.58218  0.49524  0.72886  1.0000
  C   C23       1.0  0.46236  0.84143  0.23706  1.0000
  C   C24       1.0  0.53763  0.15857  0.76294  1.0000
  C   C25       1.0  0.93751  0.36469  0.23989  1.0000
  C   C26       1.0  0.06248  0.63531  0.76011  1.0000
  C   C27       1.0  0.78236  0.01776  0.38523  1.0000
  C   C28       1.0  0.21764  0.98224  0.61477  1.0000
  N   N1        1.0  0.75183  0.46270  0.12973  1.0000
  N   N2        1.0  0.24817  0.53730  0.87027  1.0000
  N   N3        1.0  0.57242  0.45311  0.27984  1.0000
  N   N4        1.0  0.42758  0.54689  0.72016  1.0000
  N   N5        1.0  0.54724  0.78784  0.31491  1.0000
  N   N6        1.0  0.45276  0.21216  0.68509  1.0000
  Cl  Cl1       1.0  0.70287  0.88898  0.62114  1.0000
  Cl  Cl2       1.0  0.29713  0.11102  0.37886  1.0000
  O   O1        1.0  0.80252  0.66189  0.42676  1.0000
  O   O2        1.0  0.19748  0.33812  0.57324  1.0000
  O   O3        1.0  0.92587  0.46602  0.30208  1.0000
  O   O4        1.0  0.07413  0.53398  0.69792  1.0000
  O   O5        1.0  0.97633  0.74416  0.16079  1.0000
  O   O6        1.0  0.02367  0.25584  0.83921  1.0000
  O   O7        1.0  0.85959  0.96456  0.33124  1.0000
  O   O8        1.0  0.14041  0.03544  0.66876  1.0000
  O   O9        1.0  0.10827  0.04917  0.15222  1.0000
  O   O10       1.0  0.89173  0.95083  0.84778  1.0000
  O   O11       1.0  0.73488  0.00682  0.01089  1.0000
  O   O12       1.0  0.26512  0.99317  0.98911  1.0000
  O   O13       1.0  0.83848  0.15377  0.43536  1.0000
  O   O14       1.0  0.16152  0.84622  0.56464  1.0000
  O   O15       1.0  0.94961  0.73817  0.01090  1.0000
  O   O16       1.0  0.05039  0.26183  0.98910  1.0000
  O   O17       1.0  0.00913  0.25841  0.25496  1.0000
  O   O18       1.0  0.99087  0.74159  0.74504  1.0000
  O   O19       1.0  0.10188  0.78619  0.36895  1.0000
  O   O20       1.0  0.89812  0.21381  0.63105  1.0000
  O   O21       1.0  0.74216  0.51109  0.52402  1.0000
  O   O22       1.0  0.25784  0.48891  0.47598  1.0000
  O   O23       1.0  0.63613  0.74124  0.15363  1.0000
  O   O24       1.0  0.36387  0.25876  0.84637  1.0000
  O   O25       1.0  0.49790  0.89876  0.09436  1.0000
  O   O26       1.0  0.50210  0.10125  0.90564  1.0000
