data_image0
_chemical_formula_structural       MgH8C6S2N2O8
_chemical_formula_sum              "Mg1 H8 C6 S2 N2 O8"
_cell_length_a       5.0218
_cell_length_b       7.41639
_cell_length_c       7.75827
_cell_angle_alpha    84.3755
_cell_angle_beta     85.8236
_cell_angle_gamma    72.4425

_space_group_name_H-M_alt    "P 1"
_space_group_IT_number       1

loop_
  _space_group_symop_operation_xyz
  'x, y, z'

loop_
  _atom_site_type_symbol
  _atom_site_label
  _atom_site_symmetry_multiplicity
  _atom_site_fract_x
  _atom_site_fract_y
  _atom_site_fract_z
  _atom_site_occupancy
  Mg  Mg1       1.0  0.50000  0.00000  0.00000  1.0000
  H   H1        1.0  0.02280  0.98683  0.18220  1.0000
  H   H2        1.0  0.97720  0.01317  0.81780  1.0000
  H   H3        1.0  0.24841  0.78546  0.22409  1.0000
  H   H4        1.0  0.75159  0.21454  0.77591  1.0000
  H   H5        1.0  0.03270  0.29933  0.01805  1.0000
  H   H6        1.0  0.96729  0.70067  0.98195  1.0000
  H   H7        1.0  0.25683  0.37133  0.89962  1.0000
  H   H8        1.0  0.74316  0.62867  0.10039  1.0000
  C   C1        1.0  0.97861  0.41637  0.54150  1.0000
  C   C2        1.0  0.02139  0.58363  0.45850  1.0000
  C   C3        1.0  0.36520  0.37699  0.33034  1.0000
  C   C4        1.0  0.63479  0.62301  0.66966  1.0000
  C   C5        1.0  0.61352  0.29304  0.21462  1.0000
  C   C6        1.0  0.38648  0.70696  0.78539  1.0000
  S   S1        1.0  0.22592  0.22199  0.46467  1.0000
  S   S2        1.0  0.77408  0.77801  0.53533  1.0000
  N   N1        1.0  0.24003  0.56088  0.34083  1.0000
  N   N2        1.0  0.75997  0.43912  0.65917  1.0000
  O   O1        1.0  0.21250  0.25441  0.94836  1.0000
  O   O2        1.0  0.78750  0.74559  0.05165  1.0000
  O   O3        1.0  0.22688  0.91919  0.17930  1.0000
  O   O4        1.0  0.77312  0.08081  0.82070  1.0000
  O   O5        1.0  0.74856  0.39955  0.14060  1.0000
  O   O6        1.0  0.25145  0.60045  0.85940  1.0000
  O   O7        1.0  0.67286  0.11455  0.20130  1.0000
  O   O8        1.0  0.32714  0.88545  0.79870  1.0000
