data_image0
_chemical_formula_structural       Mn2H14C12N18O10
_chemical_formula_sum              "Mn2 H14 C12 N18 O10"
_cell_length_a       8.74672
_cell_length_b       9.18269
_cell_length_c       9.18269
_cell_angle_alpha    113.916
_cell_angle_beta     106.279
_cell_angle_gamma    106.28

_space_group_name_H-M_alt    "P 1"
_space_group_IT_number       1

loop_
  _space_group_symop_operation_xyz
  'x, y, z'

loop_
  _atom_site_type_symbol
  _atom_site_label
  _atom_site_symmetry_multiplicity
  _atom_site_fract_x
  _atom_site_fract_y
  _atom_site_fract_z
  _atom_site_occupancy
  Mn  Mn1       1.0  0.17453  0.68337  0.41143  1.0000
  Mn  Mn2       1.0  0.67453  0.41143  0.68337  1.0000
  H   H1        1.0  0.38631  0.22018  0.95554  1.0000
  H   H2        1.0  0.88632  0.95555  0.22018  1.0000
  H   H3        1.0  0.75055  0.10805  0.65270  1.0000
  H   H4        1.0  0.25055  0.65270  0.10806  1.0000
  H   H5        1.0  0.65536  0.92241  0.42741  1.0000
  H   H6        1.0  0.15536  0.42741  0.92241  1.0000
  H   H7        1.0  0.84275  0.25891  0.18405  1.0000
  H   H8        1.0  0.34275  0.18405  0.25891  1.0000
  H   H9        1.0  0.66817  0.32131  0.16019  1.0000
  H   H10       1.0  0.16817  0.16019  0.32131  1.0000
  H   H11       1.0  0.03752  0.39544  0.46918  1.0000
  H   H12       1.0  0.53752  0.46918  0.39543  1.0000
  H   H13       1.0  0.07458  0.58017  0.62802  1.0000
  H   H14       1.0  0.57457  0.62802  0.58016  1.0000
  C   C1        1.0  0.17072  0.02891  0.71451  1.0000
  C   C2        1.0  0.67072  0.71451  0.02891  1.0000
  C   C3        1.0  0.45184  0.02190  0.81713  1.0000
  C   C4        1.0  0.95184  0.81713  0.02191  1.0000
  C   C5        1.0  0.83074  0.39777  0.03946  1.0000
  C   C6        1.0  0.33074  0.03946  0.39777  1.0000
  C   C7        1.0  0.77460  0.04482  0.53748  1.0000
  C   C8        1.0  0.27460  0.53748  0.04482  1.0000
  C   C9        1.0  0.82578  0.17256  0.47186  1.0000
  C   C10       1.0  0.32578  0.47186  0.17256  1.0000
  C   C11       1.0  0.74199  0.26896  0.09117  1.0000
  C   C12       1.0  0.24199  0.09117  0.26896  1.0000
  N   N1        1.0  0.91618  0.99697  0.58816  1.0000
  N   N2        1.0  0.41618  0.58816  0.99697  1.0000
  N   N3        1.0  0.08026  0.86883  0.55723  1.0000
  N   N4        1.0  0.58026  0.55723  0.86883  1.0000
  N   N5        1.0  0.06891  0.11296  0.73797  1.0000
  N   N6        1.0  0.56891  0.73797  0.11296  1.0000
  N   N7        1.0  0.91860  0.85215  0.47795  1.0000
  N   N8        1.0  0.41860  0.47795  0.85215  1.0000
  N   N9        1.0  0.41233  0.86411  0.68051  1.0000
  N   N10       1.0  0.91233  0.68051  0.86411  1.0000
  N   N11       1.0  0.34361  0.10094  0.83744  1.0000
  N   N12       1.0  0.84361  0.83744  0.10094  1.0000
  N   N13       1.0  0.56252  0.84172  0.71950  1.0000
  N   N14       1.0  0.06252  0.71950  0.84172  1.0000
  N   N15       1.0  0.62349  0.09118  0.93737  1.0000
  N   N16       1.0  0.12349  0.93737  0.09119  1.0000
  N   N17       1.0  0.69034  0.97623  0.87087  1.0000
  N   N18       1.0  0.19034  0.87087  0.97623  1.0000
  O   O1        1.0  0.78474  0.33860  0.87531  1.0000
  O   O2        1.0  0.28474  0.87531  0.33860  1.0000
  O   O3        1.0  0.92077  0.15571  0.38942  1.0000
  O   O4        1.0  0.42076  0.38941  0.15571  1.0000
  O   O5        1.0  0.76958  0.28943  0.50405  1.0000
  O   O6        1.0  0.26958  0.50405  0.28943  1.0000
  O   O7        1.0  0.94138  0.55460  0.16709  1.0000
  O   O8        1.0  0.44138  0.16708  0.55460  1.0000
  O   O9        1.0  0.10264  0.52611  0.52775  1.0000
  O   O10       1.0  0.60265  0.52775  0.52611  1.0000
