data_image0
_chemical_formula_structural       Ca2H18C12N18O12
_chemical_formula_sum              "Ca2 H18 C12 N18 O12"
_cell_length_a       7.56367
_cell_length_b       9.62718
_cell_length_c       9.62714
_cell_angle_alpha    95.4164
_cell_angle_beta     100.524
_cell_angle_gamma    100.524

_space_group_name_H-M_alt    "P 1"
_space_group_IT_number       1

loop_
  _space_group_symop_operation_xyz
  'x, y, z'

loop_
  _atom_site_type_symbol
  _atom_site_label
  _atom_site_symmetry_multiplicity
  _atom_site_fract_x
  _atom_site_fract_y
  _atom_site_fract_z
  _atom_site_occupancy
  Ca  Ca1       1.0  0.01546  0.99787  0.06407  1.0000
  Ca  Ca2       1.0  0.51546  0.06407  0.99787  1.0000
  H   H1        1.0  0.53942  0.84763  0.66791  1.0000
  H   H2        1.0  0.03943  0.66791  0.84763  1.0000
  H   H3        1.0  0.63409  0.99667  0.58870  1.0000
  H   H4        1.0  0.13409  0.58871  0.99667  1.0000
  H   H5        1.0  0.91123  0.48187  0.35660  1.0000
  H   H6        1.0  0.41124  0.35661  0.48187  1.0000
  H   H7        1.0  0.24221  0.89531  0.29670  1.0000
  H   H8        1.0  0.74221  0.29670  0.89531  1.0000
  H   H9        1.0  0.06133  0.90207  0.34547  1.0000
  H   H10       1.0  0.56133  0.34546  0.90206  1.0000
  H   H11       1.0  0.82108  0.74378  0.16185  1.0000
  H   H12       1.0  0.32108  0.16184  0.74378  1.0000
  H   H13       1.0  0.68965  0.76041  0.02046  1.0000
  H   H14       1.0  0.18965  0.02046  0.76041  1.0000
  H   H15       1.0  0.00917  0.11897  0.43929  1.0000
  H   H16       1.0  0.50916  0.43928  0.11897  1.0000
  H   H17       1.0  0.02942  0.27163  0.34936  1.0000
  H   H18       1.0  0.52941  0.34936  0.27162  1.0000
  C   C1        1.0  0.80926  0.96073  0.78096  1.0000
  C   C2        1.0  0.30926  0.78097  0.96073  1.0000
  C   C3        1.0  0.66585  0.90675  0.64321  1.0000
  C   C4        1.0  0.16586  0.64321  0.90675  1.0000
  C   C5        1.0  0.81721  0.63679  0.46523  1.0000
  C   C6        1.0  0.31721  0.46524  0.63679  1.0000
  C   C7        1.0  0.85119  0.40923  0.54104  1.0000
  C   C8        1.0  0.35120  0.54104  0.40923  1.0000
  C   C9        1.0  0.93814  0.20236  0.40267  1.0000
  C   C10       1.0  0.43814  0.40267  0.20236  1.0000
  C   C11       1.0  0.76122  0.13652  0.29250  1.0000
  C   C12       1.0  0.26123  0.29250  0.13651  1.0000
  N   N1        1.0  0.73151  0.81315  0.54693  1.0000
  N   N2        1.0  0.23152  0.54693  0.81315  1.0000
  N   N3        1.0  0.84600  0.73733  0.37677  1.0000
  N   N4        1.0  0.34601  0.37678  0.73734  1.0000
  N   N5        1.0  0.79113  0.85014  0.43253  1.0000
  N   N6        1.0  0.29113  0.43253  0.85014  1.0000
  N   N7        1.0  0.74382  0.68124  0.57316  1.0000
  N   N8        1.0  0.24383  0.57316  0.68124  1.0000
  N   N9        1.0  0.85268  0.50202  0.44143  1.0000
  N   N10       1.0  0.35268  0.44142  0.50202  1.0000
  N   N11       1.0  0.80522  0.42887  0.66786  1.0000
  N   N12       1.0  0.30522  0.66786  0.42888  1.0000
  N   N13       1.0  0.90267  0.28172  0.52602  1.0000
  N   N14       1.0  0.40267  0.52602  0.28173  1.0000
  N   N15       1.0  0.83108  0.31052  0.72861  1.0000
  N   N16       1.0  0.33108  0.72861  0.31052  1.0000
  N   N17       1.0  0.88756  0.22119  0.64642  1.0000
  N   N18       1.0  0.38755  0.64642  0.22119  1.0000
  O   O1        1.0  0.96848  0.93431  0.79417  1.0000
  O   O2        1.0  0.46850  0.79417  0.93431  1.0000
  O   O3        1.0  0.15159  0.95799  0.30094  1.0000
  O   O4        1.0  0.65159  0.30093  0.95799  1.0000
  O   O5        1.0  0.81975  0.76422  0.06352  1.0000
  O   O6        1.0  0.31975  0.06352  0.76422  1.0000
  O   O7        1.0  0.61022  0.16058  0.31293  1.0000
  O   O8        1.0  0.11020  0.31294  0.16058  1.0000
  O   O9        1.0  0.78438  0.06400  0.18097  1.0000
  O   O10       1.0  0.28437  0.18098  0.06401  1.0000
  O   O11       1.0  0.75586  0.02845  0.88025  1.0000
  O   O12       1.0  0.25587  0.88024  0.02845  1.0000
