data_image0
_chemical_formula_structural       Co2H12C8N28
_chemical_formula_sum              "Co2 H12 C8 N28"
_cell_length_a       6.44204
_cell_length_b       8.99233
_cell_length_c       9.36999
_cell_angle_alpha    74.5295
_cell_angle_beta     87.2435
_cell_angle_gamma    70.7092

_space_group_name_H-M_alt    "P 1"
_space_group_IT_number       1

loop_
  _space_group_symop_operation_xyz
  'x, y, z'

loop_
  _atom_site_type_symbol
  _atom_site_label
  _atom_site_symmetry_multiplicity
  _atom_site_fract_x
  _atom_site_fract_y
  _atom_site_fract_z
  _atom_site_occupancy
  Co  Co1       1.0  0.99922  0.99893  0.99717  1.0000
  Co  Co2       1.0  0.50088  0.99968  0.50056  1.0000
  H   H1        1.0  0.56826  0.85751  0.05079  1.0000
  H   H2        1.0  0.43091  0.14253  0.94956  1.0000
  H   H3        1.0  0.92061  0.60101  0.11148  1.0000
  H   H4        1.0  0.07925  0.39907  0.88850  1.0000
  H   H5        1.0  0.87753  0.41387  0.11621  1.0000
  H   H6        1.0  0.12235  0.58617  0.88388  1.0000
  H   H7        1.0  0.76890  0.19818  0.27410  1.0000
  H   H8        1.0  0.23159  0.80153  0.72623  1.0000
  H   H9        1.0  0.83777  0.57070  0.37719  1.0000
  H   H10       1.0  0.16235  0.42938  0.62282  1.0000
  H   H11       1.0  0.06755  0.40670  0.34656  1.0000
  H   H12       1.0  0.93251  0.59337  0.65330  1.0000
  C   C1        1.0  0.48794  0.76571  0.07282  1.0000
  C   C2        1.0  0.51151  0.23415  0.92703  1.0000
  C   C3        1.0  0.82927  0.51871  0.16412  1.0000
  C   C4        1.0  0.17059  0.48140  0.83592  1.0000
  C   C5        1.0  0.73033  0.23337  0.37662  1.0000
  C   C6        1.0  0.27021  0.76637  0.62372  1.0000
  C   C7        1.0  0.88826  0.46578  0.32966  1.0000
  C   C8        1.0  0.11180  0.53431  0.67033  1.0000
  N   N1        1.0  0.24092  0.10688  0.22406  1.0000
  N   N2        1.0  0.75845  0.89505  0.77599  1.0000
  N   N3        1.0  0.19653  0.11411  0.70644  1.0000
  N   N4        1.0  0.80405  0.88527  0.29379  1.0000
  N   N5        1.0  0.59555  0.60528  0.12825  1.0000
  N   N6        1.0  0.40422  0.39471  0.87202  1.0000
  N   N7        1.0  0.62769  0.16762  0.48990  1.0000
  N   N8        1.0  0.37341  0.83195  0.51072  1.0000
  N   N9        1.0  0.27566  0.78613  0.05890  1.0000
  N   N10       1.0  0.72394  0.21328  0.94043  1.0000
  N   N11       1.0  0.38527  0.11580  0.29274  1.0000
  N   N12       1.0  0.61494  0.88372  0.70809  1.0000
  N   N13       1.0  0.77972  0.35244  0.41313  1.0000
  N   N14       1.0  0.22040  0.64762  0.58693  1.0000
  N   N15       1.0  0.70876  0.35939  0.55024  1.0000
  N   N16       1.0  0.29146  0.64083  0.44980  1.0000
  N   N17       1.0  0.61689  0.24768  0.59586  1.0000
  N   N18       1.0  0.38387  0.75227  0.40451  1.0000
  N   N19       1.0  0.22022  0.13074  0.57651  1.0000
  N   N20       1.0  0.78128  0.86713  0.42392  1.0000
  N   N21       1.0  0.44773  0.52466  0.14835  1.0000
  N   N22       1.0  0.55250  0.47495  0.85193  1.0000
  N   N23       1.0  0.25654  0.63429  0.10644  1.0000
  N   N24       1.0  0.74361  0.36496  0.89328  1.0000
  N   N25       1.0  0.16928  0.10462  0.83364  1.0000
  N   N26       1.0  0.82851  0.89639  0.16620  1.0000
  N   N27       1.0  0.09568  0.11148  0.14849  1.0000
  N   N28       1.0  0.90333  0.89231  0.85090  1.0000
