data_image0
_chemical_formula_structural       Cu4H12C20N20O8
_chemical_formula_sum              "Cu4 H12 C20 N20 O8"
_cell_length_a       7.6245
_cell_length_b       7.62497
_cell_length_c       13.0804
_cell_angle_alpha    96.5505
_cell_angle_beta     96.5505
_cell_angle_gamma    99.2046

_space_group_name_H-M_alt    "P 1"
_space_group_IT_number       1

loop_
  _space_group_symop_operation_xyz
  'x, y, z'

loop_
  _atom_site_type_symbol
  _atom_site_label
  _atom_site_symmetry_multiplicity
  _atom_site_fract_x
  _atom_site_fract_y
  _atom_site_fract_z
  _atom_site_occupancy
  Cu  Cu1       1.0  0.60428  0.39573  0.75000  1.0000
  Cu  Cu2       1.0  0.39576  0.60423  0.24999  1.0000
  Cu  Cu3       1.0  0.32440  0.67562  0.75000  1.0000
  Cu  Cu4       1.0  0.67537  0.32463  0.25000  1.0000
  H   H1        1.0  0.83071  0.30398  0.94583  1.0000
  H   H2        1.0  0.69601  0.16929  0.55419  1.0000
  H   H3        1.0  0.17115  0.69569  0.05583  1.0000
  H   H4        1.0  0.30433  0.82882  0.44416  1.0000
  H   H5        1.0  0.61325  0.74203  0.94353  1.0000
  H   H6        1.0  0.25798  0.38677  0.55647  1.0000
  H   H7        1.0  0.38759  0.25766  0.05699  1.0000
  H   H8        1.0  0.74232  0.61244  0.44301  1.0000
  H   H9        1.0  0.83480  0.02070  0.02882  1.0000
  H   H10       1.0  0.97930  0.16520  0.47119  1.0000
  H   H11       1.0  0.16658  0.97821  0.97190  1.0000
  H   H12       1.0  0.02181  0.83342  0.52809  1.0000
  C   C1        1.0  0.39513  0.02700  0.68528  1.0000
  C   C2        1.0  0.97301  0.60487  0.81472  1.0000
  C   C3        1.0  0.60612  0.97555  0.31657  1.0000
  C   C4        1.0  0.02441  0.39386  0.18344  1.0000
  C   C5        1.0  0.51692  0.02816  0.78603  1.0000
  C   C6        1.0  0.97185  0.48309  0.71396  1.0000
  C   C7        1.0  0.48393  0.97292  0.21574  1.0000
  C   C8        1.0  0.02707  0.51606  0.28427  1.0000
  C   C9        1.0  0.62158  0.86987  0.91337  1.0000
  C   C10       1.0  0.13014  0.37843  0.58663  1.0000
  C   C11       1.0  0.37921  0.13006  0.08747  1.0000
  C   C12       1.0  0.86993  0.62080  0.41253  1.0000
  C   C13       1.0  0.74397  0.02186  0.95865  1.0000
  C   C14       1.0  0.97815  0.25603  0.54136  1.0000
  C   C15       1.0  0.25729  0.97764  0.04224  1.0000
  C   C16       1.0  0.02236  0.74271  0.45775  1.0000
  C   C17       1.0  0.74256  0.17826  0.91338  1.0000
  C   C18       1.0  0.82174  0.25744  0.58663  1.0000
  C   C19       1.0  0.25899  0.82177  0.08802  1.0000
  C   C20       1.0  0.17825  0.74100  0.41198  1.0000
  N   N1        1.0  0.50697  0.87512  0.82793  1.0000
  N   N2        1.0  0.12489  0.49304  0.67207  1.0000
  N   N3        1.0  0.49324  0.12553  0.17328  1.0000
  N   N4        1.0  0.87445  0.50676  0.32673  1.0000
  N   N5        1.0  0.62952  0.17915  0.82663  1.0000
  N   N6        1.0  0.82084  0.37049  0.67337  1.0000
  N   N7        1.0  0.37184  0.82167  0.17507  1.0000
  N   N8        1.0  0.17834  0.62813  0.32493  1.0000
  N   N9        1.0  0.42144  0.46724  0.84289  1.0000
  N   N10       1.0  0.53277  0.57858  0.65710  1.0000
  N   N11       1.0  0.57654  0.53372  0.15689  1.0000
  N   N12       1.0  0.46635  0.42338  0.34304  1.0000
  N   N13       1.0  0.29918  0.35374  0.85686  1.0000
  N   N14       1.0  0.64627  0.70084  0.64314  1.0000
  N   N15       1.0  0.69958  0.64677  0.14329  1.0000
  N   N16       1.0  0.35329  0.30039  0.35669  1.0000
  N   N17       1.0  0.17833  0.24782  0.87021  1.0000
  N   N18       1.0  0.75220  0.82170  0.62980  1.0000
  N   N19       1.0  0.82134  0.75162  0.12999  1.0000
  N   N20       1.0  0.24842  0.17870  0.37004  1.0000
  O   O1        1.0  0.41084  0.16962  0.64450  1.0000
  O   O2        1.0  0.83038  0.58917  0.85550  1.0000
  O   O3        1.0  0.59126  0.83411  0.35815  1.0000
  O   O4        1.0  0.16582  0.40866  0.14185  1.0000
  O   O5        1.0  0.29127  0.88016  0.65049  1.0000
  O   O6        1.0  0.11986  0.70874  0.84950  1.0000
  O   O7        1.0  0.70987  0.12326  0.35015  1.0000
  O   O8        1.0  0.87666  0.29013  0.14988  1.0000
