data_image0
_chemical_formula_structural       V4Ag8H12C20N8O20
_chemical_formula_sum              "V4 Ag8 H12 C20 N8 O20"
_cell_length_a       3.57489
_cell_length_b       11.9672
_cell_length_c       19
_cell_angle_alpha    89.1219
_cell_angle_beta     88.4437
_cell_angle_gamma    86.5855

_space_group_name_H-M_alt    "P 1"
_space_group_IT_number       1

loop_
  _space_group_symop_operation_xyz
  'x, y, z'

loop_
  _atom_site_type_symbol
  _atom_site_label
  _atom_site_symmetry_multiplicity
  _atom_site_fract_x
  _atom_site_fract_y
  _atom_site_fract_z
  _atom_site_occupancy
  V   V1        1.0  0.24511  0.07161  0.94804  1.0000
  V   V2        1.0  0.75489  0.92839  0.05196  1.0000
  V   V3        1.0  0.76715  0.43943  0.44375  1.0000
  V   V4        1.0  0.23285  0.56058  0.55624  1.0000
  Ag  Ag1       1.0  0.17928  0.14334  0.48460  1.0000
  Ag  Ag2       1.0  0.82073  0.85666  0.51540  1.0000
  Ag  Ag3       1.0  0.81751  0.27046  0.85769  1.0000
  Ag  Ag4       1.0  0.18247  0.72954  0.14231  1.0000
  Ag  Ag5       1.0  0.39137  0.66194  0.00003  1.0000
  Ag  Ag6       1.0  0.60863  0.33807  0.99997  1.0000
  Ag  Ag7       1.0  0.61730  0.74359  0.64787  1.0000
  Ag  Ag8       1.0  0.38268  0.25641  0.35213  1.0000
  H   H1        1.0  0.11488  0.06360  0.76368  1.0000
  H   H2        1.0  0.88514  0.93641  0.23632  1.0000
  H   H3        1.0  0.60900  0.37412  0.70888  1.0000
  H   H4        1.0  0.39099  0.62588  0.29112  1.0000
  H   H5        1.0  0.73998  0.33371  0.58133  1.0000
  H   H6        1.0  0.26002  0.66627  0.41867  1.0000
  H   H7        1.0  0.06174  0.55265  0.73837  1.0000
  H   H8        1.0  0.93826  0.44735  0.26162  1.0000
  H   H9        1.0  0.91738  0.85409  0.90758  1.0000
  H   H10       1.0  0.08262  0.14591  0.09242  1.0000
  H   H11       1.0  0.68267  0.88027  0.78468  1.0000
  H   H12       1.0  0.31733  0.11973  0.21531  1.0000
  C   C1        1.0  0.31420  0.99281  0.63112  1.0000
  C   C2        1.0  0.68582  0.00718  0.36889  1.0000
  C   C3        1.0  0.10879  0.10188  0.65147  1.0000
  C   C4        1.0  0.89121  0.89812  0.34853  1.0000
  C   C5        1.0  0.03080  0.12385  0.72260  1.0000
  C   C6        1.0  0.96922  0.87615  0.27741  1.0000
  C   C7        1.0  0.75420  0.29587  0.69265  1.0000
  C   C8        1.0  0.24580  0.70413  0.30735  1.0000
  C   C9        1.0  0.82855  0.27324  0.62175  1.0000
  C   C10       1.0  0.17145  0.72675  0.37825  1.0000
  C   C11       1.0  0.35908  0.49593  0.86653  1.0000
  C   C12       1.0  0.64092  0.50407  0.13347  1.0000
  C   C13       1.0  0.02662  0.61983  0.77662  1.0000
  C   C14       1.0  0.97337  0.38016  0.22338  1.0000
  C   C15       1.0  0.16116  0.60567  0.84480  1.0000
  C   C16       1.0  0.83882  0.39433  0.15520  1.0000
  C   C17       1.0  0.95009  0.78620  0.87015  1.0000
  C   C18       1.0  0.04992  0.21380  0.12985  1.0000
  C   C19       1.0  0.82009  0.80131  0.80193  1.0000
  C   C20       1.0  0.17991  0.19869  0.19806  1.0000
  N   N1        1.0  0.00674  0.17721  0.60100  1.0000
  N   N2        1.0  0.99326  0.82278  0.39900  1.0000
  N   N3        1.0  0.85520  0.22081  0.74297  1.0000
  N   N4        1.0  0.14480  0.77919  0.25704  1.0000
  N   N5        1.0  0.85686  0.71759  0.75532  1.0000
  N   N6        1.0  0.14313  0.28241  0.24468  1.0000
  N   N7        1.0  0.12195  0.68951  0.89160  1.0000
  N   N8        1.0  0.87805  0.31049  0.10839  1.0000
  O   O1        1.0  0.32941  0.96894  0.56577  1.0000
  O   O2        1.0  0.67060  0.03105  0.43424  1.0000
  O   O3        1.0  0.45797  0.93497  0.68049  1.0000
  O   O4        1.0  0.54206  0.06503  0.31951  1.0000
  O   O5        1.0  0.53081  0.49421  0.92418  1.0000
  O   O6        1.0  0.46918  0.50579  0.07582  1.0000
  O   O7        1.0  0.34488  0.41565  0.82420  1.0000
  O   O8        1.0  0.65511  0.58434  0.17580  1.0000
  O   O9        1.0  0.22863  0.21615  0.94382  1.0000
  O   O10       1.0  0.77136  0.78386  0.05618  1.0000
  O   O11       1.0  0.27415  0.02188  0.86878  1.0000
  O   O12       1.0  0.72584  0.97812  0.13122  1.0000
  O   O13       1.0  0.74337  0.05694  0.98107  1.0000
  O   O14       1.0  0.25662  0.94307  0.01893  1.0000
  O   O15       1.0  0.80897  0.29666  0.43049  1.0000
  O   O16       1.0  0.19104  0.70334  0.56951  1.0000
  O   O17       1.0  0.26321  0.44731  0.47761  1.0000
  O   O18       1.0  0.73678  0.55270  0.52238  1.0000
  O   O19       1.0  0.76826  0.50348  0.36755  1.0000
  O   O20       1.0  0.23175  0.49652  0.63245  1.0000
