data_image0
_chemical_formula_structural       Sm2P8H54C36N4O24
_chemical_formula_sum              "Sm2 P8 H54 C36 N4 O24"
_cell_length_a       7.97957
_cell_length_b       12.6923
_cell_length_c       13.498
_cell_angle_alpha    115.529
_cell_angle_beta     92.5139
_cell_angle_gamma    92.9954

_space_group_name_H-M_alt    "P 1"
_space_group_IT_number       1

loop_
  _space_group_symop_operation_xyz
  'x, y, z'

loop_
  _atom_site_type_symbol
  _atom_site_label
  _atom_site_symmetry_multiplicity
  _atom_site_fract_x
  _atom_site_fract_y
  _atom_site_fract_z
  _atom_site_occupancy
  Sm  Sm1       1.0  0.78773  0.89126  0.51268  1.0000
  Sm  Sm2       1.0  0.21227  0.10874  0.48732  1.0000
  P   P1        1.0  0.13988  0.98117  0.63737  1.0000
  P   P2        1.0  0.86012  0.01883  0.36263  1.0000
  P   P3        1.0  0.54685  0.68677  0.59201  1.0000
  P   P4        1.0  0.45315  0.31323  0.40799  1.0000
  P   P5        1.0  0.58897  0.15969  0.66501  1.0000
  P   P6        1.0  0.41103  0.84031  0.33499  1.0000
  P   P7        1.0  0.02841  0.39327  0.58662  1.0000
  P   P8        1.0  0.97159  0.60673  0.41338  1.0000
  H   H1        1.0  0.19323  0.74351  0.61053  1.0000
  H   H2        1.0  0.80677  0.25649  0.38947  1.0000
  H   H3        1.0  0.66635  0.35362  0.61642  1.0000
  H   H4        1.0  0.33365  0.64638  0.38358  1.0000
  H   H5        1.0  0.14096  0.04486  0.89517  1.0000
  H   H6        1.0  0.85905  0.95514  0.10483  1.0000
  H   H7        1.0  0.23100  0.15428  0.09414  1.0000
  H   H8        1.0  0.76900  0.84572  0.90586  1.0000
  H   H9        1.0  0.31360  0.04593  0.20317  1.0000
  H   H10       1.0  0.68640  0.95407  0.79683  1.0000
  H   H11       1.0  0.32665  0.83137  0.10938  1.0000
  H   H12       1.0  0.67335  0.16863  0.89062  1.0000
  H   H13       1.0  0.23843  0.72145  0.90949  1.0000
  H   H14       1.0  0.76157  0.27855  0.09051  1.0000
  H   H15       1.0  0.02063  0.84844  0.74776  1.0000
  H   H16       1.0  0.97937  0.15155  0.25224  1.0000
  H   H17       1.0  0.08880  0.71754  0.75023  1.0000
  H   H18       1.0  0.91120  0.28245  0.24977  1.0000
  H   H19       1.0  0.41070  0.90243  0.63133  1.0000
  H   H20       1.0  0.58930  0.09757  0.36867  1.0000
  H   H21       1.0  0.35720  0.97763  0.76902  1.0000
  H   H22       1.0  0.64280  0.02237  0.23098  1.0000
  H   H23       1.0  0.35335  0.66433  0.71403  1.0000
  H   H24       1.0  0.64665  0.33567  0.28597  1.0000
  H   H25       1.0  0.47655  0.80092  0.78156  1.0000
  H   H26       1.0  0.52345  0.19908  0.21844  1.0000
  H   H27       1.0  0.76553  0.66777  0.88243  1.0000
  H   H28       1.0  0.23447  0.33223  0.11757  1.0000
  H   H29       1.0  0.88564  0.77158  0.07686  1.0000
  H   H30       1.0  0.11436  0.22842  0.92313  1.0000
  H   H31       1.0  0.86767  0.67332  0.20041  1.0000
  H   H32       1.0  0.13233  0.32668  0.79959  1.0000
  H   H33       1.0  0.74420  0.46747  0.12702  1.0000
  H   H34       1.0  0.25580  0.53254  0.87298  1.0000
  H   H35       1.0  0.62318  0.36397  0.93280  1.0000
  H   H36       1.0  0.37682  0.63603  0.06721  1.0000
  H   H37       1.0  0.57502  0.51381  0.74935  1.0000
  H   H38       1.0  0.42498  0.48619  0.25065  1.0000
  H   H39       1.0  0.50457  0.38893  0.76915  1.0000
  H   H40       1.0  0.49543  0.61106  0.23084  1.0000
  H   H41       1.0  0.82356  0.29003  0.78713  1.0000
  H   H42       1.0  0.17644  0.70997  0.21287  1.0000
  H   H43       1.0  0.86560  0.22404  0.64508  1.0000
  H   H44       1.0  0.13440  0.77596  0.35491  1.0000
  H   H45       1.0  0.96118  0.47167  0.77787  1.0000
  H   H46       1.0  0.03882  0.52833  0.22213  1.0000
  H   H47       1.0  0.84729  0.53252  0.70092  1.0000
  H   H48       1.0  0.15271  0.46748  0.29908  1.0000
  H   H49       1.0  0.60427  0.50987  0.57369  1.0000
  H   H50       1.0  0.39573  0.49013  0.42631  1.0000
  H   H51       1.0  0.36290  0.17449  0.74752  1.0000
  H   H52       1.0  0.63710  0.82551  0.25248  1.0000
  H   H53       1.0  0.12122  0.55153  0.57265  1.0000
  H   H54       1.0  0.87878  0.44847  0.42735  1.0000
  C   C1        1.0  0.18759  0.99852  0.94126  1.0000
  C   C2        1.0  0.81241  0.00148  0.05874  1.0000
  C   C3        1.0  0.23610  0.05947  0.05335  1.0000
  C   C4        1.0  0.76390  0.94052  0.94665  1.0000
  C   C5        1.0  0.28434  0.99952  0.11444  1.0000
  C   C6        1.0  0.71566  0.00048  0.88556  1.0000
  C   C7        1.0  0.28706  0.87782  0.06200  1.0000
  C   C8        1.0  0.71294  0.12218  0.93800  1.0000
  C   C9        1.0  0.23976  0.81685  0.94981  1.0000
  C   C10       1.0  0.76024  0.18315  0.05019  1.0000
  C   C11       1.0  0.18876  0.87620  0.88818  1.0000
  C   C12       1.0  0.81124  0.12380  0.11182  1.0000
  C   C13       1.0  0.12650  0.80902  0.76966  1.0000
  C   C14       1.0  0.87350  0.19098  0.23034  1.0000
  C   C15       1.0  0.30750  0.91580  0.68571  1.0000
  C   C16       1.0  0.69250  0.08420  0.31429  1.0000
  C   C17       1.0  0.40491  0.74111  0.70465  1.0000
  C   C18       1.0  0.59509  0.25889  0.29535  1.0000
  C   C19       1.0  0.76382  0.62329  0.93590  1.0000
  C   C20       1.0  0.23618  0.37671  0.06410  1.0000
  C   C21       1.0  0.83031  0.68173  0.04480  1.0000
  C   C22       1.0  0.16968  0.31827  0.95520  1.0000
  C   C23       1.0  0.82361  0.62558  0.11379  1.0000
  C   C24       1.0  0.17639  0.37443  0.88621  1.0000
  C   C25       1.0  0.75245  0.51053  0.07250  1.0000
  C   C26       1.0  0.24756  0.48947  0.92750  1.0000
  C   C27       1.0  0.68589  0.45174  0.96343  1.0000
  C   C28       1.0  0.31411  0.54826  0.03657  1.0000
  C   C29       1.0  0.69075  0.50794  0.89390  1.0000
  C   C30       1.0  0.30925  0.49206  0.10610  1.0000
  C   C31       1.0  0.61340  0.44916  0.77769  1.0000
  C   C32       1.0  0.38660  0.55083  0.22231  1.0000
  C   C33       1.0  0.77123  0.26653  0.70309  1.0000
  C   C34       1.0  0.22877  0.73347  0.29691  1.0000
  C   C35       1.0  0.88915  0.45103  0.69982  1.0000
  C   C36       1.0  0.11085  0.54897  0.30018  1.0000
  N   N1        1.0  0.25715  0.80120  0.68745  1.0000
  N   N2        1.0  0.74285  0.19880  0.31255  1.0000
  N   N3        1.0  0.73326  0.37629  0.69348  1.0000
  N   N4        1.0  0.26674  0.62371  0.30652  1.0000
  O   O1        1.0  0.97275  0.95906  0.67817  1.0000
  O   O2        1.0  0.02725  0.04094  0.32182  1.0000
  O   O3        1.0  0.20217  0.11099  0.67709  1.0000
  O   O4        1.0  0.79783  0.88901  0.32291  1.0000
  O   O5        1.0  0.12265  0.92600  0.50994  1.0000
  O   O6        1.0  0.87735  0.07399  0.49006  1.0000
  O   O7        1.0  0.44068  0.62094  0.48357  1.0000
  O   O8        1.0  0.55932  0.37906  0.51643  1.0000
  O   O9        1.0  0.64394  0.59709  0.62196  1.0000
  O   O10       1.0  0.35607  0.40291  0.37804  1.0000
  O   O11       1.0  0.66804  0.78755  0.60471  1.0000
  O   O12       1.0  0.33196  0.21245  0.39529  1.0000
  O   O13       1.0  0.48600  0.20789  0.77268  1.0000
  O   O14       1.0  0.51400  0.79211  0.22732  1.0000
  O   O15       1.0  0.65105  0.04259  0.64564  1.0000
  O   O16       1.0  0.34895  0.95741  0.35436  1.0000
  O   O17       1.0  0.48846  0.16611  0.56980  1.0000
  O   O18       1.0  0.51154  0.83389  0.43020  1.0000
  O   O19       1.0  0.12064  0.29687  0.59572  1.0000
  O   O20       1.0  0.87936  0.70313  0.40428  1.0000
  O   O21       1.0  0.15424  0.50556  0.61633  1.0000
  O   O22       1.0  0.84576  0.49444  0.38367  1.0000
  O   O23       1.0  0.92695  0.36459  0.47878  1.0000
  O   O24       1.0  0.07305  0.63541  0.52122  1.0000
