data_image0
_chemical_formula_structural       Sm2H26C32O24
_chemical_formula_sum              "Sm2 H26 C32 O24"
_cell_length_a       8.90115
_cell_length_b       9.79464
_cell_length_c       12.1232
_cell_angle_alpha    100.45
_cell_angle_beta     103.956
_cell_angle_gamma    108.428

_space_group_name_H-M_alt    "P 1"
_space_group_IT_number       1

loop_
  _space_group_symop_operation_xyz
  'x, y, z'

loop_
  _atom_site_type_symbol
  _atom_site_label
  _atom_site_symmetry_multiplicity
  _atom_site_fract_x
  _atom_site_fract_y
  _atom_site_fract_z
  _atom_site_occupancy
  Sm  Sm1       1.0  0.27194  0.03841  0.96124  1.0000
  Sm  Sm2       1.0  0.72806  0.96160  0.03875  1.0000
  H   H1        1.0  0.68354  0.42676  0.32539  1.0000
  H   H2        1.0  0.31646  0.57324  0.67461  1.0000
  H   H3        1.0  0.67938  0.46320  0.68470  1.0000
  H   H4        1.0  0.32062  0.53680  0.31530  1.0000
  H   H5        1.0  0.27860  0.11421  0.39510  1.0000
  H   H6        1.0  0.72138  0.88580  0.60490  1.0000
  H   H7        1.0  0.65779  0.50533  0.95076  1.0000
  H   H8        1.0  0.34222  0.49467  0.04924  1.0000
  H   H9        1.0  0.77407  0.13486  0.79446  1.0000
  H   H10       1.0  0.22594  0.86514  0.20554  1.0000
  H   H11       1.0  0.09563  0.59106  0.84195  1.0000
  H   H12       1.0  0.90437  0.40895  0.15805  1.0000
  H   H13       1.0  0.93095  0.97044  0.79339  1.0000
  H   H14       1.0  0.06905  0.02956  0.20661  1.0000
  H   H15       1.0  0.14329  0.79158  0.73908  1.0000
  H   H16       1.0  0.85671  0.20842  0.26092  1.0000
  H   H17       1.0  0.01832  0.72315  0.50578  1.0000
  H   H18       1.0  0.98168  0.27684  0.49422  1.0000
  H   H19       1.0  0.43985  0.27188  0.70380  1.0000
  H   H20       1.0  0.56015  0.72812  0.29620  1.0000
  H   H21       1.0  0.12545  0.37407  0.74279  1.0000
  H   H22       1.0  0.87456  0.62594  0.25721  1.0000
  H   H23       1.0  0.05044  0.11439  0.77383  1.0000
  H   H24       1.0  0.94956  0.88561  0.22617  1.0000
  H   H25       1.0  0.33354  0.80754  0.80020  1.0000
  H   H26       1.0  0.66646  0.19247  0.19980  1.0000
  C   C1        1.0  0.47499  0.26211  0.34717  1.0000
  C   C2        1.0  0.52501  0.73789  0.65283  1.0000
  C   C3        1.0  0.62579  0.38612  0.38848  1.0000
  C   C4        1.0  0.37420  0.61388  0.61152  1.0000
  C   C5        1.0  0.69877  0.45740  0.50979  1.0000
  C   C6        1.0  0.30122  0.54260  0.49021  1.0000
  C   C7        1.0  0.62158  0.40522  0.59052  1.0000
  C   C8        1.0  0.37841  0.59477  0.40948  1.0000
  C   C9        1.0  0.46966  0.28135  0.54868  1.0000
  C   C10       1.0  0.53033  0.71865  0.45132  1.0000
  C   C11       1.0  0.39694  0.21007  0.42670  1.0000
  C   C12       1.0  0.60305  0.78993  0.57330  1.0000
  C   C13       1.0  0.40120  0.18651  0.21743  1.0000
  C   C14       1.0  0.59880  0.81349  0.78257  1.0000
  C   C15       1.0  0.85732  0.59028  0.55494  1.0000
  C   C16       1.0  0.14268  0.40971  0.44506  1.0000
  C   C17       1.0  0.88099  0.56372  0.90065  1.0000
  C   C18       1.0  0.11901  0.43628  0.09935  1.0000
  C   C19       1.0  0.73719  0.46266  0.91093  1.0000
  C   C20       1.0  0.26281  0.53734  0.08907  1.0000
  C   C21       1.0  0.70120  0.30886  0.87449  1.0000
  C   C22       1.0  0.29881  0.69114  0.12551  1.0000
  C   C23       1.0  0.80213  0.25484  0.82184  1.0000
  C   C24       1.0  0.19788  0.74516  0.17816  1.0000
  C   C25       1.0  0.94089  0.35648  0.80672  1.0000
  C   C26       1.0  0.05912  0.64352  0.19329  1.0000
  C   C27       1.0  0.98372  0.51080  0.84887  1.0000
  C   C28       1.0  0.01629  0.48920  0.15113  1.0000
  C   C29       1.0  0.92246  0.72845  0.94747  1.0000
  C   C30       1.0  0.07755  0.27156  0.05253  1.0000
  C   C31       1.0  0.55409  0.20492  0.89499  1.0000
  C   C32       1.0  0.44592  0.79508  0.10502  1.0000
  O   O1        1.0  0.25664  0.08186  0.17441  1.0000
  O   O2        1.0  0.74336  0.91814  0.82560  1.0000
  O   O3        1.0  0.48784  0.22692  0.15010  1.0000
  O   O4        1.0  0.51216  0.77308  0.84990  1.0000
  O   O5        1.0  0.91809  0.63124  0.46809  1.0000
  O   O6        1.0  0.08192  0.36875  0.53191  1.0000
  O   O7        1.0  0.93005  0.65912  0.65993  1.0000
  O   O8        1.0  0.06995  0.34088  0.34006  1.0000
  O   O9        1.0  0.38262  0.22422  0.61865  1.0000
  O   O10       1.0  0.61737  0.77578  0.38135  1.0000
  O   O11       1.0  0.05321  0.82028  0.93839  1.0000
  O   O12       1.0  0.94679  0.17973  0.06161  1.0000
  O   O13       1.0  0.82314  0.76546  0.99426  1.0000
  O   O14       1.0  0.17686  0.23455  0.00574  1.0000
  O   O15       1.0  0.56679  0.09930  0.94117  1.0000
  O   O16       1.0  0.43321  0.90070  0.05883  1.0000
  O   O17       1.0  0.41756  0.22613  0.86850  1.0000
  O   O18       1.0  0.58244  0.77387  0.13150  1.0000
  O   O19       1.0  0.03197  0.29586  0.75060  1.0000
  O   O20       1.0  0.96803  0.70414  0.24940  1.0000
  O   O21       1.0  0.04208  0.01504  0.78348  1.0000
  O   O22       1.0  0.95792  0.98496  0.21653  1.0000
  O   O23       1.0  0.25858  0.86292  0.78314  1.0000
  O   O24       1.0  0.74142  0.13708  0.21686  1.0000
