data_image0
_chemical_formula_structural       Er2P2H8C4S2O12
_chemical_formula_sum              "Er2 P2 H8 C4 S2 O12"
_cell_length_a       5.45352
_cell_length_b       7.7508
_cell_length_c       8.61962
_cell_angle_alpha    90.0006
_cell_angle_beta     90.0014
_cell_angle_gamma    97.9228

_space_group_name_H-M_alt    "P 1"
_space_group_IT_number       1

loop_
  _space_group_symop_operation_xyz
  'x, y, z'

loop_
  _atom_site_type_symbol
  _atom_site_label
  _atom_site_symmetry_multiplicity
  _atom_site_fract_x
  _atom_site_fract_y
  _atom_site_fract_z
  _atom_site_occupancy
  Er  Er1       1.0  0.74175  0.60867  0.76185  1.0000
  Er  Er2       1.0  0.24176  0.10866  0.23816  1.0000
  P   P1        1.0  0.17644  0.34173  0.88314  1.0000
  P   P2        1.0  0.67645  0.84172  0.11687  1.0000
  H   H1        1.0  0.06879  0.19243  0.64675  1.0000
  H   H2        1.0  0.56875  0.69240  0.35324  1.0000
  H   H3        1.0  0.97026  0.06007  0.81114  1.0000
  H   H4        1.0  0.47027  0.56006  0.18883  1.0000
  H   H5        1.0  0.51612  0.14815  0.70491  1.0000
  H   H6        1.0  0.01613  0.64816  0.29507  1.0000
  H   H7        1.0  0.40511  0.00351  0.85961  1.0000
  H   H8        1.0  0.90512  0.50350  0.14039  1.0000
  C   C1        1.0  0.12445  0.14914  0.76128  1.0000
  C   C2        1.0  0.62444  0.64914  0.23871  1.0000
  C   C3        1.0  0.35597  0.06003  0.74873  1.0000
  C   C4        1.0  0.85597  0.56003  0.25127  1.0000
  S   S1        1.0  0.31378  0.88274  0.61605  1.0000
  S   S2        1.0  0.81377  0.38276  0.38395  1.0000
  O   O1        1.0  0.39279  0.46261  0.81160  1.0000
  O   O2        1.0  0.89278  0.96261  0.18842  1.0000
  O   O3        1.0  0.93625  0.42438  0.88166  1.0000
  O   O4        1.0  0.43623  0.92435  0.11835  1.0000
  O   O5        1.0  0.23863  0.28572  0.04781  1.0000
  O   O6        1.0  0.73863  0.78573  0.95219  1.0000
  O   O7        1.0  0.54434  0.80298  0.61573  1.0000
  O   O8        1.0  0.04438  0.30299  0.38426  1.0000
  O   O9        1.0  0.26578  0.95197  0.46182  1.0000
  O   O10       1.0  0.76582  0.45200  0.53819  1.0000
  O   O11       1.0  0.10021  0.76136  0.67022  1.0000
  O   O12       1.0  0.60022  0.26137  0.32980  1.0000
