data_image0
_chemical_formula_structural       Cd2H24C24I4N4
_chemical_formula_sum              "Cd2 H24 C24 I4 N4"
_cell_length_a       4.46018
_cell_length_b       8.84124
_cell_length_c       19.2467
_cell_angle_alpha    98.6848
_cell_angle_beta     89.8569
_cell_angle_gamma    104.758

_space_group_name_H-M_alt    "P 1"
_space_group_IT_number       1

loop_
  _space_group_symop_operation_xyz
  'x, y, z'

loop_
  _atom_site_type_symbol
  _atom_site_label
  _atom_site_symmetry_multiplicity
  _atom_site_fract_x
  _atom_site_fract_y
  _atom_site_fract_z
  _atom_site_occupancy
  Cd  Cd1       1.0  0.79267  0.99961  0.75014  1.0000
  Cd  Cd2       1.0  0.20734  0.00039  0.24986  1.0000
  H   H1        1.0  0.17784  0.10986  0.86883  1.0000
  H   H2        1.0  0.06853  0.89083  0.63108  1.0000
  H   H3        1.0  0.82215  0.89014  0.13117  1.0000
  H   H4        1.0  0.93146  0.10917  0.36892  1.0000
  H   H5        1.0  0.25175  0.24868  0.81767  1.0000
  H   H6        1.0  0.00375  0.75117  0.68176  1.0000
  H   H7        1.0  0.74825  0.75132  0.18233  1.0000
  H   H8        1.0  0.99625  0.24883  0.31824  1.0000
  H   H9        1.0  0.79894  0.10269  0.96116  1.0000
  H   H10       1.0  0.69987  0.89718  0.53876  1.0000
  H   H11       1.0  0.20105  0.89731  0.03885  1.0000
  H   H12       1.0  0.30013  0.10282  0.46124  1.0000
  H   H13       1.0  0.51677  0.25954  0.03795  1.0000
  H   H14       1.0  0.26094  0.74044  0.46204  1.0000
  H   H15       1.0  0.48323  0.74046  0.96205  1.0000
  H   H16       1.0  0.73906  0.25957  0.53796  1.0000
  H   H17       1.0  0.69612  0.61239  0.89939  1.0000
  H   H18       1.0  0.08053  0.38761  0.60063  1.0000
  H   H19       1.0  0.30390  0.38761  0.10061  1.0000
  H   H20       1.0  0.91947  0.61239  0.39936  1.0000
  H   H21       1.0  0.97883  0.45537  0.82356  1.0000
  H   H22       1.0  0.51990  0.54473  0.67646  1.0000
  H   H23       1.0  0.02118  0.54463  0.17644  1.0000
  H   H24       1.0  0.48010  0.45526  0.32353  1.0000
  C   C1        1.0  0.91057  0.26881  0.88734  1.0000
  C   C2        1.0  0.64211  0.73109  0.61261  1.0000
  C   C3        1.0  0.08943  0.73119  0.11266  1.0000
  C   C4        1.0  0.35789  0.26891  0.38739  1.0000
  C   C5        1.0  0.77352  0.21416  0.94734  1.0000
  C   C6        1.0  0.56155  0.78570  0.55259  1.0000
  C   C7        1.0  0.22648  0.78584  0.05266  1.0000
  C   C8        1.0  0.43844  0.21430  0.44741  1.0000
  C   C9        1.0  0.61244  0.30434  0.99071  1.0000
  C   C10       1.0  0.31022  0.69554  0.50924  1.0000
  C   C11       1.0  0.38756  0.69566  0.00929  1.0000
  C   C12       1.0  0.68977  0.30446  0.49076  1.0000
  C   C13       1.0  0.58100  0.45109  0.97611  1.0000
  C   C14       1.0  0.13005  0.54889  0.52386  1.0000
  C   C15       1.0  0.41901  0.54892  0.02389  1.0000
  C   C16       1.0  0.86994  0.45111  0.47614  1.0000
  C   C17       1.0  0.71327  0.50073  0.91420  1.0000
  C   C18       1.0  0.21093  0.49920  0.58575  1.0000
  C   C19       1.0  0.28674  0.49927  0.08580  1.0000
  C   C20       1.0  0.78907  0.50080  0.41424  1.0000
  C   C21       1.0  0.87382  0.41139  0.87031  1.0000
  C   C22       1.0  0.46074  0.58858  0.62967  1.0000
  C   C23       1.0  0.12619  0.58861  0.12969  1.0000
  C   C24       1.0  0.53926  0.41142  0.37033  1.0000
  I   I1        1.0  0.50444  0.18812  0.68111  1.0000
  I   I2        1.0  0.31491  0.81206  0.81976  1.0000
  I   I3        1.0  0.49556  0.81188  0.31889  1.0000
  I   I4        1.0  0.68509  0.18793  0.18024  1.0000
  N   N1        1.0  0.07911  0.17910  0.84279  1.0000
  N   N2        1.0  0.90043  0.82086  0.65710  1.0000
  N   N3        1.0  0.92089  0.82090  0.15721  1.0000
  N   N4        1.0  0.09957  0.17914  0.34290  1.0000
