data_image0
_chemical_formula_structural       Cd2H44C32Br4N4
_chemical_formula_sum              "Cd2 H44 C32 Br4 N4"
_cell_length_a       4.31373
_cell_length_b       14.4914
_cell_length_c       14.4605
_cell_angle_alpha    111.529
_cell_angle_beta     90.0001
_cell_angle_gamma    90.0003

_space_group_name_H-M_alt    "P 1"
_space_group_IT_number       1

loop_
  _space_group_symop_operation_xyz
  'x, y, z'

loop_
  _atom_site_type_symbol
  _atom_site_label
  _atom_site_symmetry_multiplicity
  _atom_site_fract_x
  _atom_site_fract_y
  _atom_site_fract_z
  _atom_site_occupancy
  Cd  Cd1       1.0  0.49761  1.00000  0.75000  1.0000
  Cd  Cd2       1.0  0.50239  0.00000  0.25000  1.0000
  H   H1        1.0  0.83645  0.83051  0.66304  1.0000
  H   H2        1.0  0.83645  0.16949  0.83696  1.0000
  H   H3        1.0  0.16355  0.16949  0.33696  1.0000
  H   H4        1.0  0.16355  0.83051  0.16304  1.0000
  H   H5        1.0  0.80825  0.88792  0.58342  1.0000
  H   H6        1.0  0.80825  0.11208  0.91658  1.0000
  H   H7        1.0  0.19175  0.11208  0.41658  1.0000
  H   H8        1.0  0.19176  0.88792  0.08342  1.0000
  H   H9        1.0  0.40235  0.85959  0.46361  1.0000
  H   H10       1.0  0.40235  0.14041  0.03638  1.0000
  H   H11       1.0  0.59763  0.14041  0.53639  1.0000
  H   H12       1.0  0.59766  0.85959  0.96362  1.0000
  H   H13       1.0  0.02213  0.73718  0.36001  1.0000
  H   H14       1.0  0.02212  0.26282  0.13999  1.0000
  H   H15       1.0  0.97786  0.26283  0.63999  1.0000
  H   H16       1.0  0.97788  0.73717  0.86001  1.0000
  H   H17       1.0  0.88419  0.58934  0.40193  1.0000
  H   H18       1.0  0.88419  0.41066  0.09807  1.0000
  H   H19       1.0  0.11582  0.41066  0.59807  1.0000
  H   H20       1.0  0.11581  0.58934  0.90193  1.0000
  H   H21       1.0  0.11719  0.56959  0.55017  1.0000
  H   H22       1.0  0.11720  0.43041  0.94983  1.0000
  H   H23       1.0  0.88282  0.43041  0.44983  1.0000
  H   H24       1.0  0.88280  0.56959  0.05017  1.0000
  H   H25       1.0  0.45435  0.75906  0.75075  1.0000
  H   H26       1.0  0.45436  0.24094  0.74925  1.0000
  H   H27       1.0  0.54565  0.24094  0.24925  1.0000
  H   H28       1.0  0.54564  0.75906  0.25075  1.0000
  H   H29       1.0  0.77953  0.69947  0.68224  1.0000
  H   H30       1.0  0.77954  0.30054  0.81776  1.0000
  H   H31       1.0  0.22047  0.30053  0.31776  1.0000
  H   H32       1.0  0.22047  0.69946  0.18224  1.0000
  H   H33       1.0  0.19228  0.59185  0.71106  1.0000
  H   H34       1.0  0.19229  0.40815  0.78894  1.0000
  H   H35       1.0  0.80771  0.40815  0.28894  1.0000
  H   H36       1.0  0.80771  0.59185  0.21106  1.0000
  H   H37       1.0  0.55395  0.59943  0.77107  1.0000
  H   H38       1.0  0.55396  0.40057  0.72893  1.0000
  H   H39       1.0  0.44605  0.40057  0.22893  1.0000
  H   H40       1.0  0.44604  0.59943  0.27107  1.0000
  H   H41       1.0  0.52321  0.53285  0.64103  1.0000
  H   H42       1.0  0.52322  0.46715  0.85896  1.0000
  H   H43       1.0  0.47679  0.46715  0.35896  1.0000
  H   H44       1.0  0.47678  0.53285  0.14104  1.0000
  C   C1        1.0  0.46881  0.78417  0.56600  1.0000
  C   C2        1.0  0.46881  0.21583  0.93399  1.0000
  C   C3        1.0  0.53118  0.21583  0.43399  1.0000
  C   C4        1.0  0.53119  0.78417  0.06601  1.0000
  C   C5        1.0  0.33793  0.79576  0.48245  1.0000
  C   C6        1.0  0.33793  0.20424  0.01755  1.0000
  C   C7        1.0  0.66207  0.20424  0.51756  1.0000
  C   C8        1.0  0.66208  0.79576  0.98245  1.0000
  C   C9        1.0  0.12718  0.72598  0.42361  1.0000
  C   C10       1.0  0.12718  0.27402  0.07639  1.0000
  C   C11       1.0  0.87281  0.27403  0.57639  1.0000
  C   C12       1.0  0.87283  0.72598  0.92361  1.0000
  C   C13       1.0  0.04950  0.64403  0.44753  1.0000
  C   C14       1.0  0.04950  0.35597  0.05247  1.0000
  C   C15       1.0  0.95050  0.35597  0.55247  1.0000
  C   C16       1.0  0.95050  0.64403  0.94754  1.0000
  C   C17       1.0  0.17972  0.63353  0.53151  1.0000
  C   C18       1.0  0.17972  0.36647  0.96849  1.0000
  C   C19       1.0  0.82028  0.36647  0.46849  1.0000
  C   C20       1.0  0.82028  0.63353  0.03151  1.0000
  C   C21       1.0  0.38751  0.70338  0.59330  1.0000
  C   C22       1.0  0.38751  0.29662  0.90669  1.0000
  C   C23       1.0  0.61250  0.29662  0.40670  1.0000
  C   C24       1.0  0.61249  0.70338  0.09331  1.0000
  C   C25       1.0  0.52461  0.69398  0.68550  1.0000
  C   C26       1.0  0.52462  0.30602  0.81449  1.0000
  C   C27       1.0  0.47539  0.30602  0.31450  1.0000
  C   C28       1.0  0.47538  0.69398  0.18551  1.0000
  C   C29       1.0  0.44351  0.59920  0.70269  1.0000
  C   C30       1.0  0.44352  0.40080  0.79731  1.0000
  C   C31       1.0  0.55650  0.40080  0.29731  1.0000
  C   C32       1.0  0.55649  0.59920  0.20269  1.0000
  Br  Br1       1.0  0.08568  0.93316  0.84842  1.0000
  Br  Br2       1.0  0.08568  0.06684  0.65158  1.0000
  Br  Br3       1.0  0.91432  0.06684  0.15158  1.0000
  Br  Br4       1.0  0.91432  0.93316  0.34843  1.0000
  N   N1        1.0  0.68233  0.85704  0.62488  1.0000
  N   N2        1.0  0.68233  0.14296  0.87512  1.0000
  N   N3        1.0  0.31767  0.14297  0.37512  1.0000
  N   N4        1.0  0.31767  0.85704  0.12488  1.0000
