data_image0
_chemical_formula_structural       Cd2H16C24O10
_chemical_formula_sum              "Cd2 H16 C24 O10"
_cell_length_a       6.31144
_cell_length_b       7.27824
_cell_length_c       12.3886
_cell_angle_alpha    92.0198
_cell_angle_beta     107.141
_cell_angle_gamma    86.4823

_space_group_name_H-M_alt    "P 1"
_space_group_IT_number       1

loop_
  _space_group_symop_operation_xyz
  'x, y, z'

loop_
  _atom_site_type_symbol
  _atom_site_label
  _atom_site_symmetry_multiplicity
  _atom_site_fract_x
  _atom_site_fract_y
  _atom_site_fract_z
  _atom_site_occupancy
  Cd  Cd1       1.0  0.67948  0.25417  0.00598  1.0000
  Cd  Cd2       1.0  0.32049  0.74580  0.99401  1.0000
  H   H1        1.0  0.14269  0.32496  0.05939  1.0000
  H   H2        1.0  0.89120  0.84966  0.02081  1.0000
  H   H3        1.0  0.85729  0.67504  0.94062  1.0000
  H   H4        1.0  0.10880  0.15036  0.97919  1.0000
  H   H5        1.0  0.20402  0.63373  0.61683  1.0000
  H   H6        1.0  0.40320  0.13682  0.62761  1.0000
  H   H7        1.0  0.79600  0.36626  0.38318  1.0000
  H   H8        1.0  0.59679  0.86320  0.37240  1.0000
  H   H9        1.0  0.86978  0.42116  0.77990  1.0000
  H   H10       1.0  0.92604  0.93072  0.77345  1.0000
  H   H11       1.0  0.13026  0.57884  0.22011  1.0000
  H   H12       1.0  0.07392  0.06929  0.22654  1.0000
  H   H13       1.0  0.06532  0.64066  0.40593  1.0000
  H   H14       1.0  0.32408  0.13875  0.41791  1.0000
  H   H15       1.0  0.93470  0.35933  0.59407  1.0000
  H   H16       1.0  0.67593  0.86122  0.58206  1.0000
  C   C1        1.0  0.39464  0.53963  0.50303  1.0000
  C   C2        1.0  0.10480  0.03937  0.50619  1.0000
  C   C3        1.0  0.60539  0.46036  0.49698  1.0000
  C   C4        1.0  0.89521  0.96064  0.49381  1.0000
  C   C5        1.0  0.36256  0.57357  0.61040  1.0000
  C   C6        1.0  0.24386  0.07662  0.61613  1.0000
  C   C7        1.0  0.63745  0.42643  0.38960  1.0000
  C   C8        1.0  0.75614  0.92339  0.38386  1.0000
  C   C9        1.0  0.53091  0.53101  0.70843  1.0000
  C   C10       1.0  0.17986  0.03808  0.71049  1.0000
  C   C11       1.0  0.46910  0.46901  0.29157  1.0000
  C   C12       1.0  0.82012  0.96192  0.28951  1.0000
  C   C13       1.0  0.49090  0.56662  0.82011  1.0000
  C   C14       1.0  0.32902  0.08176  0.82509  1.0000
  C   C15       1.0  0.50911  0.43338  0.17990  1.0000
  C   C16       1.0  0.67095  0.91824  0.17491  1.0000
  C   C17       1.0  0.73934  0.45364  0.70216  1.0000
  C   C18       1.0  0.97283  0.96014  0.69818  1.0000
  C   C19       1.0  0.26070  0.54637  0.29784  1.0000
  C   C20       1.0  0.02715  0.03987  0.30181  1.0000
  C   C21       1.0  0.22495  0.58066  0.40109  1.0000
  C   C22       1.0  0.16557  0.07772  0.40784  1.0000
  C   C23       1.0  0.77509  0.41935  0.59891  1.0000
  C   C24       1.0  0.83444  0.92228  0.59215  1.0000
  O   O1        1.0  0.65171  0.53866  0.91155  1.0000
  O   O2        1.0  0.27307  0.04329  0.91284  1.0000
  O   O3        1.0  0.34829  0.46135  0.08846  1.0000
  O   O4        1.0  0.72690  0.95671  0.08717  1.0000
  O   O5        1.0  0.29867  0.62718  0.82233  1.0000
  O   O6        1.0  0.50837  0.15942  0.83176  1.0000
  O   O7        1.0  0.70132  0.37278  0.17767  1.0000
  O   O8        1.0  0.49162  0.84058  0.16825  1.0000
  O   O9        1.0  0.04577  0.21873  0.03462  1.0000
  O   O10       1.0  0.95422  0.78127  0.96538  1.0000
