data_image0
_chemical_formula_structural       Zn4H32C48N8O20
_chemical_formula_sum              "Zn4 H32 C48 N8 O20"
_cell_length_a       8.24975
_cell_length_b       12.0334
_cell_length_c       12.62
_cell_angle_alpha    98.7955
_cell_angle_beta     90
_cell_angle_gamma    90

_space_group_name_H-M_alt    "P 1"
_space_group_IT_number       1

loop_
  _space_group_symop_operation_xyz
  'x, y, z'

loop_
  _atom_site_type_symbol
  _atom_site_label
  _atom_site_symmetry_multiplicity
  _atom_site_fract_x
  _atom_site_fract_y
  _atom_site_fract_z
  _atom_site_occupancy
  Zn  Zn1       1.0  0.92694  0.51988  0.69396  1.0000
  Zn  Zn2       1.0  0.42694  0.98012  0.80604  1.0000
  Zn  Zn3       1.0  0.07306  0.48012  0.30604  1.0000
  Zn  Zn4       1.0  0.57306  0.01988  0.19396  1.0000
  H   H1        1.0  0.18248  0.55298  0.57943  1.0000
  H   H2        1.0  0.68248  0.94702  0.92057  1.0000
  H   H3        1.0  0.81752  0.44702  0.42057  1.0000
  H   H4        1.0  0.31752  0.05298  0.07943  1.0000
  H   H5        1.0  0.04496  0.62550  0.53856  1.0000
  H   H6        1.0  0.54496  0.87450  0.96144  1.0000
  H   H7        1.0  0.95504  0.37450  0.46144  1.0000
  H   H8        1.0  0.45504  0.12550  0.03856  1.0000
  H   H9        1.0  0.57221  0.31664  0.03620  1.0000
  H   H10       1.0  0.07222  0.18336  0.46381  1.0000
  H   H11       1.0  0.42779  0.68336  0.96381  1.0000
  H   H12       1.0  0.92778  0.81665  0.53620  1.0000
  H   H13       1.0  0.70092  0.50618  0.07476  1.0000
  H   H14       1.0  0.20092  0.99382  0.42524  1.0000
  H   H15       1.0  0.29908  0.49382  0.92524  1.0000
  H   H16       1.0  0.79908  0.00618  0.57476  1.0000
  H   H17       1.0  0.76210  0.28739  0.71530  1.0000
  H   H18       1.0  0.26210  0.21261  0.78470  1.0000
  H   H19       1.0  0.23790  0.71261  0.28470  1.0000
  H   H20       1.0  0.73790  0.78739  0.21530  1.0000
  H   H21       1.0  0.82253  0.65806  0.09469  1.0000
  H   H22       1.0  0.32253  0.84194  0.40531  1.0000
  H   H23       1.0  0.17747  0.34194  0.90531  1.0000
  H   H24       1.0  0.67746  0.15806  0.59469  1.0000
  H   H25       1.0  0.97471  0.84060  0.10505  1.0000
  H   H26       1.0  0.47471  0.65940  0.39495  1.0000
  H   H27       1.0  0.02529  0.15940  0.89495  1.0000
  H   H28       1.0  0.52529  0.34060  0.60505  1.0000
  H   H29       1.0  0.09307  0.74814  0.77132  1.0000
  H   H30       1.0  0.59307  0.75186  0.72868  1.0000
  H   H31       1.0  0.90693  0.25186  0.22868  1.0000
  H   H32       1.0  0.40693  0.24814  0.27132  1.0000
  C   C1        1.0  0.59400  0.16938  0.84217  1.0000
  C   C2        1.0  0.09400  0.33062  0.65784  1.0000
  C   C3        1.0  0.40600  0.83062  0.15784  1.0000
  C   C4        1.0  0.90600  0.66938  0.34216  1.0000
  C   C5        1.0  0.65914  0.28586  0.87267  1.0000
  C   C6        1.0  0.15914  0.21414  0.62733  1.0000
  C   C7        1.0  0.34086  0.71414  0.12733  1.0000
  C   C8        1.0  0.84086  0.78586  0.37267  1.0000
  C   C9        1.0  0.63994  0.35029  0.97404  1.0000
  C   C10       1.0  0.13994  0.14971  0.52596  1.0000
  C   C11       1.0  0.36006  0.64971  0.02596  1.0000
  C   C12       1.0  0.86006  0.85029  0.47404  1.0000
  C   C13       1.0  0.71001  0.45672  0.99509  1.0000
  C   C14       1.0  0.21001  0.04328  0.50491  1.0000
  C   C15       1.0  0.28999  0.54328  0.00491  1.0000
  C   C16       1.0  0.78999  0.95672  0.49509  1.0000
  C   C17       1.0  0.79302  0.49864  0.91250  1.0000
  C   C18       1.0  0.29302  0.00136  0.58750  1.0000
  C   C19       1.0  0.20698  0.50136  0.08750  1.0000
  C   C20       1.0  0.70698  0.99864  0.41250  1.0000
  C   C21       1.0  0.74360  0.33418  0.79528  1.0000
  C   C22       1.0  0.24360  0.16582  0.70472  1.0000
  C   C23       1.0  0.25640  0.66582  0.20472  1.0000
  C   C24       1.0  0.75640  0.83418  0.29528  1.0000
  C   C25       1.0  0.87466  0.60930  0.92581  1.0000
  C   C26       1.0  0.37466  0.89070  0.57419  1.0000
  C   C27       1.0  0.12534  0.39070  0.07419  1.0000
  C   C28       1.0  0.62534  0.10930  0.42581  1.0000
  C   C29       1.0  0.87930  0.68188  0.02356  1.0000
  C   C30       1.0  0.37930  0.81812  0.47644  1.0000
  C   C31       1.0  0.12070  0.31812  0.97644  1.0000
  C   C32       1.0  0.62069  0.18188  0.52356  1.0000
  C   C33       1.0  0.96530  0.78211  0.03028  1.0000
  C   C34       1.0  0.46529  0.71789  0.46972  1.0000
  C   C35       1.0  0.03471  0.21789  0.96972  1.0000
  C   C36       1.0  0.53470  0.28211  0.53028  1.0000
  C   C37       1.0  0.04584  0.80769  0.93983  1.0000
  C   C38       1.0  0.54583  0.69231  0.56017  1.0000
  C   C39       1.0  0.95416  0.19231  0.06017  1.0000
  C   C40       1.0  0.45416  0.30769  0.43983  1.0000
  C   C41       1.0  0.03281  0.73205  0.84432  1.0000
  C   C42       1.0  0.53281  0.76795  0.65568  1.0000
  C   C43       1.0  0.96719  0.26795  0.15568  1.0000
  C   C44       1.0  0.46719  0.23205  0.34432  1.0000
  C   C45       1.0  0.15513  0.90866  0.94604  1.0000
  C   C46       1.0  0.65513  0.59134  0.55396  1.0000
  C   C47       1.0  0.84487  0.09134  0.05396  1.0000
  C   C48       1.0  0.34487  0.40866  0.44604  1.0000
  N   N1        1.0  0.80540  0.43747  0.81384  1.0000
  N   N2        1.0  0.30540  0.06254  0.68616  1.0000
  N   N3        1.0  0.19460  0.56253  0.18616  1.0000
  N   N4        1.0  0.69460  0.93747  0.31384  1.0000
  N   N5        1.0  0.94999  0.63575  0.83761  1.0000
  N   N6        1.0  0.45000  0.86425  0.66239  1.0000
  N   N7        1.0  0.05001  0.36425  0.16238  1.0000
  N   N8        1.0  0.55001  0.13575  0.33762  1.0000
  O   O1        1.0  0.47956  0.13766  0.90094  1.0000
  O   O2        1.0  0.97957  0.36234  0.59906  1.0000
  O   O3        1.0  0.52044  0.86234  0.09906  1.0000
  O   O4        1.0  0.02043  0.63766  0.40094  1.0000
  O   O5        1.0  0.64684  0.10873  0.75949  1.0000
  O   O6        1.0  0.14685  0.39128  0.74051  1.0000
  O   O7        1.0  0.35315  0.89127  0.24051  1.0000
  O   O8        1.0  0.85316  0.60873  0.25949  1.0000
  O   O9        1.0  0.21795  0.92302  0.85632  1.0000
  O   O10       1.0  0.71795  0.57698  0.64368  1.0000
  O   O11       1.0  0.78205  0.07698  0.14368  1.0000
  O   O12       1.0  0.28205  0.42302  0.35632  1.0000
  O   O13       1.0  0.17795  0.96568  0.03686  1.0000
  O   O14       1.0  0.67795  0.53432  0.46314  1.0000
  O   O15       1.0  0.82205  0.03432  0.96314  1.0000
  O   O16       1.0  0.32205  0.46568  0.53686  1.0000
  O   O17       1.0  0.08848  0.60450  0.60601  1.0000
  O   O18       1.0  0.58848  0.89550  0.89399  1.0000
  O   O19       1.0  0.91152  0.39550  0.39399  1.0000
  O   O20       1.0  0.41152  0.10450  0.10601  1.0000
