data_image0
_chemical_formula_structural       Ni4H32C48N8O20
_chemical_formula_sum              "Ni4 H32 C48 N8 O20"
_cell_length_a       8.1392
_cell_length_b       12.0274
_cell_length_c       12.5386
_cell_angle_alpha    97.132
_cell_angle_beta     90
_cell_angle_gamma    90

_space_group_name_H-M_alt    "P 1"
_space_group_IT_number       1

loop_
  _space_group_symop_operation_xyz
  'x, y, z'

loop_
  _atom_site_type_symbol
  _atom_site_label
  _atom_site_symmetry_multiplicity
  _atom_site_fract_x
  _atom_site_fract_y
  _atom_site_fract_z
  _atom_site_occupancy
  Ni  Ni1       1.0  0.56132  0.51248  0.70456  1.0000
  Ni  Ni2       1.0  0.06466  0.98905  0.79615  1.0000
  Ni  Ni3       1.0  0.43615  0.48855  0.29558  1.0000
  Ni  Ni4       1.0  0.93614  0.01021  0.20372  1.0000
  H   H1        1.0  0.31688  0.54351  0.57705  1.0000
  H   H2        1.0  0.82043  0.95776  0.92329  1.0000
  H   H3        1.0  0.68024  0.45746  0.42396  1.0000
  H   H4        1.0  0.18160  0.04319  0.07640  1.0000
  H   H5        1.0  0.45515  0.62165  0.54654  1.0000
  H   H6        1.0  0.95949  0.88013  0.95412  1.0000
  H   H7        1.0  0.54005  0.38111  0.45524  1.0000
  H   H8        1.0  0.04017  0.11846  0.04398  1.0000
  H   H9        1.0  0.43263  0.18773  0.46154  1.0000
  H   H10       1.0  0.93207  0.31211  0.03767  1.0000
  H   H11       1.0  0.56847  0.81254  0.53981  1.0000
  H   H12       1.0  0.06938  0.68700  0.95987  1.0000
  H   H13       1.0  0.30378  0.99835  0.42600  1.0000
  H   H14       1.0  0.79992  0.50046  0.07461  1.0000
  H   H15       1.0  0.70049  0.00102  0.57506  1.0000
  H   H16       1.0  0.20127  0.49848  0.92417  1.0000
  H   H17       1.0  0.24109  0.21182  0.78409  1.0000
  H   H18       1.0  0.74038  0.28949  0.71513  1.0000
  H   H19       1.0  0.75690  0.78765  0.21640  1.0000
  H   H20       1.0  0.25623  0.71048  0.28360  1.0000
  H   H21       1.0  0.18615  0.84026  0.41088  1.0000
  H   H22       1.0  0.68885  0.65935  0.08940  1.0000
  H   H23       1.0  0.81079  0.16049  0.58800  1.0000
  H   H24       1.0  0.31240  0.33908  0.91082  1.0000
  H   H25       1.0  0.02588  0.66053  0.40760  1.0000
  H   H26       1.0  0.53190  0.84067  0.09396  1.0000
  H   H27       1.0  0.96993  0.34071  0.59097  1.0000
  H   H28       1.0  0.47179  0.15890  0.90753  1.0000
  H   H29       1.0  0.89622  0.76268  0.73786  1.0000
  H   H30       1.0  0.39239  0.73863  0.76540  1.0000
  H   H31       1.0  0.10916  0.23475  0.26302  1.0000
  H   H32       1.0  0.60930  0.26371  0.23600  1.0000
  C   C1        1.0  0.41514  0.32982  0.65252  1.0000
  C   C2        1.0  0.91605  0.17121  0.84603  1.0000
  C   C3        1.0  0.58167  0.67101  0.34836  1.0000
  C   C4        1.0  0.08229  0.82799  0.15144  1.0000
  C   C5        1.0  0.34496  0.21546  0.62549  1.0000
  C   C6        1.0  0.84491  0.28532  0.87354  1.0000
  C   C7        1.0  0.65370  0.78479  0.37529  1.0000
  C   C8        1.0  0.15413  0.71415  0.12446  1.0000
  C   C9        1.0  0.36453  0.15275  0.52443  1.0000
  C   C10       1.0  0.86359  0.34727  0.97505  1.0000
  C   C11       1.0  0.63611  0.84731  0.47661  1.0000
  C   C12       1.0  0.13682  0.65194  0.02299  1.0000
  C   C13       1.0  0.29433  0.04675  0.50513  1.0000
  C   C14       1.0  0.79189  0.45270  0.99509  1.0000
  C   C15       1.0  0.70791  0.95280  0.49570  1.0000
  C   C16       1.0  0.20850  0.54643  0.00366  1.0000
  C   C17       1.0  0.20972  0.00364  0.58834  1.0000
  C   C18       1.0  0.70727  0.49618  0.91208  1.0000
  C   C19       1.0  0.79176  0.99561  0.41199  1.0000
  C   C20       1.0  0.29217  0.50332  0.08730  1.0000
  C   C21       1.0  0.25922  0.16672  0.70420  1.0000
  C   C22       1.0  0.75827  0.33418  0.79524  1.0000
  C   C23       1.0  0.73976  0.83295  0.29631  1.0000
  C   C24       1.0  0.23954  0.66560  0.20346  1.0000
  C   C25       1.0  0.12678  0.89412  0.57744  1.0000
  C   C26       1.0  0.62471  0.60577  0.92364  1.0000
  C   C27       1.0  0.87488  0.10494  0.42258  1.0000
  C   C28       1.0  0.37558  0.39404  0.07650  1.0000
  C   C29       1.0  0.12414  0.81936  0.48268  1.0000
  C   C30       1.0  0.62518  0.68069  0.01830  1.0000
  C   C31       1.0  0.87489  0.18068  0.51668  1.0000
  C   C32       1.0  0.37617  0.31861  0.98217  1.0000
  C   C33       1.0  0.03450  0.72057  0.48001  1.0000
  C   C34       1.0  0.53744  0.78033  0.02162  1.0000
  C   C35       1.0  0.96386  0.27966  0.51920  1.0000
  C   C36       1.0  0.46522  0.21966  0.97952  1.0000
  C   C37       1.0  0.94890  0.69856  0.57162  1.0000
  C   C38       1.0  0.45026  0.80278  0.93073  1.0000
  C   C39       1.0  0.05176  0.30069  0.42817  1.0000
  C   C40       1.0  0.55250  0.19828  0.07070  1.0000
  C   C41       1.0  0.96061  0.77588  0.66432  1.0000
  C   C42       1.0  0.45834  0.72496  0.83820  1.0000
  C   C43       1.0  0.04302  0.22226  0.33613  1.0000
  C   C44       1.0  0.54337  0.27647  0.16290  1.0000
  C   C45       1.0  0.83315  0.60009  0.56822  1.0000
  C   C46       1.0  0.33678  0.90246  0.93448  1.0000
  C   C47       1.0  0.16610  0.39984  0.43156  1.0000
  C   C48       1.0  0.66666  0.09907  0.06731  1.0000
  N   N1        1.0  0.19580  0.06382  0.68684  1.0000
  N   N2        1.0  0.69371  0.43675  0.81320  1.0000
  N   N3        1.0  0.80455  0.93546  0.31340  1.0000
  N   N4        1.0  0.30445  0.56313  0.18608  1.0000
  N   N5        1.0  0.04630  0.87097  0.66692  1.0000
  N   N6        1.0  0.54256  0.62920  0.83487  1.0000
  N   N7        1.0  0.95734  0.12715  0.33351  1.0000
  N   N8        1.0  0.45778  0.37163  0.16560  1.0000
  O   O1        1.0  0.53360  0.36012  0.59492  1.0000
  O   O2        1.0  0.03446  0.14117  0.90395  1.0000
  O   O3        1.0  0.46260  0.64145  0.40583  1.0000
  O   O4        1.0  0.96358  0.85768  0.09370  1.0000
  O   O5        1.0  0.36381  0.39340  0.73419  1.0000
  O   O6        1.0  0.86539  0.10768  0.76419  1.0000
  O   O7        1.0  0.63270  0.60708  0.26678  1.0000
  O   O8        1.0  0.13293  0.89183  0.23315  1.0000
  O   O9        1.0  0.76130  0.59177  0.65775  1.0000
  O   O10       1.0  0.26664  0.91272  0.84484  1.0000
  O   O11       1.0  0.23531  0.40998  0.34158  1.0000
  O   O12       1.0  0.73438  0.08782  0.15748  1.0000
  O   O13       1.0  0.81468  0.54120  0.47894  1.0000
  O   O14       1.0  0.31831  0.96054  0.02423  1.0000
  O   O15       1.0  0.18589  0.45765  0.52127  1.0000
  O   O16       1.0  0.68780  0.04218  0.97724  1.0000
  O   O17       1.0  0.40556  0.59562  0.61094  1.0000
  O   O18       1.0  0.90998  0.90611  0.88972  1.0000
  O   O19       1.0  0.59020  0.40619  0.39057  1.0000
  O   O20       1.0  0.08966  0.09352  0.10888  1.0000
