data_image0
_chemical_formula_structural       CuP2H10C8O6
_chemical_formula_sum              "Cu1 P2 H10 C8 O6"
_cell_length_a       5.07875
_cell_length_b       6.21799
_cell_length_c       9.80534
_cell_angle_alpha    76.1848
_cell_angle_beta     80.6356
_cell_angle_gamma    74.8923

_space_group_name_H-M_alt    "P 1"
_space_group_IT_number       1

loop_
  _space_group_symop_operation_xyz
  'x, y, z'

loop_
  _atom_site_type_symbol
  _atom_site_label
  _atom_site_symmetry_multiplicity
  _atom_site_fract_x
  _atom_site_fract_y
  _atom_site_fract_z
  _atom_site_occupancy
  Cu  Cu1       1.0  0.00000  1.00000  1.00000  1.0000
  P   P1        1.0  0.45172  0.98798  0.18220  1.0000
  P   P2        1.0  0.54828  0.01201  0.81780  1.0000
  H   H1        1.0  0.54456  0.70691  0.08039  1.0000
  H   H2        1.0  0.45543  0.29309  0.91961  1.0000
  H   H3        1.0  0.71812  0.24184  0.29840  1.0000
  H   H4        1.0  0.28188  0.75815  0.70161  1.0000
  H   H5        1.0  0.32161  0.55095  0.41047  1.0000
  H   H6        1.0  0.67839  0.44905  0.58952  1.0000
  H   H7        1.0  0.03453  0.78041  0.38010  1.0000
  H   H8        1.0  0.96546  0.21959  0.61990  1.0000
  H   H9        1.0  0.08241  0.62395  0.55526  1.0000
  H   H10       1.0  0.91759  0.37604  0.44474  1.0000
  C   C1        1.0  0.47328  0.99210  0.36225  1.0000
  C   C2        1.0  0.52672  0.00790  0.63775  1.0000
  C   C3        1.0  0.62020  0.13788  0.38780  1.0000
  C   C4        1.0  0.37982  0.86214  0.61219  1.0000
  C   C5        1.0  0.34820  0.85130  0.47510  1.0000
  C   C6        1.0  0.65180  0.14870  0.52491  1.0000
  C   C7        1.0  0.18750  0.69340  0.45421  1.0000
  C   C8        1.0  0.81250  0.30660  0.54579  1.0000
  O   O1        1.0  0.58487  0.72726  0.17193  1.0000
  O   O2        1.0  0.41512  0.27274  0.82807  1.0000
  O   O3        1.0  0.62647  0.14219  0.08107  1.0000
  O   O4        1.0  0.37353  0.85781  0.91893  1.0000
  O   O5        1.0  0.15039  0.05916  0.15325  1.0000
  O   O6        1.0  0.84961  0.94084  0.84676  1.0000
