data_image0
_chemical_formula_structural       Zn4P8H56C32O32
_chemical_formula_sum              "Zn4 P8 H56 C32 O32"
_cell_length_a       7.43586
_cell_length_b       7.6744
_cell_length_c       22.461
_cell_angle_alpha    90
_cell_angle_beta     90
_cell_angle_gamma    90

_space_group_name_H-M_alt    "P 1"
_space_group_IT_number       1

loop_
  _space_group_symop_operation_xyz
  'x, y, z'

loop_
  _atom_site_type_symbol
  _atom_site_label
  _atom_site_symmetry_multiplicity
  _atom_site_fract_x
  _atom_site_fract_y
  _atom_site_fract_z
  _atom_site_occupancy
  Zn  Zn1       1.0  0.83176  0.92291  0.25000  1.0000
  Zn  Zn2       1.0  0.66822  0.42290  0.75000  1.0000
  Zn  Zn3       1.0  0.16821  0.07709  0.75000  1.0000
  Zn  Zn4       1.0  0.33178  0.57710  0.25000  1.0000
  P   P1        1.0  0.04926  0.07819  0.36156  1.0000
  P   P2        1.0  0.45072  0.57819  0.63844  1.0000
  P   P3        1.0  0.95072  0.92178  0.86156  1.0000
  P   P4        1.0  0.54928  0.42181  0.13844  1.0000
  P   P5        1.0  0.95074  0.92181  0.63843  1.0000
  P   P6        1.0  0.54927  0.42181  0.36157  1.0000
  P   P7        1.0  0.04927  0.07821  0.13843  1.0000
  P   P8        1.0  0.45072  0.57819  0.86157  1.0000
  H   H1        1.0  0.58413  0.14064  0.28676  1.0000
  H   H2        1.0  0.91585  0.64063  0.71323  1.0000
  H   H3        1.0  0.41584  0.85936  0.78676  1.0000
  H   H4        1.0  0.08415  0.35937  0.21323  1.0000
  H   H5        1.0  0.41585  0.85936  0.71324  1.0000
  H   H6        1.0  0.08414  0.35936  0.28676  1.0000
  H   H7        1.0  0.58413  0.14064  0.21324  1.0000
  H   H8        1.0  0.91586  0.64062  0.78676  1.0000
  H   H9        1.0  0.76550  0.60559  0.28568  1.0000
  H   H10       1.0  0.73450  0.10558  0.71432  1.0000
  H   H11       1.0  0.23449  0.39442  0.78568  1.0000
  H   H12       1.0  0.26549  0.89442  0.21432  1.0000
  H   H13       1.0  0.23448  0.39442  0.71432  1.0000
  H   H14       1.0  0.26549  0.89443  0.28567  1.0000
  H   H15       1.0  0.76550  0.60557  0.21432  1.0000
  H   H16       1.0  0.73450  0.10556  0.78567  1.0000
  H   H17       1.0  0.35285  0.12460  0.34907  1.0000
  H   H18       1.0  0.14715  0.62458  0.65092  1.0000
  H   H19       1.0  0.64715  0.87541  0.84907  1.0000
  H   H20       1.0  0.85286  0.37542  0.15093  1.0000
  H   H21       1.0  0.64716  0.87541  0.65093  1.0000
  H   H22       1.0  0.85284  0.37542  0.34907  1.0000
  H   H23       1.0  0.35283  0.12458  0.15093  1.0000
  H   H24       1.0  0.14715  0.62457  0.84908  1.0000
  H   H25       1.0  0.17482  0.72838  0.38620  1.0000
  H   H26       1.0  0.32520  0.22838  0.61379  1.0000
  H   H27       1.0  0.82521  0.27157  0.88620  1.0000
  H   H28       1.0  0.67479  0.77163  0.11380  1.0000
  H   H29       1.0  0.82519  0.27161  0.61379  1.0000
  H   H30       1.0  0.67480  0.77163  0.38621  1.0000
  H   H31       1.0  0.17478  0.72842  0.11379  1.0000
  H   H32       1.0  0.32521  0.22840  0.88622  1.0000
  H   H33       1.0  0.95831  0.65053  0.40371  1.0000
  H   H34       1.0  0.54169  0.15054  0.59628  1.0000
  H   H35       1.0  0.04169  0.34942  0.90370  1.0000
  H   H36       1.0  0.45831  0.84946  0.09628  1.0000
  H   H37       1.0  0.04170  0.34944  0.59628  1.0000
  H   H38       1.0  0.45832  0.84947  0.40373  1.0000
  H   H39       1.0  0.95830  0.65058  0.09629  1.0000
  H   H40       1.0  0.54168  0.15056  0.90372  1.0000
  H   H41       1.0  0.14343  0.59658  0.45006  1.0000
  H   H42       1.0  0.35658  0.09660  0.54993  1.0000
  H   H43       1.0  0.85658  0.40338  0.95005  1.0000
  H   H44       1.0  0.64343  0.90341  0.04994  1.0000
  H   H45       1.0  0.85658  0.40340  0.54993  1.0000
  H   H46       1.0  0.64342  0.90340  0.45007  1.0000
  H   H47       1.0  0.14340  0.59661  0.04995  1.0000
  H   H48       1.0  0.35658  0.09662  0.95007  1.0000
  H   H49       1.0  0.96883  0.29743  0.45936  1.0000
  H   H50       1.0  0.53117  0.79744  0.54065  1.0000
  H   H51       1.0  0.03115  0.70254  0.95937  1.0000
  H   H52       1.0  0.46887  0.20255  0.04065  1.0000
  H   H53       1.0  0.03117  0.70256  0.54064  1.0000
  H   H54       1.0  0.46884  0.20256  0.45936  1.0000
  H   H55       1.0  0.96884  0.29745  0.04063  1.0000
  H   H56       1.0  0.53118  0.79745  0.95936  1.0000
  C   C1        1.0  0.08342  0.70096  0.42323  1.0000
  C   C2        1.0  0.41658  0.20095  0.57676  1.0000
  C   C3        1.0  0.91658  0.29904  0.92322  1.0000
  C   C4        1.0  0.58342  0.79906  0.07677  1.0000
  C   C5        1.0  0.91658  0.29903  0.57676  1.0000
  C   C6        1.0  0.58342  0.79906  0.42324  1.0000
  C   C7        1.0  0.08341  0.70096  0.07677  1.0000
  C   C8        1.0  0.41657  0.20096  0.92324  1.0000
  C   C9        1.0  0.04491  0.85755  0.46128  1.0000
  C   C10       1.0  0.45511  0.35753  0.53872  1.0000
  C   C11       1.0  0.95510  0.14245  0.96127  1.0000
  C   C12       1.0  0.54492  0.64247  0.03872  1.0000
  C   C13       1.0  0.95510  0.14246  0.53871  1.0000
  C   C14       1.0  0.54491  0.64247  0.46128  1.0000
  C   C15       1.0  0.04489  0.85753  0.03872  1.0000
  C   C16       1.0  0.45510  0.35754  0.96128  1.0000
  C   C17       1.0  0.02637  0.02926  0.43933  1.0000
  C   C18       1.0  0.47365  0.52926  0.56067  1.0000
  C   C19       1.0  0.97362  0.97072  0.93933  1.0000
  C   C20       1.0  0.52639  0.47075  0.06067  1.0000
  C   C21       1.0  0.97363  0.97073  0.56066  1.0000
  C   C22       1.0  0.52638  0.47074  0.43934  1.0000
  C   C23       1.0  0.02636  0.02928  0.06066  1.0000
  C   C24       1.0  0.47365  0.52928  0.93934  1.0000
  C   C25       1.0  0.98205  0.16649  0.47770  1.0000
  C   C26       1.0  0.51796  0.66650  0.52230  1.0000
  C   C27       1.0  0.01794  0.83349  0.97771  1.0000
  C   C28       1.0  0.48207  0.33351  0.02230  1.0000
  C   C29       1.0  0.01795  0.83350  0.52229  1.0000
  C   C30       1.0  0.48207  0.33350  0.47770  1.0000
  C   C31       1.0  0.98205  0.16651  0.02229  1.0000
  C   C32       1.0  0.51797  0.66651  0.97771  1.0000
  O   O1        1.0  0.92822  0.95164  0.32847  1.0000
  O   O2        1.0  0.57177  0.45162  0.67153  1.0000
  O   O3        1.0  0.07179  0.04833  0.82848  1.0000
  O   O4        1.0  0.42822  0.54836  0.17152  1.0000
  O   O5        1.0  0.07179  0.04836  0.67152  1.0000
  O   O6        1.0  0.42821  0.54836  0.32848  1.0000
  O   O7        1.0  0.92819  0.95168  0.17152  1.0000
  O   O8        1.0  0.57178  0.45164  0.82848  1.0000
  O   O9        1.0  0.61335  0.07237  0.25000  1.0000
  O   O10       1.0  0.88664  0.57236  0.75000  1.0000
  O   O11       1.0  0.38663  0.92763  0.75000  1.0000
  O   O12       1.0  0.11337  0.42763  0.25000  1.0000
  O   O13       1.0  0.74604  0.68010  0.25000  1.0000
  O   O14       1.0  0.75396  0.18009  0.75000  1.0000
  O   O15       1.0  0.25394  0.31991  0.75000  1.0000
  O   O16       1.0  0.24604  0.81990  0.25000  1.0000
  O   O17       1.0  0.25085  0.03243  0.34275  1.0000
  O   O18       1.0  0.24915  0.53243  0.65724  1.0000
  O   O19       1.0  0.74915  0.96755  0.84276  1.0000
  O   O20       1.0  0.75086  0.46757  0.15725  1.0000
  O   O21       1.0  0.74913  0.96756  0.65724  1.0000
  O   O22       1.0  0.75087  0.46757  0.34276  1.0000
  O   O23       1.0  0.25086  0.03246  0.15724  1.0000
  O   O24       1.0  0.24914  0.53244  0.84276  1.0000
  O   O25       1.0  0.01794  0.27201  0.35032  1.0000
  O   O26       1.0  0.48206  0.77199  0.64968  1.0000
  O   O27       1.0  0.98203  0.72797  0.85033  1.0000
  O   O28       1.0  0.51795  0.22799  0.14967  1.0000
  O   O29       1.0  0.98205  0.72798  0.64967  1.0000
  O   O30       1.0  0.51796  0.22799  0.35032  1.0000
  O   O31       1.0  0.01796  0.27204  0.14967  1.0000
  O   O32       1.0  0.48204  0.77201  0.85033  1.0000
