data_image0
_chemical_formula_structural       Cd2P4H28C16O16
_chemical_formula_sum              "Cd2 P4 H28 C16 O16"
_cell_length_a       6.75382
_cell_length_b       9.33541
_cell_length_c       10.5094
_cell_angle_alpha    90.5475
_cell_angle_beta     108.757
_cell_angle_gamma    89.9878

_space_group_name_H-M_alt    "P 1"
_space_group_IT_number       1

loop_
  _space_group_symop_operation_xyz
  'x, y, z'

loop_
  _atom_site_type_symbol
  _atom_site_label
  _atom_site_symmetry_multiplicity
  _atom_site_fract_x
  _atom_site_fract_y
  _atom_site_fract_z
  _atom_site_occupancy
  Cd  Cd1       1.0  0.72942  0.24999  0.00004  1.0000
  Cd  Cd2       1.0  0.27058  0.75001  0.99996  1.0000
  P   P1        1.0  0.67096  0.53495  0.20365  1.0000
  P   P2        1.0  0.46751  0.96501  0.79638  1.0000
  P   P3        1.0  0.32905  0.46504  0.79636  1.0000
  P   P4        1.0  0.53248  0.03498  0.20362  1.0000
  H   H1        1.0  0.49737  0.33424  0.19419  1.0000
  H   H2        1.0  0.30344  0.16579  0.80581  1.0000
  H   H3        1.0  0.50263  0.66576  0.80581  1.0000
  H   H4        1.0  0.69656  0.83421  0.19419  1.0000
  H   H5        1.0  0.12009  0.07721  0.11207  1.0000
  H   H6        1.0  0.00814  0.42270  0.88796  1.0000
  H   H7        1.0  0.87990  0.92279  0.88793  1.0000
  H   H8        1.0  0.99187  0.57730  0.11204  1.0000
  H   H9        1.0  0.93525  0.05077  0.16964  1.0000
  H   H10       1.0  0.76568  0.44914  0.83042  1.0000
  H   H11       1.0  0.06475  0.94923  0.83037  1.0000
  H   H12       1.0  0.23433  0.55085  0.16959  1.0000
  H   H13       1.0  0.07296  0.40831  0.29906  1.0000
  H   H14       1.0  0.77404  0.09158  0.70098  1.0000
  H   H15       1.0  0.92704  0.59169  0.70095  1.0000
  H   H16       1.0  0.22595  0.90842  0.29902  1.0000
  H   H17       1.0  0.34683  0.22623  0.52874  1.0000
  H   H18       1.0  0.81799  0.27368  0.47133  1.0000
  H   H19       1.0  0.65317  0.77377  0.47126  1.0000
  H   H20       1.0  0.18201  0.72632  0.52867  1.0000
  H   H21       1.0  0.51831  0.36790  0.60470  1.0000
  H   H22       1.0  0.91362  0.13195  0.39547  1.0000
  H   H23       1.0  0.48170  0.63210  0.39530  1.0000
  H   H24       1.0  0.08638  0.86805  0.60453  1.0000
  H   H25       1.0  0.41954  0.35141  0.42649  1.0000
  H   H26       1.0  0.99298  0.14850  0.57365  1.0000
  H   H27       1.0  0.58046  0.64859  0.57351  1.0000
  H   H28       1.0  0.00701  0.85150  0.42634  1.0000
  C   C1        1.0  0.85445  0.52327  0.37205  1.0000
  C   C2        1.0  0.48247  0.97672  0.62796  1.0000
  C   C3        1.0  0.14556  0.47673  0.62795  1.0000
  C   C4        1.0  0.51753  0.02328  0.37204  1.0000
  C   C5        1.0  0.04290  0.45145  0.38769  1.0000
  C   C6        1.0  0.65527  0.04844  0.61233  1.0000
  C   C7        1.0  0.95711  0.54855  0.61231  1.0000
  C   C8        1.0  0.34472  0.95157  0.38767  1.0000
  C   C9        1.0  0.19095  0.42654  0.51338  1.0000
  C   C10       1.0  0.67757  0.07340  0.48665  1.0000
  C   C11       1.0  0.80905  0.57346  0.48662  1.0000
  C   C12       1.0  0.32243  0.92660  0.51335  1.0000
  C   C13       1.0  0.38033  0.34001  0.51928  1.0000
  C   C14       1.0  0.86102  0.15988  0.48083  1.0000
  C   C15       1.0  0.61968  0.65998  0.48072  1.0000
  C   C16       1.0  0.13897  0.84012  0.51918  1.0000
  O   O1        1.0  0.47194  0.44188  0.20442  1.0000
  O   O2        1.0  0.26777  0.05816  0.79562  1.0000
  O   O3        1.0  0.52806  0.55812  0.79558  1.0000
  O   O4        1.0  0.73223  0.94184  0.20438  1.0000
  O   O5        1.0  0.01143  0.12774  0.14087  1.0000
  O   O6        1.0  0.87067  0.37220  0.85923  1.0000
  O   O7        1.0  0.98857  0.87226  0.85913  1.0000
  O   O8        1.0  0.12933  0.62780  0.14077  1.0000
  O   O9        1.0  0.58933  0.68744  0.16993  1.0000
  O   O10       1.0  0.41970  0.81256  0.83010  1.0000
  O   O11       1.0  0.41067  0.31256  0.83008  1.0000
  O   O12       1.0  0.58030  0.18744  0.16990  1.0000
  O   O13       1.0  0.77363  0.47033  0.10660  1.0000
  O   O14       1.0  0.66729  0.02964  0.89340  1.0000
  O   O15       1.0  0.22638  0.52967  0.89340  1.0000
  O   O16       1.0  0.33271  0.97036  0.10660  1.0000
