data_image0
_chemical_formula_structural       Mn2H4C12S2O8
_chemical_formula_sum              "Mn2 H4 C12 S2 O8"
_cell_length_a       4.5988
_cell_length_b       6.08634
_cell_length_c       13.3316
_cell_angle_alpha    86.6215
_cell_angle_beta     80.0907
_cell_angle_gamma    70.2149

_space_group_name_H-M_alt    "P 1"
_space_group_IT_number       1

loop_
  _space_group_symop_operation_xyz
  'x, y, z'

loop_
  _atom_site_type_symbol
  _atom_site_label
  _atom_site_symmetry_multiplicity
  _atom_site_fract_x
  _atom_site_fract_y
  _atom_site_fract_z
  _atom_site_occupancy
  Mn  Mn1       1.0  0.77720  0.75022  0.44548  1.0000
  Mn  Mn2       1.0  0.22282  0.24976  0.55452  1.0000
  H   H1        1.0  0.34021  0.47165  0.85666  1.0000
  H   H2        1.0  0.80199  0.02782  0.85682  1.0000
  H   H3        1.0  0.65978  0.52836  0.14333  1.0000
  H   H4        1.0  0.19798  0.97219  0.14318  1.0000
  C   C1        1.0  0.45563  0.60025  0.83571  1.0000
  C   C2        1.0  0.70792  0.89901  0.83582  1.0000
  C   C3        1.0  0.54436  0.39974  0.16429  1.0000
  C   C4        1.0  0.29205  0.10100  0.16418  1.0000
  C   C5        1.0  0.55871  0.66154  0.73832  1.0000
  C   C6        1.0  0.70368  0.83728  0.73839  1.0000
  C   C7        1.0  0.44129  0.33845  0.26168  1.0000
  C   C8        1.0  0.29633  0.16273  0.26161  1.0000
  C   C9        1.0  0.53562  0.53471  0.64999  1.0000
  C   C10       1.0  0.81539  0.96411  0.65007  1.0000
  C   C11       1.0  0.46440  0.46528  0.35001  1.0000
  C   C12       1.0  0.18462  0.03588  0.34993  1.0000
  S   S1        1.0  0.53600  0.74980  0.92620  1.0000
  S   S2        1.0  0.46397  0.25021  0.07380  1.0000
  O   O1        1.0  0.32149  0.44434  0.66118  1.0000
  O   O2        1.0  0.01832  0.05444  0.66128  1.0000
  O   O3        1.0  0.67854  0.55564  0.33882  1.0000
  O   O4        1.0  0.98168  0.94555  0.33872  1.0000
  O   O5        1.0  0.74090  0.51151  0.56818  1.0000
  O   O6        1.0  0.69164  0.98764  0.56823  1.0000
  O   O7        1.0  0.25911  0.48850  0.43182  1.0000
  O   O8        1.0  0.30838  0.01235  0.43177  1.0000
