data_image0
_chemical_formula_structural       Zn4H44C56N12O18
_chemical_formula_sum              "Zn4 H44 C56 N12 O18"
_cell_length_a       11.0409
_cell_length_b       11.505
_cell_length_c       12.2073
_cell_angle_alpha    93.5962
_cell_angle_beta     107.083
_cell_angle_gamma    106.296

_space_group_name_H-M_alt    "P 1"
_space_group_IT_number       1

loop_
  _space_group_symop_operation_xyz
  'x, y, z'

loop_
  _atom_site_type_symbol
  _atom_site_label
  _atom_site_symmetry_multiplicity
  _atom_site_fract_x
  _atom_site_fract_y
  _atom_site_fract_z
  _atom_site_occupancy
  Zn  Zn1       1.0  0.68545  0.25008  0.03996  1.0000
  Zn  Zn2       1.0  0.31455  0.74993  0.96004  1.0000
  Zn  Zn3       1.0  0.74722  0.01389  0.77902  1.0000
  Zn  Zn4       1.0  0.25278  0.98611  0.22098  1.0000
  H   H1        1.0  0.94862  0.10716  0.99116  1.0000
  H   H2        1.0  0.05138  0.89283  0.00884  1.0000
  H   H3        1.0  0.99219  0.03944  0.89578  1.0000
  H   H4        1.0  0.00781  0.96056  0.10422  1.0000
  H   H5        1.0  0.07728  0.53043  0.94094  1.0000
  H   H6        1.0  0.92272  0.46958  0.05906  1.0000
  H   H7        1.0  0.03756  0.32264  0.00469  1.0000
  H   H8        1.0  0.96244  0.67736  0.99531  1.0000
  H   H9        1.0  0.23599  0.26396  0.11706  1.0000
  H   H10       1.0  0.76401  0.73604  0.88294  1.0000
  H   H11       1.0  0.46449  0.41780  0.16653  1.0000
  H   H12       1.0  0.53551  0.58220  0.83347  1.0000
  H   H13       1.0  0.68230  0.58653  0.21402  1.0000
  H   H14       1.0  0.31770  0.41347  0.78598  1.0000
  H   H15       1.0  0.82893  0.82736  0.21085  1.0000
  H   H16       1.0  0.17107  0.17264  0.78914  1.0000
  H   H17       1.0  0.76173  0.00997  0.15708  1.0000
  H   H18       1.0  0.23827  0.99003  0.84292  1.0000
  H   H19       1.0  0.58981  0.99280  0.10956  1.0000
  H   H20       1.0  0.41019  0.00720  0.89045  1.0000
  H   H21       1.0  0.95200  0.26415  0.79904  1.0000
  H   H22       1.0  0.04800  0.73585  0.20096  1.0000
  H   H23       1.0  0.94829  0.47534  0.75304  1.0000
  H   H24       1.0  0.05171  0.52466  0.24696  1.0000
  H   H25       1.0  0.72700  0.50507  0.65952  1.0000
  H   H26       1.0  0.27300  0.49492  0.34048  1.0000
  H   H27       1.0  0.51903  0.32449  0.61154  1.0000
  H   H28       1.0  0.48096  0.67551  0.38846  1.0000
  H   H29       1.0  0.32558  0.12974  0.55852  1.0000
  H   H30       1.0  0.67442  0.87025  0.44148  1.0000
  H   H31       1.0  0.21886  0.88066  0.54784  1.0000
  H   H32       1.0  0.78114  0.11933  0.45216  1.0000
  H   H33       1.0  0.51157  0.75880  0.65583  1.0000
  H   H34       1.0  0.48842  0.24119  0.34417  1.0000
  H   H35       1.0  0.34073  0.70959  0.56858  1.0000
  H   H36       1.0  0.65927  0.29041  0.43142  1.0000
  H   H37       1.0  0.88751  0.88262  0.44981  1.0000
  H   H38       1.0  0.11249  0.11738  0.55019  1.0000
  H   H39       1.0  0.95071  0.72345  0.35708  1.0000
  H   H40       1.0  0.04929  0.27655  0.64292  1.0000
  H   H41       1.0  0.05890  0.58897  0.47692  1.0000
  H   H42       1.0  0.94110  0.41103  0.52308  1.0000
  H   H43       1.0  0.10455  0.61981  0.69070  1.0000
  H   H44       1.0  0.89545  0.38019  0.30930  1.0000
  C   C1        1.0  0.15871  0.50011  0.99120  1.0000
  C   C2        1.0  0.84129  0.49990  0.00880  1.0000
  C   C3        1.0  0.13816  0.38551  0.02619  1.0000
  C   C4        1.0  0.86184  0.61449  0.97381  1.0000
  C   C5        1.0  0.24843  0.35392  0.09013  1.0000
  C   C6        1.0  0.75157  0.64609  0.90987  1.0000
  C   C7        1.0  0.37522  0.43858  0.11760  1.0000
  C   C8        1.0  0.62477  0.56142  0.88240  1.0000
  C   C9        1.0  0.38840  0.55258  0.08032  1.0000
  C   C10       1.0  0.61160  0.44743  0.91968  1.0000
  C   C11       1.0  0.51597  0.64907  0.10759  1.0000
  C   C12       1.0  0.48403  0.35093  0.89241  1.0000
  C   C13       1.0  0.64810  0.65759  0.17270  1.0000
  C   C14       1.0  0.35190  0.34241  0.82730  1.0000
  C   C15       1.0  0.72348  0.77616  0.17105  1.0000
  C   C16       1.0  0.27652  0.22385  0.82895  1.0000
  C   C17       1.0  0.66589  0.95810  0.09160  1.0000
  C   C18       1.0  0.33411  0.04190  0.90840  1.0000
  C   C19       1.0  0.67778  0.98562  0.97381  1.0000
  C   C20       1.0  0.32222  0.01439  0.02619  1.0000
  C   C21       1.0  0.85958  0.28339  0.75688  1.0000
  C   C22       1.0  0.14042  0.71661  0.24312  1.0000
  C   C23       1.0  0.85623  0.39908  0.73149  1.0000
  C   C24       1.0  0.14377  0.60092  0.26851  1.0000
  C   C25       1.0  0.73262  0.41515  0.67903  1.0000
  C   C26       1.0  0.26738  0.58484  0.32097  1.0000
  C   C27       1.0  0.61711  0.31523  0.65223  1.0000
  C   C28       1.0  0.38288  0.68476  0.34777  1.0000
  C   C29       1.0  0.62819  0.20120  0.67884  1.0000
  C   C30       1.0  0.37181  0.79879  0.32116  1.0000
  C   C31       1.0  0.51467  0.08961  0.65007  1.0000
  C   C32       1.0  0.48533  0.91038  0.34993  1.0000
  C   C33       1.0  0.37704  0.06585  0.59289  1.0000
  C   C34       1.0  0.62295  0.93414  0.40711  1.0000
  C   C35       1.0  0.32110  0.94041  0.58539  1.0000
  C   C36       1.0  0.67890  0.05959  0.41462  1.0000
  C   C37       1.0  0.41355  0.76904  0.64791  1.0000
  C   C38       1.0  0.58645  0.23096  0.35209  1.0000
  C   C39       1.0  0.37270  0.72447  0.75179  1.0000
  C   C40       1.0  0.62730  0.27553  0.24821  1.0000
  C   C41       1.0  0.95154  0.83699  0.62218  1.0000
  C   C42       1.0  0.04846  0.16301  0.37782  1.0000
  C   C43       1.0  0.92988  0.82172  0.50249  1.0000
  C   C44       1.0  0.07012  0.17828  0.49751  1.0000
  C   C45       1.0  0.96717  0.73250  0.45004  1.0000
  C   C46       1.0  0.03283  0.26750  0.54996  1.0000
  C   C47       1.0  0.02838  0.65811  0.51730  1.0000
  C   C48       1.0  0.97162  0.34189  0.48270  1.0000
  C   C49       1.0  0.05287  0.67448  0.63684  1.0000
  C   C50       1.0  0.94713  0.32552  0.36316  1.0000
  C   C51       1.0  0.01561  0.76379  0.69099  1.0000
  C   C52       1.0  0.98440  0.23621  0.30901  1.0000
  C   C53       1.0  0.90626  0.93397  0.67174  1.0000
  C   C54       1.0  0.09374  0.06603  0.32826  1.0000
  C   C55       1.0  0.05276  0.78357  0.82118  1.0000
  C   C56       1.0  0.94724  0.21643  0.17882  1.0000
  N   N1        1.0  0.28063  0.58202  0.01730  1.0000
  N   N2        1.0  0.71937  0.41798  0.98270  1.0000
  N   N3        1.0  0.51217  0.75555  0.06900  1.0000
  N   N4        1.0  0.48783  0.24445  0.93100  1.0000
  N   N5        1.0  0.63819  0.83122  0.10771  1.0000
  N   N6        1.0  0.36181  0.16878  0.89229  1.0000
  N   N7        1.0  0.74854  0.18726  0.73174  1.0000
  N   N8        1.0  0.25146  0.81274  0.26826  1.0000
  N   N9        1.0  0.54006  0.98469  0.67573  1.0000
  N   N10       1.0  0.45994  0.01531  0.32426  1.0000
  N   N11       1.0  0.42227  0.89529  0.63544  1.0000
  N   N12       1.0  0.57773  0.10471  0.36456  1.0000
  O   O1        1.0  0.67474  0.09134  0.94887  1.0000
  O   O2        1.0  0.32526  0.90866  0.05113  1.0000
  O   O3        1.0  0.69528  0.90880  0.90643  1.0000
  O   O4        1.0  0.30472  0.09121  0.09358  1.0000
  O   O5        1.0  0.34963  0.61281  0.75694  1.0000
  O   O6        1.0  0.65037  0.38719  0.24306  1.0000
  O   O7        1.0  0.36555  0.80651  0.82383  1.0000
  O   O8        1.0  0.63446  0.19349  0.17617  1.0000
  O   O9        1.0  0.79087  0.89365  0.68622  1.0000
  O   O10       1.0  0.20913  0.10635  0.31378  1.0000
  O   O11       1.0  0.97608  0.04384  0.68901  1.0000
  O   O12       1.0  0.02392  0.95616  0.31099  1.0000
  O   O13       1.0  0.03055  0.87227  0.87067  1.0000
  O   O14       1.0  0.96945  0.12773  0.12933  1.0000
  O   O15       1.0  0.10773  0.71015  0.87563  1.0000
  O   O16       1.0  0.89227  0.28985  0.12437  1.0000
  O   O17       1.0  0.94132  0.09404  0.90637  1.0000
  O   O18       1.0  0.05868  0.90596  0.09363  1.0000
