data_image0
_chemical_formula_structural       Na2H10C16N8O8
_chemical_formula_sum              "Na2 H10 C16 N8 O8"
_cell_length_a       3.63389
_cell_length_b       10.1075
_cell_length_c       14.6482
_cell_angle_alpha    107.729
_cell_angle_beta     94.6556
_cell_angle_gamma    91.4915

_space_group_name_H-M_alt    "P 1"
_space_group_IT_number       1

loop_
  _space_group_symop_operation_xyz
  'x, y, z'

loop_
  _atom_site_type_symbol
  _atom_site_label
  _atom_site_symmetry_multiplicity
  _atom_site_fract_x
  _atom_site_fract_y
  _atom_site_fract_z
  _atom_site_occupancy
  Na  Na1       1.0  0.50000  1.00000  1.00000  1.0000
  Na  Na2       1.0  0.50000  1.00000  0.50000  1.0000
  H   H1        1.0  0.11336  0.60814  0.48675  1.0000
  H   H2        1.0  0.88663  0.39184  0.51325  1.0000
  H   H3        1.0  0.99223  0.88794  0.11367  1.0000
  H   H4        1.0  0.00776  0.11206  0.88633  1.0000
  H   H5        1.0  0.04122  0.77766  0.01540  1.0000
  H   H6        1.0  0.95880  0.22234  0.98460  1.0000
  H   H7        1.0  0.05848  0.01662  0.66311  1.0000
  H   H8        1.0  0.94152  0.98338  0.33689  1.0000
  H   H9        1.0  0.98140  0.85844  0.60865  1.0000
  H   H10       1.0  0.01861  0.14156  0.39134  1.0000
  C   C1        1.0  0.21309  0.42178  0.37286  1.0000
  C   C2        1.0  0.78691  0.57821  0.62714  1.0000
  C   C3        1.0  0.37247  0.40348  0.28238  1.0000
  C   C4        1.0  0.62755  0.59652  0.71761  1.0000
  C   C5        1.0  0.46958  0.53561  0.27603  1.0000
  C   C6        1.0  0.53042  0.46439  0.72398  1.0000
  C   C7        1.0  0.37416  0.64027  0.36837  1.0000
  C   C8        1.0  0.62583  0.35973  0.63163  1.0000
  C   C9        1.0  0.63236  0.57740  0.20551  1.0000
  C   C10       1.0  0.36762  0.42261  0.79450  1.0000
  C   C11       1.0  0.72640  0.71846  0.21667  1.0000
  C   C12       1.0  0.27360  0.28156  0.78334  1.0000
  C   C13       1.0  0.73061  0.47932  0.12045  1.0000
  C   C14       1.0  0.26938  0.52069  0.87955  1.0000
  C   C15       1.0  0.43050  0.27258  0.21842  1.0000
  C   C16       1.0  0.56951  0.72742  0.78158  1.0000
  N   N1        1.0  0.21488  0.56471  0.42009  1.0000
  N   N2        1.0  0.78511  0.43528  0.57991  1.0000
  N   N3        1.0  0.81944  0.39816  0.05131  1.0000
  N   N4        1.0  0.18060  0.60184  0.94869  1.0000
  N   N5        1.0  0.82273  0.83221  0.22220  1.0000
  N   N6        1.0  0.17726  0.16780  0.77780  1.0000
  N   N7        1.0  0.48684  0.16358  0.16607  1.0000
  N   N8        1.0  0.51316  0.83643  0.83392  1.0000
  O   O1        1.0  0.43219  0.76688  0.39351  1.0000
  O   O2        1.0  0.56779  0.23312  0.60650  1.0000
  O   O3        1.0  0.09371  0.33268  0.40773  1.0000
  O   O4        1.0  0.90628  0.66731  0.59226  1.0000
  O   O5        1.0  0.00821  0.87758  0.04542  1.0000
  O   O6        1.0  0.99178  0.12242  0.95457  1.0000
  O   O7        1.0  0.01836  0.94904  0.59807  1.0000
  O   O8        1.0  0.98166  0.05095  0.40193  1.0000
