data_image0
_chemical_formula_structural       Zn2H18C28N4O8
_chemical_formula_sum              "Zn2 H18 C28 N4 O8"
_cell_length_a       6.98935
_cell_length_b       8.08098
_cell_length_c       11.7119
_cell_angle_alpha    101.924
_cell_angle_beta     98.5019
_cell_angle_gamma    96.3468

_space_group_name_H-M_alt    "P 1"
_space_group_IT_number       1

loop_
  _space_group_symop_operation_xyz
  'x, y, z'

loop_
  _atom_site_type_symbol
  _atom_site_label
  _atom_site_symmetry_multiplicity
  _atom_site_fract_x
  _atom_site_fract_y
  _atom_site_fract_z
  _atom_site_occupancy
  Zn  Zn1       1.0  0.84517  0.99393  0.35595  1.0000
  Zn  Zn2       1.0  0.15482  0.00607  0.64405  1.0000
  H   H1        1.0  0.16327  0.49801  0.39474  1.0000
  H   H2        1.0  0.83672  0.50199  0.60526  1.0000
  H   H3        1.0  0.28808  0.85909  0.95671  1.0000
  H   H4        1.0  0.71192  0.14092  0.04328  1.0000
  H   H5        1.0  0.21612  0.66436  0.18565  1.0000
  H   H6        1.0  0.78389  0.33565  0.81436  1.0000
  H   H7        1.0  0.58258  0.24557  0.57562  1.0000
  H   H8        1.0  0.41742  0.75443  0.42438  1.0000
  H   H9        1.0  0.74701  0.36063  0.31459  1.0000
  H   H10       1.0  0.25299  0.63937  0.68541  1.0000
  H   H11       1.0  0.40577  0.38282  0.16820  1.0000
  H   H12       1.0  0.59423  0.61718  0.83180  1.0000
  H   H13       1.0  0.03260  0.23805  0.17794  1.0000
  H   H14       1.0  0.96740  0.76195  0.82205  1.0000
  H   H15       1.0  0.63995  0.48967  0.98102  1.0000
  H   H16       1.0  0.36006  0.51034  0.01899  1.0000
  H   H17       1.0  0.43527  0.86371  0.18091  1.0000
  H   H18       1.0  0.56473  0.13629  0.81909  1.0000
  C   C1        1.0  0.35823  0.35738  0.48387  1.0000
  C   C2        1.0  0.64177  0.64262  0.51613  1.0000
  C   C3        1.0  0.17873  0.05494  0.07446  1.0000
  C   C4        1.0  0.82127  0.94506  0.92554  1.0000
  C   C5        1.0  0.31135  0.49989  0.44038  1.0000
  C   C6        1.0  0.68865  0.50011  0.55962  1.0000
  C   C7        1.0  0.83148  0.69494  0.18779  1.0000
  C   C8        1.0  0.16853  0.30506  0.81221  1.0000
  C   C9        1.0  0.20790  0.20416  0.46589  1.0000
  C   C10       1.0  0.79209  0.79584  0.53411  1.0000
  C   C11       1.0  0.91918  0.58862  0.09342  1.0000
  C   C12       1.0  0.08084  0.41139  0.90659  1.0000
  C   C13       1.0  0.16132  0.91983  0.97581  1.0000
  C   C14       1.0  0.83868  0.08018  0.02418  1.0000
  C   C15       1.0  0.12209  0.59237  0.10388  1.0000
  C   C16       1.0  0.87792  0.40763  0.89612  1.0000
  C   C17       1.0  0.54766  0.35800  0.54375  1.0000
  C   C18       1.0  0.45233  0.64200  0.45625  1.0000
  C   C19       1.0  0.63036  0.26105  0.26507  1.0000
  C   C20       1.0  0.36964  0.73894  0.73493  1.0000
  C   C21       1.0  0.46136  0.27369  0.19361  1.0000
  C   C22       1.0  0.53864  0.72631  0.80639  1.0000
  C   C23       1.0  0.01829  0.13564  0.09920  1.0000
  C   C24       1.0  0.98172  0.86436  0.90079  1.0000
  C   C25       1.0  0.79783  0.49423  0.98898  1.0000
  C   C26       1.0  0.20219  0.50578  0.01102  1.0000
  C   C27       1.0  0.47268  0.00129  0.19877  1.0000
  C   C28       1.0  0.52732  0.99870  0.80122  1.0000
  N   N1        1.0  0.63470  0.09111  0.26796  1.0000
  N   N2        1.0  0.36530  0.90889  0.73203  1.0000
  N   N3        1.0  0.36272  0.10798  0.15207  1.0000
  N   N4        1.0  0.63728  0.89202  0.84793  1.0000
  O   O1        1.0  0.04057  0.20596  0.40519  1.0000
  O   O2        1.0  0.95941  0.79405  0.59482  1.0000
  O   O3        1.0  0.25384  0.07916  0.50995  1.0000
  O   O4        1.0  0.74614  0.92084  0.49006  1.0000
  O   O5        1.0  0.95748  0.80994  0.26547  1.0000
  O   O6        1.0  0.04251  0.19006  0.73454  1.0000
  O   O7        1.0  0.65068  0.67406  0.18544  1.0000
  O   O8        1.0  0.34933  0.32593  0.81456  1.0000
