data_image0
_chemical_formula_structural       Tb2U3H26C30O40
_chemical_formula_sum              "Tb2 U3 H26 C30 O40"
_cell_length_a       10.5569
_cell_length_b       11.4598
_cell_length_c       13.4306
_cell_angle_alpha    69.0463
_cell_angle_beta     78.5574
_cell_angle_gamma    63.1112

_space_group_name_H-M_alt    "P 1"
_space_group_IT_number       1

loop_
  _space_group_symop_operation_xyz
  'x, y, z'

loop_
  _atom_site_type_symbol
  _atom_site_label
  _atom_site_symmetry_multiplicity
  _atom_site_fract_x
  _atom_site_fract_y
  _atom_site_fract_z
  _atom_site_occupancy
  Tb  Tb1       1.0  0.58446  0.24864  0.74277  1.0000
  Tb  Tb2       1.0  0.41554  0.75136  0.25723  1.0000
  U   U1        1.0  0.61989  0.71549  0.84110  1.0000
  U   U2        1.0  0.38011  0.28451  0.15890  1.0000
  U   U3        1.0  0.99999  0.50000  0.49999  1.0000
  H   H1        1.0  0.65452  0.21144  0.53230  1.0000
  H   H2        1.0  0.34548  0.78856  0.46771  1.0000
  H   H3        1.0  0.71623  0.06269  0.61967  1.0000
  H   H4        1.0  0.28376  0.93731  0.38033  1.0000
  H   H5        1.0  0.55239  0.52645  0.59036  1.0000
  H   H6        1.0  0.44761  0.47356  0.40964  1.0000
  H   H7        1.0  0.71613  0.41733  0.59653  1.0000
  H   H8        1.0  0.28387  0.58267  0.40347  1.0000
  H   H9        1.0  0.37620  0.47120  0.58049  1.0000
  H   H10       1.0  0.62380  0.52881  0.41951  1.0000
  H   H11       1.0  0.27022  0.41332  0.65273  1.0000
  H   H12       1.0  0.72978  0.58668  0.34727  1.0000
  H   H13       1.0  0.49669  0.52156  0.78593  1.0000
  H   H14       1.0  0.50331  0.47844  0.21407  1.0000
  H   H15       1.0  0.49429  0.41006  0.89818  1.0000
  H   H16       1.0  0.50571  0.58994  0.10182  1.0000
  H   H17       1.0  0.73395  0.93924  0.87040  1.0000
  H   H18       1.0  0.26605  0.06076  0.12960  1.0000
  H   H19       1.0  0.83444  0.01671  0.85343  1.0000
  H   H20       1.0  0.16556  0.98329  0.14657  1.0000
  H   H21       1.0  0.09130  0.36960  0.96846  1.0000
  H   H22       1.0  0.90870  0.63039  0.03154  1.0000
  H   H23       1.0  0.15438  0.10957  0.72220  1.0000
  H   H24       1.0  0.84562  0.89043  0.27780  1.0000
  H   H25       1.0  0.72930  0.00107  0.41208  1.0000
  H   H26       1.0  0.27070  0.99893  0.58793  1.0000
  C   C1        1.0  0.99114  0.34329  0.85852  1.0000
  C   C2        1.0  0.00886  0.65672  0.14148  1.0000
  C   C3        1.0  0.10637  0.31263  0.91394  1.0000
  C   C4        1.0  0.89363  0.68737  0.08606  1.0000
  C   C5        1.0  0.24150  0.21616  0.89513  1.0000
  C   C6        1.0  0.75849  0.78383  0.10487  1.0000
  C   C7        1.0  0.25916  0.14615  0.82243  1.0000
  C   C8        1.0  0.74084  0.85385  0.17757  1.0000
  C   C9        1.0  0.14054  0.16734  0.77556  1.0000
  C   C10       1.0  0.85945  0.83266  0.22444  1.0000
  C   C11       1.0  0.00683  0.26772  0.79078  1.0000
  C   C12       1.0  0.99317  0.73228  0.20922  1.0000
  C   C13       1.0  0.62769  0.00199  0.45015  1.0000
  C   C14       1.0  0.37231  0.99802  0.54985  1.0000
  C   C15       1.0  0.62135  0.87602  0.50795  1.0000
  C   C16       1.0  0.37865  0.12398  0.49206  1.0000
  C   C17       1.0  0.49190  0.87390  0.55879  1.0000
  C   C18       1.0  0.50810  0.12610  0.44121  1.0000
  C   C19       1.0  0.85718  0.46389  0.86436  1.0000
  C   C20       1.0  0.14283  0.53611  0.13564  1.0000
  C   C21       1.0  0.36042  0.19157  0.95540  1.0000
  C   C22       1.0  0.63958  0.80843  0.04460  1.0000
  C   C23       1.0  0.40160  0.04844  0.79139  1.0000
  C   C24       1.0  0.59841  0.95155  0.20861  1.0000
  C   C25       1.0  0.88689  0.29390  0.72936  1.0000
  C   C26       1.0  0.11310  0.70609  0.27064  1.0000
  C   C27       1.0  0.47516  0.74304  0.62205  1.0000
  C   C28       1.0  0.52483  0.25696  0.37795  1.0000
  C   C29       1.0  0.75273  0.74721  0.51266  1.0000
  C   C30       1.0  0.24727  0.25279  0.48734  1.0000
  O   O1        1.0  0.52860  0.63737  0.95605  1.0000
  O   O2        1.0  0.47140  0.36263  0.04395  1.0000
  O   O3        1.0  0.71439  0.79338  0.73067  1.0000
  O   O4        1.0  0.28561  0.20663  0.26932  1.0000
  O   O5        1.0  0.08457  0.48828  0.61109  1.0000
  O   O6        1.0  0.91543  0.51172  0.38892  1.0000
  O   O7        1.0  0.84561  0.54021  0.91887  1.0000
  O   O8        1.0  0.15440  0.45979  0.08112  1.0000
  O   O9        1.0  0.75382  0.49687  0.80880  1.0000
  O   O10       1.0  0.24619  0.50313  0.19120  1.0000
  O   O11       1.0  0.80322  0.23747  0.77551  1.0000
  O   O12       1.0  0.19678  0.76253  0.22449  1.0000
  O   O13       1.0  0.88151  0.36458  0.63067  1.0000
  O   O14       1.0  0.11849  0.63542  0.36933  1.0000
  O   O15       1.0  0.41596  0.92498  0.81339  1.0000
  O   O16       1.0  0.58404  0.07501  0.18661  1.0000
  O   O17       1.0  0.49448  0.09198  0.74410  1.0000
  O   O18       1.0  0.50551  0.90802  0.25590  1.0000
  O   O19       1.0  0.47942  0.18316  0.91174  1.0000
  O   O20       1.0  0.52058  0.81684  0.08826  1.0000
  O   O21       1.0  0.33049  0.18183  0.05564  1.0000
  O   O22       1.0  0.66951  0.81817  0.94436  1.0000
  O   O23       1.0  0.49760  0.69346  0.72217  1.0000
  O   O24       1.0  0.50241  0.30654  0.27783  1.0000
  O   O25       1.0  0.43106  0.69076  0.57592  1.0000
  O   O26       1.0  0.56893  0.30925  0.42409  1.0000
  O   O27       1.0  0.74842  0.63018  0.55727  1.0000
  O   O28       1.0  0.25158  0.36982  0.44272  1.0000
  O   O29       1.0  0.87006  0.75245  0.46924  1.0000
  O   O30       1.0  0.12993  0.24756  0.53075  1.0000
  O   O31       1.0  0.70453  0.15725  0.60170  1.0000
  O   O32       1.0  0.29546  0.84275  0.39830  1.0000
  O   O33       1.0  0.61687  0.43023  0.59128  1.0000
  O   O34       1.0  0.38313  0.56977  0.40872  1.0000
  O   O35       1.0  0.37025  0.39983  0.64629  1.0000
  O   O36       1.0  0.62975  0.60018  0.35371  1.0000
  O   O37       1.0  0.49791  0.42903  0.82007  1.0000
  O   O38       1.0  0.50209  0.57097  0.17993  1.0000
  O   O39       1.0  0.75451  0.01938  0.82574  1.0000
  O   O40       1.0  0.24549  0.98062  0.17426  1.0000
