data_image0
_chemical_formula_structural       Ag12H20C48N16O32
_chemical_formula_sum              "Ag12 H20 C48 N16 O32"
_cell_length_a       10.1587
_cell_length_b       11.3224
_cell_length_c       13.348
_cell_angle_alpha    107.987
_cell_angle_beta     90
_cell_angle_gamma    90

_space_group_name_H-M_alt    "P 1"
_space_group_IT_number       1

loop_
  _space_group_symop_operation_xyz
  'x, y, z'

loop_
  _atom_site_type_symbol
  _atom_site_label
  _atom_site_symmetry_multiplicity
  _atom_site_fract_x
  _atom_site_fract_y
  _atom_site_fract_z
  _atom_site_occupancy
  Ag  Ag1       1.0  0.54365  0.08397  0.35919  1.0000
  Ag  Ag2       1.0  0.04365  0.41603  0.14081  1.0000
  Ag  Ag3       1.0  0.45635  0.91603  0.64081  1.0000
  Ag  Ag4       1.0  0.95635  0.58397  0.85919  1.0000
  Ag  Ag5       1.0  0.98393  0.66629  0.50621  1.0000
  Ag  Ag6       1.0  0.48393  0.83371  0.99379  1.0000
  Ag  Ag7       1.0  0.01606  0.33371  0.49379  1.0000
  Ag  Ag8       1.0  0.51606  0.16629  0.00621  1.0000
  Ag  Ag9       1.0  0.99784  0.10570  0.83024  1.0000
  Ag  Ag10      1.0  0.49783  0.39430  0.66976  1.0000
  Ag  Ag11      1.0  0.00216  0.89430  0.16976  1.0000
  Ag  Ag12      1.0  0.50216  0.60570  0.33024  1.0000
  H   H1        1.0  0.76144  0.29261  0.58487  1.0000
  H   H2        1.0  0.26144  0.20739  0.91513  1.0000
  H   H3        1.0  0.23856  0.70739  0.41513  1.0000
  H   H4        1.0  0.73856  0.79261  0.08487  1.0000
  H   H5        1.0  0.63020  0.80797  0.26964  1.0000
  H   H6        1.0  0.13019  0.69203  0.23036  1.0000
  H   H7        1.0  0.36980  0.19203  0.73036  1.0000
  H   H8        1.0  0.86980  0.30797  0.76964  1.0000
  H   H9        1.0  0.80181  0.66834  0.30676  1.0000
  H   H10       1.0  0.30181  0.83166  0.19324  1.0000
  H   H11       1.0  0.19819  0.33166  0.69324  1.0000
  H   H12       1.0  0.69819  0.16834  0.80676  1.0000
  H   H13       1.0  0.69058  0.35011  0.41813  1.0000
  H   H14       1.0  0.19058  0.14989  0.08187  1.0000
  H   H15       1.0  0.30942  0.64989  0.58187  1.0000
  H   H16       1.0  0.80942  0.85011  0.91813  1.0000
  H   H17       1.0  0.84662  0.47379  0.34470  1.0000
  H   H18       1.0  0.34662  0.02621  0.15530  1.0000
  H   H19       1.0  0.15338  0.52621  0.65530  1.0000
  H   H20       1.0  0.65338  0.97379  0.84470  1.0000
  C   C1        1.0  0.90999  0.94467  0.62248  1.0000
  C   C2        1.0  0.40999  0.55533  0.87752  1.0000
  C   C3        1.0  0.09001  0.05533  0.37751  1.0000
  C   C4        1.0  0.59001  0.44467  0.12248  1.0000
  C   C5        1.0  0.83231  0.90837  0.52050  1.0000
  C   C6        1.0  0.33231  0.59163  0.97950  1.0000
  C   C7        1.0  0.16769  0.09163  0.47950  1.0000
  C   C8        1.0  0.66769  0.40837  0.02050  1.0000
  C   C9        1.0  0.74074  0.98843  0.49687  1.0000
  C   C10       1.0  0.24074  0.51157  0.00313  1.0000
  C   C11       1.0  0.25926  0.01157  0.50313  1.0000
  C   C12       1.0  0.75926  0.48843  0.99687  1.0000
  C   C13       1.0  0.71361  0.11865  0.56783  1.0000
  C   C14       1.0  0.21361  0.38135  0.93217  1.0000
  C   C15       1.0  0.28639  0.88135  0.43217  1.0000
  C   C16       1.0  0.78639  0.61865  0.06783  1.0000
  C   C17       1.0  0.68858  0.83747  0.34135  1.0000
  C   C18       1.0  0.18858  0.66253  0.15865  1.0000
  C   C19       1.0  0.31142  0.16253  0.65865  1.0000
  C   C20       1.0  0.81142  0.33747  0.84135  1.0000
  C   C21       1.0  0.78277  0.75922  0.36299  1.0000
  C   C22       1.0  0.28277  0.74078  0.13701  1.0000
  C   C23       1.0  0.21723  0.24078  0.63701  1.0000
  C   C24       1.0  0.71723  0.25922  0.86299  1.0000
  C   C25       1.0  0.89232  0.15922  0.03694  1.0000
  C   C26       1.0  0.39232  0.34078  0.46306  1.0000
  C   C27       1.0  0.10768  0.84078  0.96306  1.0000
  C   C28       1.0  0.60768  0.65922  0.53694  1.0000
  C   C29       1.0  0.83918  0.21408  0.14690  1.0000
  C   C30       1.0  0.33918  0.28592  0.35310  1.0000
  C   C31       1.0  0.16082  0.78592  0.85310  1.0000
  C   C32       1.0  0.66082  0.71408  0.64690  1.0000
  C   C33       1.0  0.75194  0.14572  0.18889  1.0000
  C   C34       1.0  0.25194  0.35428  0.31111  1.0000
  C   C35       1.0  0.24806  0.85428  0.81111  1.0000
  C   C36       1.0  0.74806  0.64572  0.68889  1.0000
  C   C37       1.0  0.70497  0.01595  0.13036  1.0000
  C   C38       1.0  0.20497  0.48405  0.36964  1.0000
  C   C39       1.0  0.29503  0.98405  0.86964  1.0000
  C   C40       1.0  0.79503  0.51595  0.63036  1.0000
  C   C41       1.0  0.73492  0.30997  0.34092  1.0000
  C   C42       1.0  0.23492  0.19003  0.15908  1.0000
  C   C43       1.0  0.26508  0.69003  0.65908  1.0000
  C   C44       1.0  0.76508  0.80997  0.84092  1.0000
  C   C45       1.0  0.82093  0.37892  0.29950  1.0000
  C   C46       1.0  0.32093  0.12108  0.20050  1.0000
  C   C47       1.0  0.17907  0.62108  0.70050  1.0000
  C   C48       1.0  0.67907  0.87892  0.79950  1.0000
  N   N1        1.0  0.66773  0.95189  0.40789  1.0000
  N   N2        1.0  0.16773  0.54811  0.09211  1.0000
  N   N3        1.0  0.33227  0.04811  0.59211  1.0000
  N   N4        1.0  0.83227  0.45188  0.90789  1.0000
  N   N5        1.0  0.85188  0.79397  0.45261  1.0000
  N   N6        1.0  0.35188  0.70603  0.04739  1.0000
  N   N7        1.0  0.14812  0.20603  0.54739  1.0000
  N   N8        1.0  0.64812  0.29397  0.95261  1.0000
  N   N9        1.0  0.70110  0.19395  0.28581  1.0000
  N   N10       1.0  0.20110  0.30606  0.21419  1.0000
  N   N11       1.0  0.29890  0.80605  0.71419  1.0000
  N   N12       1.0  0.79890  0.69394  0.78581  1.0000
  N   N13       1.0  0.87285  0.33101  0.20308  1.0000
  N   N14       1.0  0.37285  0.16899  0.29691  1.0000
  N   N15       1.0  0.12715  0.66899  0.79691  1.0000
  N   N16       1.0  0.62715  0.83101  0.70309  1.0000
  O   O1        1.0  0.97204  0.86289  0.64878  1.0000
  O   O2        1.0  0.47204  0.63712  0.85122  1.0000
  O   O3        1.0  0.02796  0.13711  0.35122  1.0000
  O   O4        1.0  0.52796  0.36289  0.14878  1.0000
  O   O5        1.0  0.90280  0.06005  0.67487  1.0000
  O   O6        1.0  0.40280  0.43995  0.82513  1.0000
  O   O7        1.0  0.09721  0.93995  0.32513  1.0000
  O   O8        1.0  0.59721  0.56005  0.17487  1.0000
  O   O9        1.0  0.62816  0.14027  0.63651  1.0000
  O   O10       1.0  0.12816  0.35973  0.86349  1.0000
  O   O11       1.0  0.37184  0.85973  0.36349  1.0000
  O   O12       1.0  0.87184  0.64027  0.13651  1.0000
  O   O13       1.0  0.78323  0.20181  0.53979  1.0000
  O   O14       1.0  0.28323  0.29819  0.96021  1.0000
  O   O15       1.0  0.21677  0.79819  0.46021  1.0000
  O   O16       1.0  0.71677  0.70181  0.03979  1.0000
  O   O17       1.0  0.97872  0.22153  0.00478  1.0000
  O   O18       1.0  0.47872  0.27847  0.49522  1.0000
  O   O19       1.0  0.02129  0.77846  0.99522  1.0000
  O   O20       1.0  0.52128  0.72153  0.50478  1.0000
  O   O21       1.0  0.84530  0.05684  0.98280  1.0000
  O   O22       1.0  0.34530  0.44316  0.51720  1.0000
  O   O23       1.0  0.15470  0.94316  0.01720  1.0000
  O   O24       1.0  0.65470  0.55684  0.48280  1.0000
  O   O25       1.0  0.59688  0.00769  0.08076  1.0000
  O   O26       1.0  0.09688  0.49231  0.41924  1.0000
  O   O27       1.0  0.40312  0.99231  0.91924  1.0000
  O   O28       1.0  0.90312  0.50769  0.58076  1.0000
  O   O29       1.0  0.76820  0.92556  0.14439  1.0000
  O   O30       1.0  0.26820  0.57444  0.35561  1.0000
  O   O31       1.0  0.23180  0.07444  0.85561  1.0000
  O   O32       1.0  0.73180  0.42556  0.64439  1.0000
