data_image0
_chemical_formula_structural       Fe4H4C8O12
_chemical_formula_sum              "Fe4 H4 C8 O12"
_cell_length_a       3.37472
_cell_length_b       8.99277
_cell_length_c       9.68543
_cell_angle_alpha    90.0019
_cell_angle_beta     89.9981
_cell_angle_gamma    107.618

_space_group_name_H-M_alt    "P 1"
_space_group_IT_number       1

loop_
  _space_group_symop_operation_xyz
  'x, y, z'

loop_
  _atom_site_type_symbol
  _atom_site_label
  _atom_site_symmetry_multiplicity
  _atom_site_fract_x
  _atom_site_fract_y
  _atom_site_fract_z
  _atom_site_occupancy
  Fe  Fe1       1.0  0.37990  0.56268  0.90098  1.0000
  Fe  Fe2       1.0  0.62015  0.93731  0.40099  1.0000
  Fe  Fe3       1.0  0.62012  0.43733  0.09901  1.0000
  Fe  Fe4       1.0  0.37986  0.06266  0.59899  1.0000
  H   H1        1.0  0.34279  0.68048  0.15072  1.0000
  H   H2        1.0  0.65716  0.81951  0.65073  1.0000
  H   H3        1.0  0.65722  0.31953  0.84928  1.0000
  H   H4        1.0  0.34280  0.18045  0.34928  1.0000
  C   C1        1.0  0.17199  0.55382  0.58559  1.0000
  C   C2        1.0  0.82796  0.94615  0.08562  1.0000
  C   C3        1.0  0.82801  0.44617  0.41440  1.0000
  C   C4        1.0  0.17200  0.05385  0.91439  1.0000
  C   C5        1.0  0.05501  0.60815  0.45246  1.0000
  C   C6        1.0  0.94495  0.89187  0.95244  1.0000
  C   C7        1.0  0.94499  0.39183  0.54755  1.0000
  C   C8        1.0  0.05502  0.10815  0.04757  1.0000
  O   O1        1.0  0.23678  0.57543  0.10758  1.0000
  O   O2        1.0  0.76320  0.92458  0.60760  1.0000
  O   O3        1.0  0.76329  0.42458  0.89243  1.0000
  O   O4        1.0  0.23678  0.07543  0.39240  1.0000
  O   O5        1.0  0.38355  0.62194  0.68736  1.0000
  O   O6        1.0  0.61644  0.87803  0.18735  1.0000
  O   O7        1.0  0.61644  0.37804  0.31264  1.0000
  O   O8        1.0  0.38355  0.12198  0.81264  1.0000
  O   O9        1.0  0.11513  0.73878  0.39417  1.0000
  O   O10       1.0  0.88479  0.76123  0.89415  1.0000
  O   O11       1.0  0.88490  0.26122  0.60582  1.0000
  O   O12       1.0  0.11519  0.23878  0.10585  1.0000
