data_image0
_chemical_formula_structural       Pr2Ag2H12C28N4O16
_chemical_formula_sum              "Pr2 Ag2 H12 C28 N4 O16"
_cell_length_a       7.37984
_cell_length_b       10.2544
_cell_length_c       11.5742
_cell_angle_alpha    97.341
_cell_angle_beta     101.419
_cell_angle_gamma    95.6031

_space_group_name_H-M_alt    "P 1"
_space_group_IT_number       1

loop_
  _space_group_symop_operation_xyz
  'x, y, z'

loop_
  _atom_site_type_symbol
  _atom_site_label
  _atom_site_symmetry_multiplicity
  _atom_site_fract_x
  _atom_site_fract_y
  _atom_site_fract_z
  _atom_site_occupancy
  Pr  Pr1       1.0  0.26003  0.47097  0.07243  1.0000
  Pr  Pr2       1.0  0.73997  0.52903  0.92757  1.0000
  Ag  Ag1       1.0  0.28849  0.76966  0.69744  1.0000
  Ag  Ag2       1.0  0.71150  0.23034  0.30256  1.0000
  H   H1        1.0  0.19590  0.65448  0.42956  1.0000
  H   H2        1.0  0.80410  0.34551  0.57044  1.0000
  H   H3        1.0  0.57933  0.62653  0.53051  1.0000
  H   H4        1.0  0.42066  0.37347  0.46948  1.0000
  H   H5        1.0  0.87131  0.70389  0.68322  1.0000
  H   H6        1.0  0.12868  0.29611  0.31678  1.0000
  H   H7        1.0  0.72606  0.96810  0.15925  1.0000
  H   H8        1.0  0.27394  0.03189  0.84076  1.0000
  H   H9        1.0  0.04987  0.96724  0.10801  1.0000
  H   H10       1.0  0.95013  0.03276  0.89198  1.0000
  H   H11       1.0  0.27469  0.14994  0.23395  1.0000
  H   H12       1.0  0.72531  0.85006  0.76605  1.0000
  C   C1        1.0  0.05759  0.64783  0.44990  1.0000
  C   C2        1.0  0.94241  0.35217  0.55010  1.0000
  C   C3        1.0  0.90295  0.59984  0.35848  1.0000
  C   C4        1.0  0.09705  0.40016  0.64152  1.0000
  C   C5        1.0  0.72503  0.59319  0.38526  1.0000
  C   C6        1.0  0.27497  0.40681  0.61474  1.0000
  C   C7        1.0  0.71291  0.63199  0.50353  1.0000
  C   C8        1.0  0.28709  0.36802  0.49647  1.0000
  C   C9        1.0  0.87439  0.67698  0.58967  1.0000
  C   C10       1.0  0.12561  0.32302  0.41033  1.0000
  C   C11       1.0  0.93404  0.55761  0.23526  1.0000
  C   C12       1.0  0.06596  0.44239  0.76474  1.0000
  C   C13       1.0  0.55111  0.54645  0.29047  1.0000
  C   C14       1.0  0.44889  0.45355  0.70953  1.0000
  C   C15       1.0  0.57549  0.96422  0.14807  1.0000
  C   C16       1.0  0.42450  0.03577  0.85194  1.0000
  C   C17       1.0  0.45970  0.85643  0.07625  1.0000
  C   C18       1.0  0.54030  0.14357  0.92375  1.0000
  C   C19       1.0  0.26553  0.85549  0.05950  1.0000
  C   C20       1.0  0.73447  0.14451  0.94050  1.0000
  C   C21       1.0  0.19885  0.96163  0.11943  1.0000
  C   C22       1.0  0.80114  0.03837  0.88057  1.0000
  C   C23       1.0  0.32423  0.06449  0.19006  1.0000
  C   C24       1.0  0.67577  0.93551  0.80994  1.0000
  C   C25       1.0  0.54785  0.74786  0.01947  1.0000
  C   C26       1.0  0.45214  0.25213  0.98053  1.0000
  C   C27       1.0  0.12473  0.75438  0.97191  1.0000
  C   C28       1.0  0.87527  0.24562  0.02810  1.0000
  N   N1        1.0  0.04512  0.68669  0.56332  1.0000
  N   N2        1.0  0.95488  0.31331  0.43668  1.0000
  N   N3        1.0  0.51060  0.06714  0.20405  1.0000
  N   N4        1.0  0.48940  0.93286  0.79595  1.0000
  O   O1        1.0  0.09091  0.51875  0.22994  1.0000
  O   O2        1.0  0.90909  0.48126  0.77006  1.0000
  O   O3        1.0  0.80319  0.56512  0.14863  1.0000
  O   O4        1.0  0.19680  0.43488  0.85136  1.0000
  O   O5        1.0  0.49855  0.42161  0.25971  1.0000
  O   O6        1.0  0.50145  0.57839  0.74029  1.0000
  O   O7        1.0  0.46239  0.63443  0.24707  1.0000
  O   O8        1.0  0.53762  0.36557  0.75293  1.0000
  O   O9        1.0  0.70900  0.77110  0.99885  1.0000
  O   O10       1.0  0.29102  0.22891  0.00115  1.0000
  O   O11       1.0  0.45601  0.63109  0.99192  1.0000
  O   O12       1.0  0.54399  0.36892  0.00808  1.0000
  O   O13       1.0  0.06473  0.78464  0.87166  1.0000
  O   O14       1.0  0.93527  0.21536  0.12833  1.0000
  O   O15       1.0  0.06810  0.64795  0.01048  1.0000
  O   O16       1.0  0.93190  0.35205  0.98952  1.0000
