data_image0
_chemical_formula_structural       Zn3H42C30N12
_chemical_formula_sum              "Zn3 H42 C30 N12"
_cell_length_a       8.40337
_cell_length_b       8.40337
_cell_length_c       12.9325
_cell_angle_alpha    90.0001
_cell_angle_beta     89.9998
_cell_angle_gamma    120

_space_group_name_H-M_alt    "P 1"
_space_group_IT_number       1

loop_
  _space_group_symop_operation_xyz
  'x, y, z'

loop_
  _atom_site_type_symbol
  _atom_site_label
  _atom_site_symmetry_multiplicity
  _atom_site_fract_x
  _atom_site_fract_y
  _atom_site_fract_z
  _atom_site_occupancy
  Zn  Zn1       1.0  0.47410  0.47410  1.00000  1.0000
  Zn  Zn2       1.0  0.52591  1.00000  0.66667  1.0000
  Zn  Zn3       1.0  0.00000  0.52591  0.33333  1.0000
  H   H1        1.0  0.79260  0.86045  0.08173  1.0000
  H   H2        1.0  0.13956  0.93215  0.74840  1.0000
  H   H3        1.0  0.06785  0.20740  0.41507  1.0000
  H   H4        1.0  0.86045  0.79260  0.91827  1.0000
  H   H5        1.0  0.93215  0.13956  0.25160  1.0000
  H   H6        1.0  0.20740  0.06785  0.58494  1.0000
  H   H7        1.0  0.01002  0.88462  0.24840  1.0000
  H   H8        1.0  0.11539  0.12541  0.91506  1.0000
  H   H9        1.0  0.87460  0.98998  0.58173  1.0000
  H   H10       1.0  0.88462  0.01002  0.75160  1.0000
  H   H11       1.0  0.12540  0.11539  0.08493  1.0000
  H   H12       1.0  0.98998  0.87460  0.41827  1.0000
  H   H13       1.0  0.51508  0.21311  0.12339  1.0000
  H   H14       1.0  0.78690  0.30197  0.79005  1.0000
  H   H15       1.0  0.69803  0.48492  0.45672  1.0000
  H   H16       1.0  0.21311  0.51508  0.87661  1.0000
  H   H17       1.0  0.30198  0.78690  0.20995  1.0000
  H   H18       1.0  0.48492  0.69803  0.54328  1.0000
  H   H19       1.0  0.68241  0.21383  0.20587  1.0000
  H   H20       1.0  0.78617  0.46857  0.87254  1.0000
  H   H21       1.0  0.53142  0.31759  0.53920  1.0000
  H   H22       1.0  0.21383  0.68240  0.79413  1.0000
  H   H23       1.0  0.46858  0.78617  0.12746  1.0000
  H   H24       1.0  0.31759  0.53142  0.46080  1.0000
  H   H25       1.0  0.36267  0.05707  0.28498  1.0000
  H   H26       1.0  0.94293  0.30560  0.95165  1.0000
  H   H27       1.0  0.69439  0.63733  0.61831  1.0000
  H   H28       1.0  0.05707  0.36266  0.71502  1.0000
  H   H29       1.0  0.30560  0.94293  0.04835  1.0000
  H   H30       1.0  0.63733  0.69440  0.38169  1.0000
  H   H31       1.0  0.36564  0.26970  0.28173  1.0000
  H   H32       1.0  0.73029  0.09594  0.94840  1.0000
  H   H33       1.0  0.90406  0.63436  0.61507  1.0000
  H   H34       1.0  0.26970  0.36564  0.71827  1.0000
  H   H35       1.0  0.09594  0.73029  0.05160  1.0000
  H   H36       1.0  0.63436  0.90406  0.38493  1.0000
  H   H37       1.0  0.52317  0.24217  0.36118  1.0000
  H   H38       1.0  0.75782  0.28099  0.02785  1.0000
  H   H39       1.0  0.71900  0.47683  0.69451  1.0000
  H   H40       1.0  0.24217  0.52317  0.63882  1.0000
  H   H41       1.0  0.28099  0.75782  0.97215  1.0000
  H   H42       1.0  0.47683  0.71900  0.30549  1.0000
  C   C1        1.0  0.79031  0.75287  0.12911  1.0000
  C   C2        1.0  0.24713  0.03742  0.79577  1.0000
  C   C3        1.0  0.96258  0.20971  0.46244  1.0000
  C   C4        1.0  0.75287  0.79030  0.87089  1.0000
  C   C5        1.0  0.03741  0.24713  0.20423  1.0000
  C   C6        1.0  0.20970  0.96257  0.53756  1.0000
  C   C7        1.0  0.89602  0.76484  0.21307  1.0000
  C   C8        1.0  0.23515  0.13120  0.87974  1.0000
  C   C9        1.0  0.86882  0.10397  0.54641  1.0000
  C   C10       1.0  0.76484  0.89602  0.78693  1.0000
  C   C11       1.0  0.13119  0.23515  0.12026  1.0000
  C   C12       1.0  0.10398  0.86882  0.45360  1.0000
  C   C13       1.0  0.70019  0.47406  0.18433  1.0000
  C   C14       1.0  0.52595  0.22614  0.85099  1.0000
  C   C15       1.0  0.77387  0.29981  0.51766  1.0000
  C   C16       1.0  0.47406  0.70019  0.81567  1.0000
  C   C17       1.0  0.22614  0.52595  0.14901  1.0000
  C   C18       1.0  0.29981  0.77387  0.48234  1.0000
  C   C19       1.0  0.58962  0.26997  0.19626  1.0000
  C   C20       1.0  0.73004  0.31965  0.86292  1.0000
  C   C21       1.0  0.68035  0.41038  0.52959  1.0000
  C   C22       1.0  0.26997  0.58962  0.80374  1.0000
  C   C23       1.0  0.31965  0.73004  0.13708  1.0000
  C   C24       1.0  0.41038  0.68035  0.47041  1.0000
  C   C25       1.0  0.45271  0.20681  0.28640  1.0000
  C   C26       1.0  0.79318  0.24589  0.95307  1.0000
  C   C27       1.0  0.75410  0.54729  0.61973  1.0000
  C   C28       1.0  0.20682  0.45271  0.71360  1.0000
  C   C29       1.0  0.24589  0.79318  0.04693  1.0000
  C   C30       1.0  0.54729  0.75410  0.38027  1.0000
  N   N1        1.0  0.66823  0.56894  0.11054  1.0000
  N   N2        1.0  0.43107  0.09931  0.77721  1.0000
  N   N3        1.0  0.90070  0.33177  0.44388  1.0000
  N   N4        1.0  0.56894  0.66824  0.88946  1.0000
  N   N5        1.0  0.09931  0.43107  0.22279  1.0000
  N   N6        1.0  0.33176  0.90070  0.55612  1.0000
  N   N7        1.0  0.83864  0.58866  0.24798  1.0000
  N   N8        1.0  0.41135  0.24998  0.91464  1.0000
  N   N9        1.0  0.75002  0.16136  0.58131  1.0000
  N   N10       1.0  0.58866  0.83864  0.75202  1.0000
  N   N11       1.0  0.24998  0.41134  0.08536  1.0000
  N   N12       1.0  0.16136  0.75002  0.41869  1.0000
