data_image0
_chemical_formula_structural       Zn3H42C30N12
_chemical_formula_sum              "Zn3 H42 C30 N12"
_cell_length_a       8.32254
_cell_length_b       8.32463
_cell_length_c       13.2468
_cell_angle_alpha    89.9998
_cell_angle_beta     89.9999
_cell_angle_gamma    120.015

_space_group_name_H-M_alt    "P 1"
_space_group_IT_number       1

loop_
  _space_group_symop_operation_xyz
  'x, y, z'

loop_
  _atom_site_type_symbol
  _atom_site_label
  _atom_site_symmetry_multiplicity
  _atom_site_fract_x
  _atom_site_fract_y
  _atom_site_fract_z
  _atom_site_occupancy
  Zn  Zn1       1.0  0.50000  0.00000  0.17165  1.0000
  Zn  Zn2       1.0  0.50000  0.50000  0.83830  1.0000
  Zn  Zn3       1.0  0.00000  0.50000  0.50493  1.0000
  H   H1        1.0  0.91960  0.79084  0.39434  1.0000
  H   H2        1.0  0.12909  0.91924  0.06081  1.0000
  H   H3        1.0  0.20919  0.12873  0.72750  1.0000
  H   H4        1.0  0.08040  0.20915  0.39434  1.0000
  H   H5        1.0  0.87091  0.08076  0.06080  1.0000
  H   H6        1.0  0.79081  0.87127  0.72749  1.0000
  H   H7        1.0  0.12337  0.98219  0.22646  1.0000
  H   H8        1.0  0.14152  0.12280  0.89287  1.0000
  H   H9        1.0  0.01764  0.14100  0.55972  1.0000
  H   H10       1.0  0.87663  0.01781  0.22646  1.0000
  H   H11       1.0  0.85848  0.87720  0.89287  1.0000
  H   H12       1.0  0.98236  0.85899  0.55971  1.0000
  H   H13       1.0  0.32930  0.53058  0.37907  1.0000
  H   H14       1.0  0.79898  0.32981  0.04615  1.0000
  H   H15       1.0  0.46948  0.79868  0.71233  1.0000
  H   H16       1.0  0.67070  0.46942  0.37907  1.0000
  H   H17       1.0  0.20102  0.67019  0.04615  1.0000
  H   H18       1.0  0.53052  0.20132  0.71234  1.0000
  H   H19       1.0  0.49114  0.70056  0.29643  1.0000
  H   H20       1.0  0.79094  0.49138  0.96332  1.0000
  H   H21       1.0  0.29950  0.79052  0.62970  1.0000
  H   H22       1.0  0.50886  0.29944  0.29643  1.0000
  H   H23       1.0  0.20907  0.50863  0.96332  1.0000
  H   H24       1.0  0.70050  0.20947  0.62970  1.0000
  H   H25       1.0  0.63968  0.92263  0.43739  1.0000
  H   H26       1.0  0.71722  0.64021  0.10395  1.0000
  H   H27       1.0  0.07733  0.71678  0.77061  1.0000
  H   H28       1.0  0.36031  0.07737  0.43739  1.0000
  H   H29       1.0  0.28277  0.35979  0.10395  1.0000
  H   H30       1.0  0.92268  0.28323  0.77061  1.0000
  H   H31       1.0  0.62162  0.70741  0.47120  1.0000
  H   H32       1.0  0.91439  0.62232  0.13797  1.0000
  H   H33       1.0  0.29256  0.91397  0.80446  1.0000
  H   H34       1.0  0.37837  0.29259  0.47120  1.0000
  H   H35       1.0  0.08561  0.37769  0.13797  1.0000
  H   H36       1.0  0.70745  0.08603  0.80446  1.0000
  H   H37       1.0  0.46508  0.76978  0.52251  1.0000
  H   H38       1.0  0.69542  0.46603  0.18933  1.0000
  H   H39       1.0  0.23013  0.69509  0.85574  1.0000
  H   H40       1.0  0.53491  0.23022  0.52251  1.0000
  H   H41       1.0  0.30457  0.53396  0.18933  1.0000
  H   H42       1.0  0.76987  0.30492  0.85574  1.0000
  C   C1        1.0  0.27669  0.74917  0.34566  1.0000
  C   C2        1.0  0.52776  0.27694  0.01246  1.0000
  C   C3        1.0  0.25087  0.52747  0.67890  1.0000
  C   C4        1.0  0.72331  0.25083  0.34566  1.0000
  C   C5        1.0  0.47225  0.72306  0.01246  1.0000
  C   C6        1.0  0.74913  0.47253  0.67890  1.0000
  C   C7        1.0  0.04380  0.79966  0.36259  1.0000
  C   C8        1.0  0.24444  0.04356  0.02911  1.0000
  C   C9        1.0  0.20035  0.24410  0.69578  1.0000
  C   C10       1.0  0.95619  0.20034  0.36259  1.0000
  C   C11       1.0  0.75557  0.95644  0.02911  1.0000
  C   C12       1.0  0.79965  0.75590  0.69577  1.0000
  C   C13       1.0  0.14284  0.89267  0.27825  1.0000
  C   C14       1.0  0.25050  0.14255  0.94475  1.0000
  C   C15       1.0  0.10725  0.25005  0.61148  1.0000
  C   C16       1.0  0.85716  0.10733  0.27825  1.0000
  C   C17       1.0  0.74951  0.85745  0.94475  1.0000
  C   C18       1.0  0.89275  0.74994  0.61147  1.0000
  C   C19       1.0  0.40961  0.68118  0.36530  1.0000
  C   C20       1.0  0.72867  0.41005  0.03221  1.0000
  C   C21       1.0  0.31882  0.72838  0.69857  1.0000
  C   C22       1.0  0.59039  0.31882  0.36530  1.0000
  C   C23       1.0  0.27133  0.58995  0.03222  1.0000
  C   C24       1.0  0.68118  0.27162  0.69857  1.0000
  C   C25       1.0  0.54171  0.77643  0.45406  1.0000
  C   C26       1.0  0.76543  0.54236  0.12084  1.0000
  C   C27       1.0  0.22351  0.76507  0.78732  1.0000
  C   C28       1.0  0.45828  0.22357  0.45406  1.0000
  C   C29       1.0  0.23457  0.45764  0.12084  1.0000
  C   C30       1.0  0.77649  0.23494  0.78732  1.0000
  N   N1        1.0  0.28883  0.85954  0.26740  1.0000
  N   N2        1.0  0.42954  0.28886  0.93408  1.0000
  N   N3        1.0  0.14038  0.42917  0.60065  1.0000
  N   N4        1.0  0.71117  0.14047  0.26740  1.0000
  N   N5        1.0  0.57047  0.71114  0.93408  1.0000
  N   N6        1.0  0.85961  0.57083  0.60065  1.0000
  N   N7        1.0  0.12894  0.70951  0.40519  1.0000
  N   N8        1.0  0.41965  0.12904  0.07188  1.0000
  N   N9        1.0  0.29056  0.41940  0.73840  1.0000
  N   N10       1.0  0.87105  0.29048  0.40519  1.0000
  N   N11       1.0  0.58036  0.87096  0.07188  1.0000
  N   N12       1.0  0.70945  0.58061  0.73839  1.0000
