data_image0
_chemical_formula_structural       Fe2H6C4N6Cl4
_chemical_formula_sum              "Fe2 H6 C4 N6 Cl4"
_cell_length_a       6.65176
_cell_length_b       6.97094
_cell_length_c       7.37325
_cell_angle_alpha    116.036
_cell_angle_beta     112.268
_cell_angle_gamma    97.4329

_space_group_name_H-M_alt    "P 1"
_space_group_IT_number       1

loop_
  _space_group_symop_operation_xyz
  'x, y, z'

loop_
  _atom_site_type_symbol
  _atom_site_label
  _atom_site_symmetry_multiplicity
  _atom_site_fract_x
  _atom_site_fract_y
  _atom_site_fract_z
  _atom_site_occupancy
  Fe  Fe1       1.0  0.50000  1.00000  0.00000  1.0000
  Fe  Fe2       1.0  1.00000  0.99999  1.00000  1.0000
  H   H1        1.0  0.30775  0.60586  0.16245  1.0000
  H   H2        1.0  0.69224  0.39415  0.83755  1.0000
  H   H3        1.0  0.14338  0.77661  0.44092  1.0000
  H   H4        1.0  0.73493  0.65742  0.39341  1.0000
  H   H5        1.0  0.85663  0.22340  0.55908  1.0000
  H   H6        1.0  0.26506  0.34258  0.60659  1.0000
  C   C1        1.0  0.31721  0.77196  0.48916  1.0000
  C   C2        1.0  0.62374  0.71433  0.46536  1.0000
  C   C3        1.0  0.68276  0.22804  0.51082  1.0000
  C   C4        1.0  0.37625  0.28566  0.53462  1.0000
  N   N1        1.0  0.48760  0.85720  0.70209  1.0000
  N   N2        1.0  0.68265  0.82292  0.68707  1.0000
  N   N3        1.0  0.51241  0.14280  0.29793  1.0000
  N   N4        1.0  0.31736  0.17708  0.31294  1.0000
  N   N5        1.0  0.39853  0.68230  0.33896  1.0000
  N   N6        1.0  0.60149  0.31771  0.66106  1.0000
  Cl  Cl1       1.0  0.82464  0.30142  0.13596  1.0000
  Cl  Cl2       1.0  0.80874  0.82234  0.13885  1.0000
  Cl  Cl3       1.0  0.17537  0.69858  0.86404  1.0000
  Cl  Cl4       1.0  0.19126  0.17766  0.86115  1.0000
