data_image0
_chemical_formula_structural       Cd2H16C24S4Br4N8
_chemical_formula_sum              "Cd2 H16 C24 S4 Br4 N8"
_cell_length_a       8.20109
_cell_length_b       9.11785
_cell_length_c       10.9375
_cell_angle_alpha    90.0011
_cell_angle_beta     101.356
_cell_angle_gamma    89.9983

_space_group_name_H-M_alt    "P 1"
_space_group_IT_number       1

loop_
  _space_group_symop_operation_xyz
  'x, y, z'

loop_
  _atom_site_type_symbol
  _atom_site_label
  _atom_site_symmetry_multiplicity
  _atom_site_fract_x
  _atom_site_fract_y
  _atom_site_fract_z
  _atom_site_occupancy
  Cd  Cd1       1.0  1.00000  0.00001  0.99999  1.0000
  Cd  Cd2       1.0  0.50000  0.50000  1.00000  1.0000
  H   H1        1.0  0.96643  0.24064  0.77824  1.0000
  H   H2        1.0  0.46644  0.25938  0.77825  1.0000
  H   H3        1.0  0.03357  0.75936  0.22175  1.0000
  H   H4        1.0  0.53357  0.74064  0.22176  1.0000
  H   H5        1.0  0.04318  0.27373  0.56892  1.0000
  H   H6        1.0  0.54315  0.22624  0.56891  1.0000
  H   H7        1.0  0.95682  0.72627  0.43107  1.0000
  H   H8        1.0  0.45682  0.77375  0.43108  1.0000
  H   H9        1.0  0.35837  0.89073  0.65133  1.0000
  H   H10       1.0  0.85839  0.60926  0.65134  1.0000
  H   H11       1.0  0.64163  0.10924  0.34866  1.0000
  H   H12       1.0  0.14162  0.39074  0.34865  1.0000
  H   H13       1.0  0.26707  0.87386  0.85522  1.0000
  H   H14       1.0  0.76708  0.62613  0.85523  1.0000
  H   H15       1.0  0.73291  0.12612  0.14476  1.0000
  H   H16       1.0  0.23293  0.37387  0.14476  1.0000
  C   C1        1.0  0.38762  0.15678  0.07191  1.0000
  C   C2        1.0  0.88762  0.34323  0.07193  1.0000
  C   C3        1.0  0.61240  0.84324  0.92808  1.0000
  C   C4        1.0  0.11238  0.65678  0.92808  1.0000
  C   C5        1.0  0.05115  0.16479  0.74526  1.0000
  C   C6        1.0  0.55117  0.33521  0.74530  1.0000
  C   C7        1.0  0.94887  0.83521  0.25474  1.0000
  C   C8        1.0  0.44884  0.66479  0.25472  1.0000
  C   C9        1.0  0.09504  0.18355  0.62946  1.0000
  C   C10       1.0  0.59499  0.31644  0.62946  1.0000
  C   C11       1.0  0.90496  0.81644  0.37054  1.0000
  C   C12       1.0  0.40497  0.68356  0.37054  1.0000
  C   C13       1.0  0.20291  0.08122  0.59343  1.0000
  C   C14       1.0  0.70292  0.41876  0.59345  1.0000
  C   C15       1.0  0.79711  0.91878  0.40657  1.0000
  C   C16       1.0  0.29709  0.58122  0.40656  1.0000
  C   C17       1.0  0.27030  0.96973  0.67499  1.0000
  C   C18       1.0  0.77029  0.53028  0.67501  1.0000
  C   C19       1.0  0.72970  0.03026  0.32501  1.0000
  C   C20       1.0  0.22970  0.46974  0.32499  1.0000
  C   C21       1.0  0.21913  0.95992  0.78866  1.0000
  C   C22       1.0  0.71915  0.54006  0.78869  1.0000
  C   C23       1.0  0.78087  0.04009  0.21134  1.0000
  C   C24       1.0  0.28086  0.45993  0.21132  1.0000
  S   S1        1.0  0.31537  0.02436  0.14631  1.0000
  S   S2        1.0  0.81536  0.47564  0.14633  1.0000
  S   S3        1.0  0.68463  0.97565  0.85369  1.0000
  S   S4        1.0  0.18462  0.52437  0.85369  1.0000
  Br  Br1       1.0  0.25461  0.08845  0.43104  1.0000
  Br  Br2       1.0  0.75465  0.41154  0.43105  1.0000
  Br  Br3       1.0  0.74535  0.91154  0.56894  1.0000
  Br  Br4       1.0  0.24540  0.58843  0.56896  1.0000
  N   N1        1.0  0.44353  0.25138  0.01837  1.0000
  N   N2        1.0  0.94355  0.24863  0.01839  1.0000
  N   N3        1.0  0.55648  0.74863  0.98162  1.0000
  N   N4        1.0  0.05645  0.75139  0.98163  1.0000
  N   N5        1.0  0.10940  0.05359  0.82210  1.0000
  N   N6        1.0  0.60938  0.44643  0.82212  1.0000
  N   N7        1.0  0.89059  0.94641  0.17791  1.0000
  N   N8        1.0  0.39060  0.55359  0.17789  1.0000
