data_image0
_chemical_formula_structural       U4H12C28N4O24
_chemical_formula_sum              "U4 H12 C28 N4 O24"
_cell_length_a       8.17753
_cell_length_b       9.07621
_cell_length_c       11.7935
_cell_angle_alpha    97.4761
_cell_angle_beta     90.0001
_cell_angle_gamma    89.9997

_space_group_name_H-M_alt    "P 1"
_space_group_IT_number       1

loop_
  _space_group_symop_operation_xyz
  'x, y, z'

loop_
  _atom_site_type_symbol
  _atom_site_label
  _atom_site_symmetry_multiplicity
  _atom_site_fract_x
  _atom_site_fract_y
  _atom_site_fract_z
  _atom_site_occupancy
  U   U1        1.0  0.26336  0.36275  0.09635  1.0000
  U   U2        1.0  0.76336  0.13725  0.40365  1.0000
  U   U3        1.0  0.73664  0.63725  0.90365  1.0000
  U   U4        1.0  0.23664  0.86275  0.59635  1.0000
  H   H1        1.0  0.86769  0.09655  0.00877  1.0000
  H   H2        1.0  0.36770  0.40345  0.49124  1.0000
  H   H3        1.0  0.13230  0.90345  0.99124  1.0000
  H   H4        1.0  0.63231  0.59655  0.50876  1.0000
  H   H5        1.0  0.86276  0.05265  0.79182  1.0000
  H   H6        1.0  0.36276  0.44735  0.70818  1.0000
  H   H7        1.0  0.13724  0.94735  0.20818  1.0000
  H   H8        1.0  0.63724  0.55265  0.29182  1.0000
  H   H9        1.0  0.36101  0.20161  0.80925  1.0000
  H   H10       1.0  0.86102  0.29839  0.69076  1.0000
  H   H11       1.0  0.63898  0.79839  0.19075  1.0000
  H   H12       1.0  0.13898  0.70161  0.30924  1.0000
  C   C1        1.0  0.61684  0.16678  0.01821  1.0000
  C   C2        1.0  0.11683  0.33321  0.48179  1.0000
  C   C3        1.0  0.38316  0.83322  0.98179  1.0000
  C   C4        1.0  0.88317  0.66678  0.51821  1.0000
  C   C5        1.0  0.75898  0.11782  0.96029  1.0000
  C   C6        1.0  0.25898  0.38218  0.53971  1.0000
  C   C7        1.0  0.24102  0.88218  0.03971  1.0000
  C   C8        1.0  0.74102  0.61782  0.46029  1.0000
  C   C9        1.0  0.75567  0.09435  0.84106  1.0000
  C   C10       1.0  0.25567  0.40565  0.65894  1.0000
  C   C11       1.0  0.24433  0.90565  0.15894  1.0000
  C   C12       1.0  0.74433  0.59435  0.34105  1.0000
  C   C13       1.0  0.60864  0.11723  0.78563  1.0000
  C   C14       1.0  0.10864  0.38278  0.71437  1.0000
  C   C15       1.0  0.39136  0.88277  0.21437  1.0000
  C   C16       1.0  0.89136  0.61722  0.28563  1.0000
  C   C17       1.0  0.47432  0.17555  0.85054  1.0000
  C   C18       1.0  0.97432  0.32445  0.64947  1.0000
  C   C19       1.0  0.52568  0.82445  0.14946  1.0000
  C   C20       1.0  0.02568  0.67555  0.35053  1.0000
  C   C21       1.0  0.58819  0.07880  0.65956  1.0000
  C   C22       1.0  0.08819  0.42120  0.84044  1.0000
  C   C23       1.0  0.41181  0.92120  0.34044  1.0000
  C   C24       1.0  0.91182  0.57880  0.15956  1.0000
  C   C25       1.0  0.59835  0.17475  0.14506  1.0000
  C   C26       1.0  0.09836  0.32526  0.35494  1.0000
  C   C27       1.0  0.40165  0.82526  0.85494  1.0000
  C   C28       1.0  0.90165  0.67474  0.64506  1.0000
  N   N1        1.0  0.47895  0.20256  0.96444  1.0000
  N   N2        1.0  0.97895  0.29744  0.53556  1.0000
  N   N3        1.0  0.52105  0.79744  0.03556  1.0000
  N   N4        1.0  0.02105  0.70256  0.46444  1.0000
  O   O1        1.0  0.40624  0.51500  0.11997  1.0000
  O   O2        1.0  0.90624  0.98500  0.38003  1.0000
  O   O3        1.0  0.59376  0.48500  0.88003  1.0000
  O   O4        1.0  0.09376  0.01500  0.61997  1.0000
  O   O5        1.0  0.12418  0.20790  0.07007  1.0000
  O   O6        1.0  0.62418  0.29211  0.42993  1.0000
  O   O7        1.0  0.87582  0.79210  0.92992  1.0000
  O   O8        1.0  0.37582  0.70789  0.57008  1.0000
  O   O9        1.0  0.71181  0.12380  0.20204  1.0000
  O   O10       1.0  0.21180  0.37619  0.29796  1.0000
  O   O11       1.0  0.28819  0.87619  0.79796  1.0000
  O   O12       1.0  0.78820  0.62381  0.70204  1.0000
  O   O13       1.0  0.44665  0.03601  0.62424  1.0000
  O   O14       1.0  0.94665  0.46399  0.87576  1.0000
  O   O15       1.0  0.55335  0.96399  0.37576  1.0000
  O   O16       1.0  0.05335  0.53602  0.12424  1.0000
  O   O17       1.0  0.71033  0.09188  0.59527  1.0000
  O   O18       1.0  0.21033  0.40812  0.90473  1.0000
  O   O19       1.0  0.28967  0.90812  0.40473  1.0000
  O   O20       1.0  0.78967  0.59187  0.09527  1.0000
  O   O21       1.0  0.46309  0.22583  0.18655  1.0000
  O   O22       1.0  0.96308  0.27417  0.31345  1.0000
  O   O23       1.0  0.53691  0.77417  0.81345  1.0000
  O   O24       1.0  0.03691  0.72583  0.68655  1.0000
