data_image0
_chemical_formula_structural       Mn8H56C40O36
_chemical_formula_sum              "Mn8 H56 C40 O36"
_cell_length_a       7.57142
_cell_length_b       9.01838
_cell_length_c       17.9749
_cell_angle_alpha    90
_cell_angle_beta     90
_cell_angle_gamma    90

_space_group_name_H-M_alt    "P 1"
_space_group_IT_number       1

loop_
  _space_group_symop_operation_xyz
  'x, y, z'

loop_
  _atom_site_type_symbol
  _atom_site_label
  _atom_site_symmetry_multiplicity
  _atom_site_fract_x
  _atom_site_fract_y
  _atom_site_fract_z
  _atom_site_occupancy
  Mn  Mn1       1.0  0.70629  0.05513  0.52508  1.0000
  Mn  Mn2       1.0  0.70629  0.05513  0.97492  1.0000
  Mn  Mn3       1.0  0.70629  0.44487  0.02508  1.0000
  Mn  Mn4       1.0  0.29371  0.55513  0.52508  1.0000
  Mn  Mn5       1.0  0.29371  0.94487  0.47492  1.0000
  Mn  Mn6       1.0  0.29371  0.94487  0.02508  1.0000
  Mn  Mn7       1.0  0.29371  0.55513  0.97492  1.0000
  Mn  Mn8       1.0  0.70629  0.44487  0.47492  1.0000
  H   H1        1.0  0.29992  0.12144  0.32609  1.0000
  H   H2        1.0  0.29992  0.12144  0.17391  1.0000
  H   H3        1.0  0.29992  0.37856  0.82609  1.0000
  H   H4        1.0  0.70008  0.62144  0.32609  1.0000
  H   H5        1.0  0.70008  0.87856  0.67391  1.0000
  H   H6        1.0  0.70008  0.87856  0.82609  1.0000
  H   H7        1.0  0.70008  0.62144  0.17391  1.0000
  H   H8        1.0  0.29992  0.37856  0.67391  1.0000
  H   H9        1.0  0.48843  0.01313  0.31700  1.0000
  H   H10       1.0  0.48843  0.01313  0.18300  1.0000
  H   H11       1.0  0.48843  0.48687  0.81700  1.0000
  H   H12       1.0  0.51157  0.51313  0.31700  1.0000
  H   H13       1.0  0.51157  0.98687  0.68300  1.0000
  H   H14       1.0  0.51157  0.98687  0.81700  1.0000
  H   H15       1.0  0.51157  0.51313  0.18300  1.0000
  H   H16       1.0  0.48843  0.48687  0.68300  1.0000
  H   H17       1.0  0.64028  0.23292  0.25000  1.0000
  H   H18       1.0  0.64028  0.26708  0.75000  1.0000
  H   H19       1.0  0.35972  0.73292  0.25000  1.0000
  H   H20       1.0  0.35972  0.76708  0.75000  1.0000
  H   H21       1.0  0.43657  0.32487  0.25000  1.0000
  H   H22       1.0  0.43657  0.17513  0.75000  1.0000
  H   H23       1.0  0.56343  0.82487  0.25000  1.0000
  H   H24       1.0  0.56343  0.67513  0.75000  1.0000
  H   H25       1.0  0.81684  0.47656  0.75000  1.0000
  H   H26       1.0  0.81684  0.02344  0.25000  1.0000
  H   H27       1.0  0.18316  0.97656  0.75000  1.0000
  H   H28       1.0  0.18316  0.52344  0.25000  1.0000
  H   H29       1.0  0.04262  0.42720  0.75000  1.0000
  H   H30       1.0  0.04263  0.07280  0.25000  1.0000
  H   H31       1.0  0.95737  0.92720  0.75000  1.0000
  H   H32       1.0  0.95737  0.57280  0.25000  1.0000
  H   H33       1.0  0.88951  0.70971  0.67909  1.0000
  H   H34       1.0  0.88951  0.70971  0.82090  1.0000
  H   H35       1.0  0.88951  0.79029  0.17910  1.0000
  H   H36       1.0  0.11049  0.20971  0.67910  1.0000
  H   H37       1.0  0.11049  0.29029  0.32090  1.0000
  H   H38       1.0  0.11049  0.29029  0.17909  1.0000
  H   H39       1.0  0.11049  0.20971  0.82090  1.0000
  H   H40       1.0  0.88951  0.79029  0.32090  1.0000
  H   H41       1.0  0.11688  0.65769  0.67865  1.0000
  H   H42       1.0  0.11688  0.65769  0.82135  1.0000
  H   H43       1.0  0.11688  0.84231  0.17865  1.0000
  H   H44       1.0  0.88312  0.15769  0.67865  1.0000
  H   H45       1.0  0.88312  0.34231  0.32135  1.0000
  H   H46       1.0  0.88312  0.34231  0.17865  1.0000
  H   H47       1.0  0.88312  0.15769  0.82135  1.0000
  H   H48       1.0  0.11688  0.84231  0.32135  1.0000
  H   H49       1.0  0.98541  0.18965  0.46627  1.0000
  H   H50       1.0  0.98541  0.18965  0.03373  1.0000
  H   H51       1.0  0.98541  0.31035  0.96627  1.0000
  H   H52       1.0  0.01459  0.68965  0.46627  1.0000
  H   H53       1.0  0.01459  0.81035  0.53373  1.0000
  H   H54       1.0  0.01459  0.81035  0.96627  1.0000
  H   H55       1.0  0.01459  0.68965  0.03373  1.0000
  H   H56       1.0  0.98541  0.31035  0.53373  1.0000
  C   C1        1.0  0.51753  0.18933  0.39147  1.0000
  C   C2        1.0  0.51752  0.18932  0.10853  1.0000
  C   C3        1.0  0.51753  0.31066  0.89147  1.0000
  C   C4        1.0  0.48247  0.68933  0.39147  1.0000
  C   C5        1.0  0.48247  0.81067  0.60853  1.0000
  C   C6        1.0  0.48247  0.81067  0.89147  1.0000
  C   C7        1.0  0.48247  0.68934  0.10853  1.0000
  C   C8        1.0  0.51753  0.31067  0.60853  1.0000
  C   C9        1.0  0.44420  0.12937  0.31969  1.0000
  C   C10       1.0  0.44420  0.12937  0.18032  1.0000
  C   C11       1.0  0.44420  0.37063  0.81969  1.0000
  C   C12       1.0  0.55580  0.62937  0.31969  1.0000
  C   C13       1.0  0.55580  0.87063  0.68031  1.0000
  C   C14       1.0  0.55580  0.87063  0.81968  1.0000
  C   C15       1.0  0.55580  0.62937  0.18031  1.0000
  C   C16       1.0  0.44420  0.37063  0.68031  1.0000
  C   C17       1.0  0.49690  0.21399  0.25000  1.0000
  C   C18       1.0  0.49690  0.28601  0.75000  1.0000
  C   C19       1.0  0.50310  0.71399  0.25000  1.0000
  C   C20       1.0  0.50310  0.78601  0.75000  1.0000
  C   C21       1.0  0.95164  0.52213  0.75000  1.0000
  C   C22       1.0  0.95164  0.97786  0.25000  1.0000
  C   C23       1.0  0.04836  0.02213  0.75000  1.0000
  C   C24       1.0  0.04836  0.47786  0.25000  1.0000
  C   C25       1.0  0.98078  0.61532  0.67956  1.0000
  C   C26       1.0  0.98078  0.61531  0.82044  1.0000
  C   C27       1.0  0.98078  0.88469  0.17956  1.0000
  C   C28       1.0  0.01922  0.11531  0.67956  1.0000
  C   C29       1.0  0.01922  0.38469  0.32044  1.0000
  C   C30       1.0  0.01922  0.38468  0.17956  1.0000
  C   C31       1.0  0.01922  0.11531  0.82044  1.0000
  C   C32       1.0  0.98078  0.88468  0.32044  1.0000
  C   C33       1.0  0.94971  0.52569  0.60959  1.0000
  C   C34       1.0  0.94971  0.52569  0.89041  1.0000
  C   C35       1.0  0.94971  0.97431  0.10959  1.0000
  C   C36       1.0  0.05029  0.02569  0.60959  1.0000
  C   C37       1.0  0.05029  0.47431  0.39041  1.0000
  C   C38       1.0  0.05029  0.47431  0.10959  1.0000
  C   C39       1.0  0.05029  0.02569  0.89041  1.0000
  C   C40       1.0  0.94971  0.97431  0.39041  1.0000
  O   O1        1.0  0.90711  0.25000  0.50000  1.0000
  O   O2        1.0  0.90711  0.25000  0.00000  1.0000
  O   O3        1.0  0.09289  0.75000  0.50000  1.0000
  O   O4        1.0  0.09289  0.75000  0.00000  1.0000
  O   O5        1.0  0.79883  0.53020  0.57940  1.0000
  O   O6        1.0  0.79883  0.53021  0.92060  1.0000
  O   O7        1.0  0.79883  0.96980  0.07940  1.0000
  O   O8        1.0  0.20117  0.03020  0.57940  1.0000
  O   O9        1.0  0.20117  0.46980  0.42060  1.0000
  O   O10       1.0  0.20117  0.46980  0.07940  1.0000
  O   O11       1.0  0.20117  0.03020  0.92060  1.0000
  O   O12       1.0  0.79883  0.96980  0.42060  1.0000
  O   O13       1.0  0.61789  0.30142  0.39032  1.0000
  O   O14       1.0  0.61789  0.30142  0.10968  1.0000
  O   O15       1.0  0.61789  0.19858  0.89032  1.0000
  O   O16       1.0  0.38211  0.80142  0.39032  1.0000
  O   O17       1.0  0.38211  0.69858  0.60968  1.0000
  O   O18       1.0  0.38211  0.69858  0.89032  1.0000
  O   O19       1.0  0.38211  0.80142  0.10968  1.0000
  O   O20       1.0  0.61789  0.19858  0.60968  1.0000
  O   O21       1.0  0.07860  0.44563  0.58452  1.0000
  O   O22       1.0  0.07859  0.44563  0.91548  1.0000
  O   O23       1.0  0.07860  0.05437  0.08452  1.0000
  O   O24       1.0  0.92140  0.94563  0.58452  1.0000
  O   O25       1.0  0.92140  0.55437  0.41548  1.0000
  O   O26       1.0  0.92140  0.55437  0.08452  1.0000
  O   O27       1.0  0.92140  0.94563  0.91548  1.0000
  O   O28       1.0  0.07860  0.05437  0.41548  1.0000
  O   O29       1.0  0.47992  0.11843  0.45182  1.0000
  O   O30       1.0  0.47992  0.11843  0.04818  1.0000
  O   O31       1.0  0.47992  0.38157  0.95182  1.0000
  O   O32       1.0  0.52008  0.61843  0.45182  1.0000
  O   O33       1.0  0.52008  0.88157  0.54818  1.0000
  O   O34       1.0  0.52008  0.88157  0.95182  1.0000
  O   O35       1.0  0.52008  0.61843  0.04818  1.0000
  O   O36       1.0  0.47992  0.38157  0.54818  1.0000
