data_image0
_chemical_formula_structural       Zn12H24C36N48O12
_chemical_formula_sum              "Zn12 H24 C36 N48 O12"
_cell_length_a       10.9922
_cell_length_b       11.0116
_cell_length_c       13.4044
_cell_angle_alpha    99.8933
_cell_angle_beta     105.63
_cell_angle_gamma    118.563

_space_group_name_H-M_alt    "P 1"
_space_group_IT_number       1

loop_
  _space_group_symop_operation_xyz
  'x, y, z'

loop_
  _atom_site_type_symbol
  _atom_site_label
  _atom_site_symmetry_multiplicity
  _atom_site_fract_x
  _atom_site_fract_y
  _atom_site_fract_z
  _atom_site_occupancy
  Zn  Zn1       1.0  0.32212  0.40088  0.49802  1.0000
  Zn  Zn2       1.0  0.40272  0.82243  0.99964  1.0000
  Zn  Zn3       1.0  0.67788  0.59912  0.50198  1.0000
  Zn  Zn4       1.0  0.59728  0.17757  0.00036  1.0000
  Zn  Zn5       1.0  0.61101  0.54362  0.71272  1.0000
  Zn  Zn6       1.0  0.33295  0.89880  0.78671  1.0000
  Zn  Zn7       1.0  0.38899  0.45638  0.28728  1.0000
  Zn  Zn8       1.0  0.66705  0.10120  0.21329  1.0000
  Zn  Zn9       1.0  0.02858  0.37696  0.25381  1.0000
  Zn  Zn10      1.0  0.62227  0.77485  0.24568  1.0000
  Zn  Zn11      1.0  0.97142  0.62304  0.74619  1.0000
  Zn  Zn12      1.0  0.37773  0.22515  0.75432  1.0000
  H   H1        1.0  0.71860  0.90779  0.61475  1.0000
  H   H2        1.0  0.79459  0.10553  0.88700  1.0000
  H   H3        1.0  0.28140  0.09221  0.38526  1.0000
  H   H4        1.0  0.20541  0.89447  0.11300  1.0000
  H   H5        1.0  0.14230  0.22783  0.61165  1.0000
  H   H6        1.0  0.11599  0.52963  0.88623  1.0000
  H   H7        1.0  0.85769  0.77217  0.38835  1.0000
  H   H8        1.0  0.88400  0.47037  0.11376  1.0000
  H   H9        1.0  0.80558  0.32618  0.59740  1.0000
  H   H10       1.0  0.23093  0.20975  0.90247  1.0000
  H   H11       1.0  0.19441  0.67382  0.40260  1.0000
  H   H12       1.0  0.76907  0.79025  0.09753  1.0000
  H   H13       1.0  0.43178  0.26781  0.58397  1.0000
  H   H14       1.0  0.18654  0.84916  0.91570  1.0000
  H   H15       1.0  0.56822  0.73219  0.41603  1.0000
  H   H16       1.0  0.81346  0.15084  0.08430  1.0000
  H   H17       1.0  0.30729  0.58483  0.40730  1.0000
  H   H18       1.0  0.67857  0.90129  0.09503  1.0000
  H   H19       1.0  0.69271  0.41517  0.59270  1.0000
  H   H20       1.0  0.32143  0.09871  0.90497  1.0000
  H   H21       1.0  0.52267  0.68752  0.61594  1.0000
  H   H22       1.0  0.57415  0.90850  0.88570  1.0000
  H   H23       1.0  0.47733  0.31248  0.38406  1.0000
  H   H24       1.0  0.42585  0.09150  0.11430  1.0000
  C   C1        1.0  0.78977  0.01192  0.60562  1.0000
  C   C2        1.0  0.90793  0.18558  0.89526  1.0000
  C   C3        1.0  0.21023  0.98808  0.39438  1.0000
  C   C4        1.0  0.09207  0.81442  0.10474  1.0000
  C   C5        1.0  0.98892  0.96067  0.62520  1.0000
  C   C6        1.0  0.83639  0.36443  0.87499  1.0000
  C   C7        1.0  0.01108  0.03932  0.37480  1.0000
  C   C8        1.0  0.16361  0.63557  0.12501  1.0000
  C   C9        1.0  0.93152  0.05296  0.60658  1.0000
  C   C10       1.0  0.94745  0.32560  0.89327  1.0000
  C   C11       1.0  0.06848  0.94704  0.39342  1.0000
  C   C12       1.0  0.05255  0.67440  0.10672  1.0000
  C   C13       1.0  0.98273  0.29039  0.60165  1.0000
  C   C14       1.0  0.18978  0.38140  0.89697  1.0000
  C   C15       1.0  0.01727  0.70961  0.39835  1.0000
  C   C16       1.0  0.81022  0.61860  0.10303  1.0000
  C   C17       1.0  0.09302  0.44180  0.61695  1.0000
  C   C18       1.0  0.32525  0.47606  0.88136  1.0000
  C   C19       1.0  0.90698  0.55820  0.38305  1.0000
  C   C20       1.0  0.67475  0.52394  0.11864  1.0000
  C   C21       1.0  0.02879  0.19265  0.60545  1.0000
  C   C22       1.0  0.08775  0.42316  0.89308  1.0000
  C   C23       1.0  0.97121  0.80734  0.39455  1.0000
  C   C24       1.0  0.91224  0.57684  0.10692  1.0000
  C   C25       1.0  0.74498  0.11136  0.60365  1.0000
  C   C26       1.0  0.00968  0.14307  0.89710  1.0000
  C   C27       1.0  0.25502  0.88864  0.39635  1.0000
  C   C28       1.0  0.99032  0.85693  0.10290  1.0000
  C   C29       1.0  0.83976  0.24863  0.59843  1.0000
  C   C30       1.0  0.15206  0.24269  0.90128  1.0000
  C   C31       1.0  0.16024  0.75137  0.40157  1.0000
  C   C32       1.0  0.84794  0.75731  0.09872  1.0000
  C   C33       1.0  0.61226  0.07995  0.62541  1.0000
  C   C34       1.0  0.95653  0.98843  0.87559  1.0000
  C   C35       1.0  0.38774  0.92005  0.37459  1.0000
  C   C36       1.0  0.04347  0.01157  0.12441  1.0000
  N   N1        1.0  0.90619  0.81407  0.60583  1.0000
  N   N2        1.0  0.70954  0.30204  0.89433  1.0000
  N   N3        1.0  0.09381  0.18593  0.39417  1.0000
  N   N4        1.0  0.29046  0.69796  0.10567  1.0000
  N   N5        1.0  0.14439  0.90027  0.68523  1.0000
  N   N6        1.0  0.71529  0.45897  0.81517  1.0000
  N   N7        1.0  0.85561  0.09973  0.31477  1.0000
  N   N8        1.0  0.28471  0.54103  0.18483  1.0000
  N   N9        1.0  0.13852  0.01609  0.67470  1.0000
  N   N10       1.0  0.84182  0.46347  0.82582  1.0000
  N   N11       1.0  0.86148  0.98391  0.32530  1.0000
  N   N12       1.0  0.15818  0.53653  0.17418  1.0000
  N   N13       1.0  0.21521  0.48625  0.59190  1.0000
  N   N14       1.0  0.39429  0.62360  0.90612  1.0000
  N   N15       1.0  0.78479  0.51375  0.40810  1.0000
  N   N16       1.0  0.60571  0.37640  0.09388  1.0000
  N   N17       1.0  0.00814  0.78106  0.64508  1.0000
  N   N18       1.0  0.63667  0.36403  0.85514  1.0000
  N   N19       1.0  0.99186  0.21894  0.35492  1.0000
  N   N20       1.0  0.36333  0.63597  0.14486  1.0000
  N   N21       1.0  0.22571  0.67794  0.67671  1.0000
  N   N22       1.0  0.50092  0.54891  0.82218  1.0000
  N   N23       1.0  0.77429  0.32206  0.32329  1.0000
  N   N24       1.0  0.49908  0.45110  0.17782  1.0000
  N   N25       1.0  0.29521  0.63441  0.62982  1.0000
  N   N26       1.0  0.50412  0.66564  0.86858  1.0000
  N   N27       1.0  0.70479  0.36558  0.37018  1.0000
  N   N28       1.0  0.49588  0.33436  0.13142  1.0000
  N   N29       1.0  0.09739  0.56040  0.67018  1.0000
  N   N30       1.0  0.39042  0.42690  0.82860  1.0000
  N   N31       1.0  0.90261  0.43960  0.32983  1.0000
  N   N32       1.0  0.60958  0.57310  0.17140  1.0000
  N   N33       1.0  0.55302  0.16282  0.62464  1.0000
  N   N34       1.0  0.04092  0.93083  0.87574  1.0000
  N   N35       1.0  0.44698  0.83718  0.37536  1.0000
  N   N36       1.0  0.95908  0.06917  0.12426  1.0000
  N   N37       1.0  0.54653  0.97181  0.66496  1.0000
  N   N38       1.0  0.80764  0.88163  0.83628  1.0000
  N   N39       1.0  0.45347  0.02820  0.33504  1.0000
  N   N40       1.0  0.19236  0.11837  0.16372  1.0000
  N   N41       1.0  0.44609  0.98996  0.68921  1.0000
  N   N42       1.0  0.80155  0.75680  0.81163  1.0000
  N   N43       1.0  0.55391  0.01004  0.31079  1.0000
  N   N44       1.0  0.19845  0.24320  0.18837  1.0000
  N   N45       1.0  0.44891  0.10325  0.66565  1.0000
  N   N46       1.0  0.93946  0.78457  0.83462  1.0000
  N   N47       1.0  0.55109  0.89675  0.33435  1.0000
  N   N48       1.0  0.06054  0.21543  0.16538  1.0000
  O   O1        1.0  0.53457  0.60778  0.58724  1.0000
  O   O2        1.0  0.52223  0.94838  0.91364  1.0000
  O   O3        1.0  0.46543  0.39222  0.41276  1.0000
  O   O4        1.0  0.47777  0.05162  0.08636  1.0000
  O   O5        1.0  0.25154  0.47750  0.37350  1.0000
  O   O6        1.0  0.60249  0.87724  0.12588  1.0000
  O   O7        1.0  0.74846  0.52250  0.62651  1.0000
  O   O8        1.0  0.39751  0.12276  0.87412  1.0000
  O   O9        1.0  0.40096  0.32566  0.62122  1.0000
  O   O10       1.0  0.20422  0.77910  0.87735  1.0000
  O   O11       1.0  0.59905  0.67434  0.37879  1.0000
  O   O12       1.0  0.79578  0.22090  0.12265  1.0000
