data_image0
_chemical_formula_structural       Hg2H19C20N7Cl4O
_chemical_formula_sum              "Hg2 H19 C20 N7 Cl4 O1"
_cell_length_a       8.172
_cell_length_b       8.89009
_cell_length_c       9.6535
_cell_angle_alpha    100.986
_cell_angle_beta     112.999
_cell_angle_gamma    98.8871

_space_group_name_H-M_alt    "P 1"
_space_group_IT_number       1

loop_
  _space_group_symop_operation_xyz
  'x, y, z'

loop_
  _atom_site_type_symbol
  _atom_site_label
  _atom_site_symmetry_multiplicity
  _atom_site_fract_x
  _atom_site_fract_y
  _atom_site_fract_z
  _atom_site_occupancy
  Hg  Hg1       1.0  0.20867  0.15459  0.84158  1.0000
  Hg  Hg2       1.0  0.74978  0.55416  0.21772  1.0000
  H   H1        1.0  0.43558  0.94123  0.59979  1.0000
  H   H2        1.0  0.09602  0.85479  0.45294  1.0000
  H   H3        1.0  0.10612  0.38621  0.31660  1.0000
  H   H4        1.0  0.44389  0.45002  0.45843  1.0000
  H   H5        1.0  0.09444  0.50951  0.71356  1.0000
  H   H6        1.0  0.41844  0.50190  0.82291  1.0000
  H   H7        1.0  0.66565  0.75886  0.96253  1.0000
  H   H8        1.0  0.56744  0.01372  0.97797  1.0000
  H   H9        1.0  0.78750  0.49389  0.83479  1.0000
  H   H10       1.0  0.75416  0.19811  0.76417  1.0000
  H   H11       1.0  0.74583  0.06724  0.50673  1.0000
  H   H12       1.0  0.74882  0.22985  0.32165  1.0000
  H   H13       1.0  0.19808  0.72419  0.12544  1.0000
  H   H14       1.0  0.88202  0.97856  0.03469  1.0000
  H   H15       1.0  0.06442  0.15262  0.14325  1.0000
  H   H16       1.0  0.96403  0.04457  0.24249  1.0000
  H   H17       1.0  0.41515  0.93702  0.25654  1.0000
  H   H18       1.0  0.35668  0.08027  0.37444  1.0000
  H   H19       1.0  0.36994  0.11351  0.20211  1.0000
  C   C1        1.0  0.36835  0.81679  0.53906  1.0000
  C   C2        1.0  0.17878  0.76888  0.45704  1.0000
  C   C3        1.0  0.18439  0.50783  0.38190  1.0000
  C   C4        1.0  0.37533  0.54496  0.46210  1.0000
  C   C5        1.0  0.47141  0.70323  0.54270  1.0000
  C   C6        1.0  0.67114  0.76103  0.62857  1.0000
  C   C7        1.0  0.96984  0.78792  0.73132  1.0000
  C   C8        1.0  0.15652  0.76636  0.78827  1.0000
  C   C9        1.0  0.20023  0.61992  0.77322  1.0000
  C   C10       1.0  0.38419  0.61599  0.83576  1.0000
  C   C11       1.0  0.52021  0.75739  0.91214  1.0000
  C   C12       1.0  0.46660  0.89913  0.92136  1.0000
  C   C13       1.0  0.77744  0.50724  0.61074  1.0000
  C   C14       1.0  0.77230  0.42839  0.72098  1.0000
  C   C15       1.0  0.75822  0.26605  0.68241  1.0000
  C   C16       1.0  0.75228  0.19290  0.53888  1.0000
  C   C17       1.0  0.75531  0.28297  0.43603  1.0000
  C   C18       1.0  0.08319  0.78221  0.10346  1.0000
  C   C19       1.0  0.00404  0.03462  0.14538  1.0000
  C   C20       1.0  0.33089  0.02222  0.25389  1.0000
  N   N1        1.0  0.08774  0.61680  0.37898  1.0000
  N   N2        1.0  0.75360  0.91457  0.69432  1.0000
  N   N3        1.0  0.93678  0.93030  0.75568  1.0000
  N   N4        1.0  0.29048  0.90406  0.86130  1.0000
  N   N5        1.0  0.80374  0.67666  0.65087  1.0000
  N   N6        1.0  0.76683  0.43907  0.47036  1.0000
  N   N7        1.0  0.13797  0.94036  0.16228  1.0000
  Cl  Cl1       1.0  0.70415  0.80511  0.30647  1.0000
  Cl  Cl2       1.0  0.70843  0.30454  0.04920  1.0000
  Cl  Cl3       1.0  0.25633  0.36630  0.06145  1.0000
  Cl  Cl4       1.0  0.22802  0.18880  0.60154  1.0000
  O   O1        1.0  0.91936  0.70452  0.02905  1.0000
