data_image0
_chemical_formula_structural       V8Cd4H32C52N16O24
_chemical_formula_sum              "V8 Cd4 H32 C52 N16 O24"
_cell_length_a       7.84974
_cell_length_b       12.5454
_cell_length_c       16.158
_cell_angle_alpha    108.375
_cell_angle_beta     90
_cell_angle_gamma    90

_space_group_name_H-M_alt    "P 1"
_space_group_IT_number       1

loop_
  _space_group_symop_operation_xyz
  'x, y, z'

loop_
  _atom_site_type_symbol
  _atom_site_label
  _atom_site_symmetry_multiplicity
  _atom_site_fract_x
  _atom_site_fract_y
  _atom_site_fract_z
  _atom_site_occupancy
  V   V1        1.0  0.11100  0.39231  0.80560  1.0000
  V   V2        1.0  0.61100  0.60769  0.69440  1.0000
  V   V3        1.0  0.88900  0.60769  0.19440  1.0000
  V   V4        1.0  0.38900  0.39231  0.30560  1.0000
  V   V5        1.0  0.48411  0.47232  0.84292  1.0000
  V   V6        1.0  0.98411  0.52768  0.65708  1.0000
  V   V7        1.0  0.51589  0.52768  0.15708  1.0000
  V   V8        1.0  0.01589  0.47232  0.34293  1.0000
  Cd  Cd1       1.0  0.83435  0.38793  0.98565  1.0000
  Cd  Cd2       1.0  0.33436  0.61207  0.51435  1.0000
  Cd  Cd3       1.0  0.16565  0.61207  0.01435  1.0000
  Cd  Cd4       1.0  0.66564  0.38793  0.48565  1.0000
  H   H1        1.0  0.94170  0.76476  0.78467  1.0000
  H   H2        1.0  0.44170  0.23524  0.71533  1.0000
  H   H3        1.0  0.05830  0.23524  0.21533  1.0000
  H   H4        1.0  0.55830  0.76476  0.28467  1.0000
  H   H5        1.0  0.19263  0.40089  0.09214  1.0000
  H   H6        1.0  0.69263  0.59911  0.40786  1.0000
  H   H7        1.0  0.80737  0.59911  0.90786  1.0000
  H   H8        1.0  0.30737  0.40089  0.59214  1.0000
  H   H9        1.0  0.44363  0.27628  0.09623  1.0000
  H   H10       1.0  0.94363  0.72372  0.40377  1.0000
  H   H11       1.0  0.55637  0.72372  0.90377  1.0000
  H   H12       1.0  0.05637  0.27628  0.59623  1.0000
  H   H13       1.0  0.43070  0.07483  0.01039  1.0000
  H   H14       1.0  0.93070  0.92516  0.48961  1.0000
  H   H15       1.0  0.56930  0.92517  0.98961  1.0000
  H   H16       1.0  0.06930  0.07483  0.51039  1.0000
  H   H17       1.0  0.67594  0.88414  0.79191  1.0000
  H   H18       1.0  0.17594  0.11586  0.70809  1.0000
  H   H19       1.0  0.32406  0.11586  0.20809  1.0000
  H   H20       1.0  0.82406  0.88414  0.29191  1.0000
  H   H21       1.0  0.45115  0.02703  0.80574  1.0000
  H   H22       1.0  0.95115  0.97297  0.69426  1.0000
  H   H23       1.0  0.54885  0.97297  0.19426  1.0000
  H   H24       1.0  0.04885  0.02703  0.30574  1.0000
  H   H25       1.0  0.51956  0.23139  0.88002  1.0000
  H   H26       1.0  0.01956  0.76861  0.61998  1.0000
  H   H27       1.0  0.48044  0.76861  0.11998  1.0000
  H   H28       1.0  0.98044  0.23139  0.38002  1.0000
  H   H29       1.0  0.23333  0.70955  0.82551  1.0000
  H   H30       1.0  0.73333  0.29045  0.67449  1.0000
  H   H31       1.0  0.76667  0.29045  0.17449  1.0000
  H   H32       1.0  0.26667  0.70955  0.32551  1.0000
  C   C1        1.0  0.19284  0.31174  0.05495  1.0000
  C   C2        1.0  0.69284  0.68826  0.44504  1.0000
  C   C3        1.0  0.80716  0.68826  0.94504  1.0000
  C   C4        1.0  0.30716  0.31174  0.55495  1.0000
  C   C5        1.0  0.33143  0.24230  0.05748  1.0000
  C   C6        1.0  0.83143  0.75770  0.44252  1.0000
  C   C7        1.0  0.66857  0.75770  0.94252  1.0000
  C   C8        1.0  0.16857  0.24230  0.55748  1.0000
  C   C9        1.0  0.32448  0.12992  0.00901  1.0000
  C   C10       1.0  0.82448  0.87008  0.49099  1.0000
  C   C11       1.0  0.67552  0.87008  0.99099  1.0000
  C   C12       1.0  0.17552  0.12992  0.50901  1.0000
  C   C13       1.0  0.17865  0.08753  0.95877  1.0000
  C   C14       1.0  0.67865  0.91247  0.54123  1.0000
  C   C15       1.0  0.82135  0.91248  0.04123  1.0000
  C   C16       1.0  0.32135  0.08753  0.45877  1.0000
  C   C17       1.0  0.15580  0.97218  0.90877  1.0000
  C   C18       1.0  0.65580  0.02782  0.59123  1.0000
  C   C19       1.0  0.84420  0.02782  0.09124  1.0000
  C   C20       1.0  0.34420  0.97218  0.40877  1.0000
  C   C21       1.0  0.00336  0.93485  0.86374  1.0000
  C   C22       1.0  0.50336  0.06515  0.63626  1.0000
  C   C23       1.0  0.99664  0.06515  0.13626  1.0000
  C   C24       1.0  0.49664  0.93485  0.36374  1.0000
  C   C25       1.0  0.86320  0.00724  0.86443  1.0000
  C   C26       1.0  0.36320  0.99276  0.63557  1.0000
  C   C27       1.0  0.13680  0.99276  0.13557  1.0000
  C   C28       1.0  0.63680  0.00724  0.36443  1.0000
  C   C29       1.0  0.70310  0.97262  0.82555  1.0000
  C   C30       1.0  0.20310  0.02737  0.67445  1.0000
  C   C31       1.0  0.29690  0.02737  0.17445  1.0000
  C   C32       1.0  0.79691  0.97263  0.32555  1.0000
  C   C33       1.0  0.57741  0.05219  0.83247  1.0000
  C   C34       1.0  0.07741  0.94781  0.66753  1.0000
  C   C35       1.0  0.42259  0.94781  0.16753  1.0000
  C   C36       1.0  0.92259  0.05219  0.33247  1.0000
  C   C37       1.0  0.61356  0.16577  0.87541  1.0000
  C   C38       1.0  0.11356  0.83423  0.62460  1.0000
  C   C39       1.0  0.38644  0.83422  0.12459  1.0000
  C   C40       1.0  0.88644  0.16578  0.37541  1.0000
  C   C41       1.0  0.88674  0.12364  0.91096  1.0000
  C   C42       1.0  0.38674  0.87636  0.58904  1.0000
  C   C43       1.0  0.11326  0.87635  0.08904  1.0000
  C   C44       1.0  0.61326  0.12364  0.41096  1.0000
  C   C45       1.0  0.04336  0.16339  0.95942  1.0000
  C   C46       1.0  0.54336  0.83661  0.54058  1.0000
  C   C47       1.0  0.95664  0.83661  0.04058  1.0000
  C   C48       1.0  0.45664  0.16339  0.45942  1.0000
  C   C49       1.0  0.18407  0.79471  0.84784  1.0000
  C   C50       1.0  0.68407  0.20529  0.65216  1.0000
  C   C51       1.0  0.81593  0.20529  0.15216  1.0000
  C   C52       1.0  0.31593  0.79471  0.34784  1.0000
  N   N1        1.0  0.05423  0.27323  0.00727  1.0000
  N   N2        1.0  0.55423  0.72677  0.49273  1.0000
  N   N3        1.0  0.94577  0.72677  0.99273  1.0000
  N   N4        1.0  0.44577  0.27323  0.50727  1.0000
  N   N5        1.0  0.76309  0.19960  0.91341  1.0000
  N   N6        1.0  0.26309  0.80040  0.58659  1.0000
  N   N7        1.0  0.23691  0.80040  0.08659  1.0000
  N   N8        1.0  0.73691  0.19960  0.41341  1.0000
  N   N9        1.0  0.26684  0.88368  0.89851  1.0000
  N   N10       1.0  0.76684  0.11632  0.60150  1.0000
  N   N11       1.0  0.73316  0.11632  0.10150  1.0000
  N   N12       1.0  0.23316  0.88368  0.39850  1.0000
  N   N13       1.0  0.02461  0.82102  0.82539  1.0000
  N   N14       1.0  0.52461  0.17898  0.67461  1.0000
  N   N15       1.0  0.97539  0.17898  0.17461  1.0000
  N   N16       1.0  0.47539  0.82102  0.32539  1.0000
  O   O1        1.0  0.04441  0.45228  0.91025  1.0000
  O   O2        1.0  0.54441  0.54772  0.58975  1.0000
  O   O3        1.0  0.95559  0.54772  0.08975  1.0000
  O   O4        1.0  0.45559  0.45228  0.41025  1.0000
  O   O5        1.0  0.33823  0.35551  0.79939  1.0000
  O   O6        1.0  0.83823  0.64448  0.70061  1.0000
  O   O7        1.0  0.66177  0.64449  0.20061  1.0000
  O   O8        1.0  0.16177  0.35552  0.29939  1.0000
  O   O9        1.0  0.07648  0.48829  0.74441  1.0000
  O   O10       1.0  0.57648  0.51171  0.75559  1.0000
  O   O11       1.0  0.92352  0.51171  0.25559  1.0000
  O   O12       1.0  0.42352  0.48829  0.24441  1.0000
  O   O13       1.0  0.00880  0.27575  0.76333  1.0000
  O   O14       1.0  0.50880  0.72425  0.73667  1.0000
  O   O15       1.0  0.99120  0.72425  0.23667  1.0000
  O   O16       1.0  0.49120  0.27575  0.26333  1.0000
  O   O17       1.0  0.63693  0.43487  0.89899  1.0000
  O   O18       1.0  0.13693  0.56513  0.60101  1.0000
  O   O19       1.0  0.36307  0.56513  0.10101  1.0000
  O   O20       1.0  0.86307  0.43487  0.39899  1.0000
  O   O21       1.0  0.63286  0.42297  0.09414  1.0000
  O   O22       1.0  0.13285  0.57703  0.40586  1.0000
  O   O23       1.0  0.36714  0.57703  0.90586  1.0000
  O   O24       1.0  0.86715  0.42297  0.59414  1.0000
