data_image0
_chemical_formula_structural       Cd2H54C72N6O14
_chemical_formula_sum              "Cd2 H54 C72 N6 O14"
_cell_length_a       11.3246
_cell_length_b       11.6644
_cell_length_c       14.1359
_cell_angle_alpha    93.1341
_cell_angle_beta     105.319
_cell_angle_gamma    116.672

_space_group_name_H-M_alt    "P 1"
_space_group_IT_number       1

loop_
  _space_group_symop_operation_xyz
  'x, y, z'

loop_
  _atom_site_type_symbol
  _atom_site_label
  _atom_site_symmetry_multiplicity
  _atom_site_fract_x
  _atom_site_fract_y
  _atom_site_fract_z
  _atom_site_occupancy
  Cd  Cd1       1.0  0.69359  0.35415  0.46918  1.0000
  Cd  Cd2       1.0  0.30641  0.64585  0.53082  1.0000
  H   H1        1.0  0.14054  0.61161  0.93397  1.0000
  H   H2        1.0  0.85946  0.38839  0.06602  1.0000
  H   H3        1.0  0.90623  0.49414  0.36946  1.0000
  H   H4        1.0  0.09377  0.50586  0.63054  1.0000
  H   H5        1.0  0.77295  0.37565  0.28325  1.0000
  H   H6        1.0  0.22705  0.62435  0.71675  1.0000
  H   H7        1.0  0.79557  0.00914  0.53058  1.0000
  H   H8        1.0  0.20443  0.99086  0.46942  1.0000
  H   H9        1.0  0.17246  0.01740  0.71429  1.0000
  H   H10       1.0  0.82754  0.98260  0.28571  1.0000
  H   H11       1.0  0.28321  0.25679  0.75900  1.0000
  H   H12       1.0  0.71679  0.74321  0.24100  1.0000
  H   H13       1.0  0.15201  0.37385  0.69322  1.0000
  H   H14       1.0  0.84798  0.62615  0.30678  1.0000
  H   H15       1.0  0.70398  0.81721  0.49721  1.0000
  H   H16       1.0  0.29602  0.18279  0.50278  1.0000
  H   H17       1.0  0.60134  0.57674  0.45126  1.0000
  H   H18       1.0  0.39866  0.42325  0.54874  1.0000
  H   H19       1.0  0.96565  0.58832  0.62271  1.0000
  H   H20       1.0  0.03435  0.41168  0.37729  1.0000
  H   H21       1.0  0.08612  0.82730  0.67361  1.0000
  H   H22       1.0  0.91388  0.17270  0.32639  1.0000
  H   H23       1.0  0.27531  0.94469  0.03615  1.0000
  H   H24       1.0  0.72469  0.05531  0.96385  1.0000
  H   H25       1.0  0.38117  0.18665  0.04980  1.0000
  H   H26       1.0  0.61883  0.81335  0.95020  1.0000
  H   H27       1.0  0.47584  0.28848  0.92020  1.0000
  H   H28       1.0  0.52416  0.71152  0.07980  1.0000
  H   H29       1.0  0.39096  0.91016  0.77483  1.0000
  H   H30       1.0  0.60904  0.08984  0.22516  1.0000
  H   H31       1.0  0.58418  0.37190  0.82774  1.0000
  H   H32       1.0  0.41583  0.62810  0.17226  1.0000
  H   H33       1.0  0.65832  0.46085  0.68651  1.0000
  H   H34       1.0  0.34169  0.53915  0.31349  1.0000
  H   H35       1.0  0.49955  0.09070  0.52054  1.0000
  H   H36       1.0  0.50045  0.90930  0.47946  1.0000
  H   H37       1.0  0.41089  0.98305  0.65016  1.0000
  H   H38       1.0  0.58912  0.01695  0.34984  1.0000
  H   H39       1.0  0.30113  0.98997  0.25081  1.0000
  H   H40       1.0  0.69887  0.01003  0.74920  1.0000
  H   H41       1.0  0.90581  0.95240  0.07144  1.0000
  H   H42       1.0  0.09419  0.04760  0.92856  1.0000
  H   H43       1.0  0.00528  0.19039  0.11131  1.0000
  H   H44       1.0  0.99472  0.80961  0.88869  1.0000
  H   H45       1.0  0.25398  0.33010  0.22369  1.0000
  H   H46       1.0  0.74602  0.66990  0.77631  1.0000
  H   H47       1.0  0.83078  0.76363  0.03301  1.0000
  H   H48       1.0  0.16921  0.23637  0.96699  1.0000
  H   H49       1.0  0.73971  0.52418  0.99775  1.0000
  H   H50       1.0  0.26029  0.47582  0.00225  1.0000
  H   H51       1.0  0.11221  0.55815  0.17697  1.0000
  H   H52       1.0  0.88779  0.44185  0.82303  1.0000
  H   H53       1.0  0.22009  0.79823  0.22148  1.0000
  H   H54       1.0  0.77991  0.20177  0.77852  1.0000
  C   C1        1.0  0.88054  0.26180  0.56628  1.0000
  C   C2        1.0  0.11946  0.73820  0.43372  1.0000
  C   C3        1.0  0.96450  0.19609  0.60812  1.0000
  C   C4        1.0  0.03550  0.80391  0.39187  1.0000
  C   C5        1.0  0.90237  0.05992  0.58155  1.0000
  C   C6        1.0  0.09763  0.94008  0.41844  1.0000
  C   C7        1.0  0.97425  0.99201  0.61849  1.0000
  C   C8        1.0  0.02575  0.00799  0.38150  1.0000
  C   C9        1.0  0.11263  0.06580  0.68327  1.0000
  C   C10       1.0  0.88737  0.93420  0.31673  1.0000
  C   C11       1.0  0.17552  0.20160  0.70945  1.0000
  C   C12       1.0  0.82448  0.79840  0.29055  1.0000
  C   C13       1.0  0.10228  0.26761  0.67268  1.0000
  C   C14       1.0  0.89772  0.73239  0.32732  1.0000
  C   C15       1.0  0.90669  0.84780  0.59032  1.0000
  C   C16       1.0  0.09331  0.15220  0.40968  1.0000
  C   C17       1.0  0.76771  0.77220  0.52732  1.0000
  C   C18       1.0  0.23229  0.22780  0.47268  1.0000
  C   C19       1.0  0.70807  0.63700  0.50150  1.0000
  C   C20       1.0  0.29193  0.36300  0.49850  1.0000
  C   C21       1.0  0.91124  0.64303  0.59706  1.0000
  C   C22       1.0  0.08876  0.35697  0.40294  1.0000
  C   C23       1.0  0.97784  0.77816  0.62524  1.0000
  C   C24       1.0  0.02216  0.22184  0.37476  1.0000
  C   C25       1.0  0.26800  0.76963  0.89451  1.0000
  C   C26       1.0  0.73200  0.23037  0.10549  1.0000
  C   C27       1.0  0.32584  0.91439  0.90316  1.0000
  C   C28       1.0  0.67415  0.08561  0.09684  1.0000
  C   C29       1.0  0.32155  0.99086  0.98080  1.0000
  C   C30       1.0  0.67845  0.00915  0.01919  1.0000
  C   C31       1.0  0.37904  0.12585  0.98724  1.0000
  C   C32       1.0  0.62096  0.87415  0.01275  1.0000
  C   C33       1.0  0.43504  0.18321  0.91458  1.0000
  C   C34       1.0  0.56496  0.81679  0.08541  1.0000
  C   C35       1.0  0.43828  0.10789  0.83482  1.0000
  C   C36       1.0  0.56172  0.89211  0.16517  1.0000
  C   C37       1.0  0.38585  0.97285  0.83206  1.0000
  C   C38       1.0  0.61414  0.02715  0.16794  1.0000
  C   C39       1.0  0.49075  0.16743  0.75443  1.0000
  C   C40       1.0  0.50926  0.83257  0.24557  1.0000
  C   C41       1.0  0.56202  0.30393  0.76146  1.0000
  C   C42       1.0  0.43798  0.69607  0.23854  1.0000
  C   C43       1.0  0.60579  0.35526  0.68286  1.0000
  C   C44       1.0  0.39422  0.64474  0.31714  1.0000
  C   C45       1.0  0.51646  0.14911  0.59051  1.0000
  C   C46       1.0  0.48354  0.85089  0.40950  1.0000
  C   C47       1.0  0.46739  0.08959  0.66476  1.0000
  C   C48       1.0  0.53261  0.91041  0.33524  1.0000
  C   C49       1.0  0.43426  0.24696  0.31663  1.0000
  C   C50       1.0  0.56575  0.75305  0.68337  1.0000
  C   C51       1.0  0.28989  0.16602  0.24235  1.0000
  C   C52       1.0  0.71011  0.83398  0.75766  1.0000
  C   C53       1.0  0.23350  0.03024  0.21759  1.0000
  C   C54       1.0  0.76651  0.96976  0.78242  1.0000
  C   C55       1.0  0.09526  0.94983  0.15514  1.0000
  C   C56       1.0  0.90474  0.05016  0.84487  1.0000
  C   C57       1.0  0.01441  0.01057  0.11815  1.0000
  C   C58       1.0  0.98559  0.98943  0.88185  1.0000
  C   C59       1.0  0.07043  0.14611  0.14106  1.0000
  C   C60       1.0  0.92957  0.85389  0.85895  1.0000
  C   C61       1.0  0.20817  0.22412  0.20285  1.0000
  C   C62       1.0  0.79183  0.77588  0.79715  1.0000
  C   C63       1.0  0.03605  0.80606  0.13087  1.0000
  C   C64       1.0  0.96395  0.19394  0.86913  1.0000
  C   C65       1.0  0.89842  0.72383  0.06695  1.0000
  C   C66       1.0  0.10158  0.27616  0.93306  1.0000
  C   C67       1.0  0.84661  0.58944  0.04636  1.0000
  C   C68       1.0  0.15339  0.41057  0.95364  1.0000
  C   C69       1.0  0.05371  0.60809  0.14607  1.0000
  C   C70       1.0  0.94629  0.39191  0.85393  1.0000
  C   C71       1.0  0.11343  0.74329  0.17058  1.0000
  C   C72       1.0  0.88658  0.25671  0.82942  1.0000
  N   N1        1.0  0.77845  0.57231  0.53544  1.0000
  N   N2        1.0  0.22155  0.42769  0.46456  1.0000
  N   N3        1.0  0.58498  0.27979  0.59844  1.0000
  N   N4        1.0  0.41502  0.72021  0.40156  1.0000
  N   N5        1.0  0.92251  0.53149  0.08458  1.0000
  N   N6        1.0  0.07749  0.46851  0.91542  1.0000
  O   O1        1.0  0.93123  0.38485  0.59587  1.0000
  O   O2        1.0  0.06877  0.61515  0.40413  1.0000
  O   O3        1.0  0.75941  0.19120  0.50284  1.0000
  O   O4        1.0  0.24059  0.80880  0.49716  1.0000
  O   O5        1.0  0.18352  0.71818  0.94738  1.0000
  O   O6        1.0  0.81647  0.28182  0.05261  1.0000
  O   O7        1.0  0.29820  0.70551  0.84150  1.0000
  O   O8        1.0  0.70180  0.29449  0.15850  1.0000
  O   O9        1.0  0.48115  0.36843  0.34451  1.0000
  O   O10       1.0  0.51885  0.63157  0.65549  1.0000
  O   O11       1.0  0.50067  0.18505  0.35060  1.0000
  O   O12       1.0  0.49933  0.81495  0.64941  1.0000
  O   O13       1.0  0.81597  0.41159  0.35581  1.0000
  O   O14       1.0  0.18403  0.58842  0.64419  1.0000
