data_image0
_chemical_formula_structural       Zn3Ag6H50C42S6N12O16
_chemical_formula_sum              "Zn3 Ag6 H50 C42 S6 N12 O16"
_cell_length_a       12.3417
_cell_length_b       12.2493
_cell_length_c       13.559
_cell_angle_alpha    85.6858
_cell_angle_beta     63.5984
_cell_angle_gamma    60.2203

_space_group_name_H-M_alt    "P 1"
_space_group_IT_number       1

loop_
  _space_group_symop_operation_xyz
  'x, y, z'

loop_
  _atom_site_type_symbol
  _atom_site_label
  _atom_site_symmetry_multiplicity
  _atom_site_fract_x
  _atom_site_fract_y
  _atom_site_fract_z
  _atom_site_occupancy
  Zn  Zn1       1.0  0.00000  0.50000  0.50000  1.0000
  Zn  Zn2       1.0  0.70863  0.16107  0.52025  1.0000
  Zn  Zn3       1.0  0.29137  0.83892  0.47975  1.0000
  Ag  Ag1       1.0  0.48007  0.84583  0.10879  1.0000
  Ag  Ag2       1.0  0.51993  0.15417  0.89121  1.0000
  Ag  Ag3       1.0  0.42014  0.92648  0.91481  1.0000
  Ag  Ag4       1.0  0.57986  0.07353  0.08519  1.0000
  Ag  Ag5       1.0  0.73186  0.83213  0.92787  1.0000
  Ag  Ag6       1.0  0.26813  0.16788  0.07213  1.0000
  H   H1        1.0  0.02871  0.61842  0.90301  1.0000
  H   H2        1.0  0.97129  0.38158  0.09698  1.0000
  H   H3        1.0  0.14749  0.51112  0.02053  1.0000
  H   H4        1.0  0.85251  0.48889  0.97946  1.0000
  H   H5        1.0  0.00696  0.58616  0.22956  1.0000
  H   H6        1.0  0.99305  0.41384  0.77043  1.0000
  H   H7        1.0  0.86973  0.84741  0.62531  1.0000
  H   H8        1.0  0.13026  0.15259  0.37469  1.0000
  H   H9        1.0  0.00539  0.76105  0.48893  1.0000
  H   H10       1.0  0.99460  0.23896  0.51108  1.0000
  H   H11       1.0  0.09098  0.70003  0.63212  1.0000
  H   H12       1.0  0.90902  0.29997  0.36789  1.0000
  H   H13       1.0  0.96705  0.65072  0.70490  1.0000
  H   H14       1.0  0.03295  0.34928  0.29511  1.0000
  H   H15       1.0  0.66135  0.41956  0.45375  1.0000
  H   H16       1.0  0.33865  0.58043  0.54625  1.0000
  H   H17       1.0  0.53691  0.46796  0.59738  1.0000
  H   H18       1.0  0.46309  0.53203  0.40262  1.0000
  H   H19       1.0  0.22306  0.84089  0.88438  1.0000
  H   H20       1.0  0.77694  0.15911  0.11562  1.0000
  H   H21       1.0  0.00681  0.83022  0.00369  1.0000
  H   H22       1.0  0.99319  0.16977  0.99631  1.0000
  H   H23       1.0  0.87979  0.91262  0.21293  1.0000
  H   H24       1.0  0.12022  0.08738  0.78707  1.0000
  H   H25       1.0  0.52442  0.57752  0.17452  1.0000
  H   H26       1.0  0.47557  0.42247  0.82548  1.0000
  H   H27       1.0  0.62224  0.35630  0.08501  1.0000
  H   H28       1.0  0.37775  0.64370  0.91499  1.0000
  H   H29       1.0  0.73386  0.30329  0.87494  1.0000
  H   H30       1.0  0.26614  0.69671  0.12506  1.0000
  H   H31       1.0  0.81873  0.74613  0.50696  1.0000
  H   H32       1.0  0.18127  0.25387  0.49304  1.0000
  H   H33       1.0  0.77802  0.71391  0.63508  1.0000
  H   H34       1.0  0.22198  0.28609  0.36492  1.0000
  H   H35       1.0  0.17932  0.46063  0.58341  1.0000
  H   H36       1.0  0.82068  0.53937  0.41659  1.0000
  H   H37       1.0  0.20055  0.53454  0.47328  1.0000
  H   H38       1.0  0.79945  0.46546  0.52672  1.0000
  H   H39       1.0  0.56318  0.30088  0.43116  1.0000
  H   H40       1.0  0.43683  0.69912  0.56884  1.0000
  H   H41       1.0  0.44878  0.33811  0.56325  1.0000
  H   H42       1.0  0.55122  0.66189  0.43675  1.0000
  H   H43       1.0  0.57156  0.04613  0.61894  1.0000
  H   H44       1.0  0.42844  0.95387  0.38106  1.0000
  H   H45       1.0  0.68090  0.96586  0.48939  1.0000
  H   H46       1.0  0.31910  0.03414  0.51060  1.0000
  H   H47       1.0  0.73555  0.29330  0.64679  1.0000
  H   H48       1.0  0.26445  0.70670  0.35322  1.0000
  H   H49       1.0  0.84611  0.14134  0.62657  1.0000
  H   H50       1.0  0.15390  0.85866  0.37343  1.0000
  C   C1        1.0  0.97184  0.64699  0.99406  1.0000
  C   C2        1.0  0.02816  0.35302  0.00593  1.0000
  C   C3        1.0  0.03716  0.58797  0.05968  1.0000
  C   C4        1.0  0.96285  0.41204  0.94031  1.0000
  C   C5        1.0  0.95806  0.62918  0.17558  1.0000
  C   C6        1.0  0.04195  0.37082  0.82441  1.0000
  C   C7        1.0  0.81674  0.72912  0.22274  1.0000
  C   C8        1.0  0.18326  0.27088  0.77725  1.0000
  C   C9        1.0  0.75737  0.78332  0.15057  1.0000
  C   C10       1.0  0.24264  0.21668  0.84942  1.0000
  C   C11       1.0  0.73539  0.77813  0.34840  1.0000
  C   C12       1.0  0.26461  0.22187  0.65159  1.0000
  C   C13       1.0  0.93962  0.75185  0.57224  1.0000
  C   C14       1.0  0.06037  0.24815  0.42776  1.0000
  C   C15       1.0  0.03354  0.65969  0.62137  1.0000
  C   C16       1.0  0.96646  0.34031  0.37863  1.0000
  C   C17       1.0  0.55333  0.44302  0.51360  1.0000
  C   C18       1.0  0.44668  0.55697  0.48640  1.0000
  C   C19       1.0  0.16814  0.87037  0.97534  1.0000
  C   C20       1.0  0.83186  0.12963  0.02466  1.0000
  C   C21       1.0  0.04750  0.86510  0.04181  1.0000
  C   C22       1.0  0.95249  0.13490  0.95819  1.0000
  C   C23       1.0  0.97708  0.91124  0.15668  1.0000
  C   C24       1.0  0.02292  0.08876  0.84332  1.0000
  C   C25       1.0  0.03230  0.95722  0.20134  1.0000
  C   C26       1.0  0.96770  0.04279  0.79866  1.0000
  C   C27       1.0  0.15793  0.95581  0.12924  1.0000
  C   C28       1.0  0.84207  0.04420  0.87076  1.0000
  C   C29       1.0  0.95318  0.01120  0.32444  1.0000
  C   C30       1.0  0.04683  0.98880  0.67556  1.0000
  C   C31       1.0  0.57870  0.54903  0.08358  1.0000
  C   C32       1.0  0.42130  0.45097  0.91642  1.0000
  C   C33       1.0  0.63305  0.42611  0.03336  1.0000
  C   C34       1.0  0.36695  0.57389  0.96664  1.0000
  C   C35       1.0  0.69398  0.39766  0.91699  1.0000
  C   C36       1.0  0.30602  0.60234  0.08301  1.0000
  C   C37       1.0  0.70308  0.49077  0.85352  1.0000
  C   C38       1.0  0.29692  0.50923  0.14648  1.0000
  C   C39       1.0  0.64779  0.61321  0.91074  1.0000
  C   C40       1.0  0.35220  0.38679  0.08926  1.0000
  C   C41       1.0  0.77217  0.45981  0.72673  1.0000
  C   C42       1.0  0.22784  0.54019  0.27327  1.0000
  S   S1        1.0  0.58018  0.90816  0.20361  1.0000
  S   S2        1.0  0.41982  0.09184  0.79639  1.0000
  S   S3        1.0  0.22851  0.01200  0.18467  1.0000
  S   S4        1.0  0.77148  0.98801  0.81533  1.0000
  S   S5        1.0  0.65771  0.73416  0.83639  1.0000
  S   S6        1.0  0.34229  0.26584  0.16361  1.0000
  N   N1        1.0  0.83528  0.74134  0.03807  1.0000
  N   N2        1.0  0.16472  0.25866  0.96192  1.0000
  N   N3        1.0  0.22268  0.91396  0.01728  1.0000
  N   N4        1.0  0.77732  0.08604  0.98272  1.0000
  N   N5        1.0  0.58491  0.64065  0.02421  1.0000
  N   N6        1.0  0.41509  0.35935  0.97579  1.0000
  N   N7        1.0  0.86035  0.70024  0.55870  1.0000
  N   N8        1.0  0.13965  0.29976  0.44130  1.0000
  N   N9        1.0  0.12727  0.53242  0.54869  1.0000
  N   N10       1.0  0.87273  0.46758  0.45132  1.0000
  N   N11       1.0  0.54672  0.32617  0.50912  1.0000
  N   N12       1.0  0.45328  0.67382  0.49088  1.0000
  O   O1        1.0  0.68061  0.71793  0.41053  1.0000
  O   O2        1.0  0.31939  0.28208  0.58946  1.0000
  O   O3        1.0  0.73669  0.87256  0.37979  1.0000
  O   O4        1.0  0.26331  0.12744  0.62020  1.0000
  O   O5        1.0  0.83218  0.11572  0.35578  1.0000
  O   O6        1.0  0.16782  0.88430  0.64422  1.0000
  O   O7        1.0  0.66273  0.02350  0.55243  1.0000
  O   O8        1.0  0.33728  0.97650  0.44757  1.0000
  O   O9        1.0  0.99871  0.95603  0.39120  1.0000
  O   O10       1.0  0.00129  0.04398  0.60879  1.0000
  O   O11       1.0  0.71280  0.43290  0.68367  1.0000
  O   O12       1.0  0.28720  0.56710  0.31634  1.0000
  O   O13       1.0  0.88445  0.46283  0.67391  1.0000
  O   O14       1.0  0.11554  0.53717  0.32610  1.0000
  O   O15       1.0  0.75172  0.20660  0.62931  1.0000
  O   O16       1.0  0.24828  0.79340  0.37070  1.0000
