data_image0
_chemical_formula_structural       Sb4P4H4C2O14
_chemical_formula_sum              "Sb4 P4 H4 C2 O14"
_cell_length_a       4.70131
_cell_length_b       7.22921
_cell_length_c       11.0125
_cell_angle_alpha    89.9997
_cell_angle_beta     93.9282
_cell_angle_gamma    89.9998

_space_group_name_H-M_alt    "P 1"
_space_group_IT_number       1

loop_
  _space_group_symop_operation_xyz
  'x, y, z'

loop_
  _atom_site_type_symbol
  _atom_site_label
  _atom_site_symmetry_multiplicity
  _atom_site_fract_x
  _atom_site_fract_y
  _atom_site_fract_z
  _atom_site_occupancy
  Sb  Sb1       1.0  0.52339  0.34305  0.44378  1.0000
  Sb  Sb2       1.0  0.52337  0.65694  0.94378  1.0000
  Sb  Sb3       1.0  0.53908  0.24408  0.75302  1.0000
  Sb  Sb4       1.0  0.53908  0.75592  0.25301  1.0000
  P   P1        1.0  0.02472  0.91944  0.77513  1.0000
  P   P2        1.0  0.02473  0.08055  0.27513  1.0000
  P   P3        1.0  0.08564  0.57024  0.61377  1.0000
  P   P4        1.0  0.08562  0.42976  0.11377  1.0000
  H   H1        1.0  0.33171  0.85616  0.61895  1.0000
  H   H2        1.0  0.33170  0.14384  0.11895  1.0000
  H   H3        1.0  0.97548  0.88548  0.55902  1.0000
  H   H4        1.0  0.97548  0.11451  0.05902  1.0000
  C   C1        1.0  0.10930  0.81817  0.63201  1.0000
  C   C2        1.0  0.10930  0.18183  0.13202  1.0000
  O   O1        1.0  0.77334  0.50888  0.60413  1.0000
  O   O2        1.0  0.77334  0.49112  0.10414  1.0000
  O   O3        1.0  0.50991  0.16832  0.58139  1.0000
  O   O4        1.0  0.50991  0.83168  0.08140  1.0000
  O   O5        1.0  0.25503  0.47980  0.72283  1.0000
  O   O6        1.0  0.25504  0.52020  0.22284  1.0000
  O   O7        1.0  0.14046  0.79985  0.88235  1.0000
  O   O8        1.0  0.14047  0.20016  0.38236  1.0000
  O   O9        1.0  0.69980  0.94232  0.78207  1.0000
  O   O10       1.0  0.69981  0.05767  0.28208  1.0000
  O   O11       1.0  0.15175  0.11894  0.77904  1.0000
  O   O12       1.0  0.15177  0.88106  0.27905  1.0000
  O   O13       1.0  0.22361  0.53387  0.49130  1.0000
  O   O14       1.0  0.22359  0.46614  0.99130  1.0000
