data_image0
_chemical_formula_structural       La4H40C28N4O36
_chemical_formula_sum              "La4 H40 C28 N4 O36"
_cell_length_a       7.27648
_cell_length_b       9.88559
_cell_length_c       15.9635
_cell_angle_alpha    103.592
_cell_angle_beta     90
_cell_angle_gamma    90

_space_group_name_H-M_alt    "P 1"
_space_group_IT_number       1

loop_
  _space_group_symop_operation_xyz
  'x, y, z'

loop_
  _atom_site_type_symbol
  _atom_site_label
  _atom_site_symmetry_multiplicity
  _atom_site_fract_x
  _atom_site_fract_y
  _atom_site_fract_z
  _atom_site_occupancy
  La  La1       1.0  0.86205  0.99049  0.24024  1.0000
  La  La2       1.0  0.36204  0.50950  0.25976  1.0000
  La  La3       1.0  0.13797  0.00949  0.75976  1.0000
  La  La4       1.0  0.63795  0.49049  0.74025  1.0000
  H   H1        1.0  0.32453  0.95251  0.22213  1.0000
  H   H2        1.0  0.82452  0.54748  0.27787  1.0000
  H   H3        1.0  0.67547  0.04749  0.77788  1.0000
  H   H4        1.0  0.17546  0.45252  0.72213  1.0000
  H   H5        1.0  0.19833  0.83919  0.16606  1.0000
  H   H6        1.0  0.69833  0.66082  0.33393  1.0000
  H   H7        1.0  0.80169  0.16081  0.83395  1.0000
  H   H8        1.0  0.30167  0.33920  0.66606  1.0000
  H   H9        1.0  0.08845  0.18382  0.40644  1.0000
  H   H10       1.0  0.58844  0.31618  0.09356  1.0000
  H   H11       1.0  0.91156  0.81617  0.59356  1.0000
  H   H12       1.0  0.41156  0.68382  0.90644  1.0000
  H   H13       1.0  0.12172  0.22371  0.31352  1.0000
  H   H14       1.0  0.62172  0.27629  0.18649  1.0000
  H   H15       1.0  0.87827  0.77629  0.68649  1.0000
  H   H16       1.0  0.37827  0.72370  0.81351  1.0000
  H   H17       1.0  0.50519  0.84884  0.29507  1.0000
  H   H18       1.0  0.00520  0.65116  0.20493  1.0000
  H   H19       1.0  0.49482  0.15116  0.70493  1.0000
  H   H20       1.0  0.99480  0.34884  0.79507  1.0000
  H   H21       1.0  0.52126  0.80000  0.19625  1.0000
  H   H22       1.0  0.02126  0.69999  0.30375  1.0000
  H   H23       1.0  0.47874  0.20000  0.80375  1.0000
  H   H24       1.0  0.97874  0.30001  0.69625  1.0000
  H   H25       1.0  0.70454  0.99591  0.04707  1.0000
  H   H26       1.0  0.20454  0.50410  0.45294  1.0000
  H   H27       1.0  0.29546  0.00410  0.95293  1.0000
  H   H28       1.0  0.79545  0.49592  0.54707  1.0000
  H   H29       1.0  0.57034  0.88246  0.06654  1.0000
  H   H30       1.0  0.07034  0.61755  0.43347  1.0000
  H   H31       1.0  0.42966  0.11755  0.93347  1.0000
  H   H32       1.0  0.92965  0.38247  0.56653  1.0000
  H   H33       1.0  0.74667  0.00237  0.59526  1.0000
  H   H34       1.0  0.24667  0.49763  0.90475  1.0000
  H   H35       1.0  0.25334  0.99764  0.40475  1.0000
  H   H36       1.0  0.75333  0.50238  0.09526  1.0000
  H   H37       1.0  0.48750  0.34340  0.51278  1.0000
  H   H38       1.0  0.98750  0.15659  0.98722  1.0000
  H   H39       1.0  0.51249  0.65660  0.48722  1.0000
  H   H40       1.0  0.01250  0.84341  0.01278  1.0000
  C   C1        1.0  0.75854  0.00220  0.46009  1.0000
  C   C2        1.0  0.25853  0.49779  0.03991  1.0000
  C   C3        1.0  0.24147  0.99779  0.53991  1.0000
  C   C4        1.0  0.74147  0.50221  0.96009  1.0000
  C   C5        1.0  0.70958  0.05630  0.54554  1.0000
  C   C6        1.0  0.20957  0.44370  0.95446  1.0000
  C   C7        1.0  0.29042  0.94371  0.45446  1.0000
  C   C8        1.0  0.79042  0.55631  0.04554  1.0000
  C   C9        1.0  0.61633  0.18565  0.56805  1.0000
  C   C10       1.0  0.11632  0.31435  0.93194  1.0000
  C   C11       1.0  0.38369  0.81436  0.43195  1.0000
  C   C12       1.0  0.88368  0.68565  0.06805  1.0000
  C   C13       1.0  0.56676  0.24732  0.49989  1.0000
  C   C14       1.0  0.06676  0.25268  0.00011  1.0000
  C   C15       1.0  0.43324  0.75268  0.50010  1.0000
  C   C16       1.0  0.93323  0.74732  0.99989  1.0000
  C   C17       1.0  0.62032  0.18530  0.41656  1.0000
  C   C18       1.0  0.12032  0.31469  0.08344  1.0000
  C   C19       1.0  0.37969  0.81469  0.58343  1.0000
  C   C20       1.0  0.87968  0.68530  0.91656  1.0000
  C   C21       1.0  0.86682  0.86849  0.43059  1.0000
  C   C22       1.0  0.36681  0.63151  0.06941  1.0000
  C   C23       1.0  0.13319  0.13152  0.56941  1.0000
  C   C24       1.0  0.63319  0.36849  0.93059  1.0000
  C   C25       1.0  0.57590  0.25072  0.34271  1.0000
  C   C26       1.0  0.07590  0.24927  0.15730  1.0000
  C   C27       1.0  0.42411  0.74928  0.65729  1.0000
  C   C28       1.0  0.92412  0.75072  0.84270  1.0000
  N   N1        1.0  0.71773  0.06617  0.39639  1.0000
  N   N2        1.0  0.21773  0.43382  0.10362  1.0000
  N   N3        1.0  0.28227  0.93383  0.60361  1.0000
  N   N4        1.0  0.78227  0.56617  0.89638  1.0000
  O   O1        1.0  0.19970  0.93675  0.19717  1.0000
  O   O2        1.0  0.69970  0.56326  0.30282  1.0000
  O   O3        1.0  0.80030  0.06325  0.80284  1.0000
  O   O4        1.0  0.30029  0.43675  0.69716  1.0000
  O   O5        1.0  0.07671  0.15196  0.34307  1.0000
  O   O6        1.0  0.57670  0.34803  0.15693  1.0000
  O   O7        1.0  0.92330  0.84803  0.65693  1.0000
  O   O8        1.0  0.42331  0.65196  0.84307  1.0000
  O   O9        1.0  0.55029  0.88409  0.24385  1.0000
  O   O10       1.0  0.05029  0.61591  0.25615  1.0000
  O   O11       1.0  0.44972  0.11591  0.75615  1.0000
  O   O12       1.0  0.94971  0.38410  0.74385  1.0000
  O   O13       1.0  0.64739  0.96311  0.09371  1.0000
  O   O14       1.0  0.14739  0.53690  0.40630  1.0000
  O   O15       1.0  0.35261  0.03691  0.90629  1.0000
  O   O16       1.0  0.85259  0.46311  0.59371  1.0000
  O   O17       1.0  0.91869  0.84364  0.35107  1.0000
  O   O18       1.0  0.41869  0.65636  0.14893  1.0000
  O   O19       1.0  0.08131  0.15637  0.64893  1.0000
  O   O20       1.0  0.58131  0.34364  0.85108  1.0000
  O   O21       1.0  0.90069  0.78853  0.47960  1.0000
  O   O22       1.0  0.40069  0.71146  0.02040  1.0000
  O   O23       1.0  0.09932  0.21147  0.52040  1.0000
  O   O24       1.0  0.59930  0.28853  0.97960  1.0000
  O   O25       1.0  0.65588  0.19807  0.27101  1.0000
  O   O26       1.0  0.15585  0.30193  0.22899  1.0000
  O   O27       1.0  0.34414  0.80190  0.72898  1.0000
  O   O28       1.0  0.84412  0.69807  0.77101  1.0000
  O   O29       1.0  0.46502  0.35204  0.35542  1.0000
  O   O30       1.0  0.96500  0.14795  0.14458  1.0000
  O   O31       1.0  0.53501  0.64796  0.64456  1.0000
  O   O32       1.0  0.03500  0.85202  0.85541  1.0000
  O   O33       1.0  0.57536  0.24692  0.64820  1.0000
  O   O34       1.0  0.07536  0.25308  0.85180  1.0000
  O   O35       1.0  0.42463  0.75309  0.35180  1.0000
  O   O36       1.0  0.92463  0.74692  0.14820  1.0000
