data_image0
_chemical_formula_structural       FeCu2H8C12N8
_chemical_formula_sum              "Fe1 Cu2 H8 C12 N8"
_cell_length_a       6.5517
_cell_length_b       7.91397
_cell_length_c       7.63258
_cell_angle_alpha    110.121
_cell_angle_beta     99.3319
_cell_angle_gamma    106.904

_space_group_name_H-M_alt    "P 1"
_space_group_IT_number       1

loop_
  _space_group_symop_operation_xyz
  'x, y, z'

loop_
  _atom_site_type_symbol
  _atom_site_label
  _atom_site_symmetry_multiplicity
  _atom_site_fract_x
  _atom_site_fract_y
  _atom_site_fract_z
  _atom_site_occupancy
  Fe  Fe1       1.0  0.00121  0.02549  0.01571  1.0000
  Cu  Cu1       1.0  0.48052  0.84695  0.37226  1.0000
  Cu  Cu2       1.0  0.51760  0.15703  0.63883  1.0000
  H   H1        1.0  0.65193  0.17914  0.14797  1.0000
  H   H2        1.0  0.34944  0.80687  0.82960  1.0000
  H   H3        1.0  0.65540  0.51374  0.33163  1.0000
  H   H4        1.0  0.33042  0.46498  0.63780  1.0000
  H   H5        1.0  0.01020  0.80148  0.42181  1.0000
  H   H6        1.0  0.97336  0.18693  0.56301  1.0000
  H   H7        1.0  0.30622  0.42595  0.14982  1.0000
  H   H8        1.0  0.71194  0.57697  0.86855  1.0000
  C   C1        1.0  0.64829  0.85445  0.19414  1.0000
  C   C2        1.0  0.35055  0.15784  0.81715  1.0000
  C   C3        1.0  0.64797  0.92062  0.63609  1.0000
  C   C4        1.0  0.35172  0.07841  0.37231  1.0000
  C   C5        1.0  0.79789  0.30932  0.19012  1.0000
  C   C6        1.0  0.20353  0.67818  0.79454  1.0000
  C   C7        1.0  0.80132  0.49392  0.29113  1.0000
  C   C8        1.0  0.19208  0.49118  0.68890  1.0000
  C   C9        1.0  0.99552  0.65297  0.34151  1.0000
  C   C10       1.0  0.99592  0.33694  0.64748  1.0000
  C   C11       1.0  0.16245  0.44678  0.19379  1.0000
  C   C12       1.0  0.84877  0.55119  0.81387  1.0000
  N   N1        1.0  0.77926  0.90965  0.11742  1.0000
  N   N2        1.0  0.22268  0.12035  0.90322  1.0000
  N   N3        1.0  0.77818  0.95464  0.78239  1.0000
  N   N4        1.0  0.22487  0.07290  0.23923  1.0000
  N   N5        1.0  0.98161  0.28476  0.14306  1.0000
  N   N6        1.0  0.02993  0.70568  0.85580  1.0000
  N   N7        1.0  0.17650  0.62808  0.29067  1.0000
  N   N8        1.0  0.82274  0.36661  0.71021  1.0000
