data_image0
_chemical_formula_structural       Zn4H56C40N8O16
_chemical_formula_sum              "Zn4 H56 C40 N8 O16"
_cell_length_a       7.30483
_cell_length_b       9.81041
_cell_length_c       16.6525
_cell_angle_alpha    90.0001
_cell_angle_beta     89.9998
_cell_angle_gamma    92.3803

_space_group_name_H-M_alt    "P 1"
_space_group_IT_number       1

loop_
  _space_group_symop_operation_xyz
  'x, y, z'

loop_
  _atom_site_type_symbol
  _atom_site_label
  _atom_site_symmetry_multiplicity
  _atom_site_fract_x
  _atom_site_fract_y
  _atom_site_fract_z
  _atom_site_occupancy
  Zn  Zn1       1.0  0.75776  0.55217  0.55482  1.0000
  Zn  Zn2       1.0  0.74224  0.44783  0.05483  1.0000
  Zn  Zn3       1.0  0.24224  0.44783  0.44517  1.0000
  Zn  Zn4       1.0  0.25776  0.55217  0.94517  1.0000
  H   H1        1.0  0.52975  0.49456  0.74818  1.0000
  H   H2        1.0  0.97024  0.50545  0.24818  1.0000
  H   H3        1.0  0.47025  0.50544  0.25182  1.0000
  H   H4        1.0  0.02976  0.49455  0.75182  1.0000
  H   H5        1.0  0.45793  0.86984  0.87666  1.0000
  H   H6        1.0  0.04207  0.13017  0.37666  1.0000
  H   H7        1.0  0.54208  0.13016  0.12334  1.0000
  H   H8        1.0  0.95792  0.86983  0.62334  1.0000
  H   H9        1.0  0.47289  0.86823  0.61657  1.0000
  H   H10       1.0  0.02711  0.13177  0.11657  1.0000
  H   H11       1.0  0.52710  0.13177  0.38343  1.0000
  H   H12       1.0  0.97290  0.86823  0.88343  1.0000
  H   H13       1.0  0.76600  0.72567  0.30113  1.0000
  H   H14       1.0  0.73400  0.27434  0.80114  1.0000
  H   H15       1.0  0.23400  0.27434  0.69887  1.0000
  H   H16       1.0  0.26601  0.72566  0.19886  1.0000
  H   H17       1.0  0.87912  0.87562  0.34155  1.0000
  H   H18       1.0  0.62089  0.12438  0.84155  1.0000
  H   H19       1.0  0.12089  0.12438  0.65845  1.0000
  H   H20       1.0  0.37911  0.87562  0.15845  1.0000
  H   H21       1.0  0.63884  0.86036  0.34159  1.0000
  H   H22       1.0  0.86116  0.13964  0.84160  1.0000
  H   H23       1.0  0.36116  0.13964  0.65840  1.0000
  H   H24       1.0  0.13884  0.86036  0.15840  1.0000
  H   H25       1.0  0.44521  0.99451  0.74607  1.0000
  H   H26       1.0  0.05478  0.00549  0.24607  1.0000
  H   H27       1.0  0.55479  0.00549  0.25393  1.0000
  H   H28       1.0  0.94521  0.99451  0.75393  1.0000
  H   H29       1.0  0.73479  0.09125  0.52142  1.0000
  H   H30       1.0  0.76521  0.90875  0.02142  1.0000
  H   H31       1.0  0.26522  0.90875  0.47858  1.0000
  H   H32       1.0  0.23479  0.09125  0.97858  1.0000
  H   H33       1.0  0.61353  0.08452  0.61456  1.0000
  H   H34       1.0  0.88647  0.91548  0.11456  1.0000
  H   H35       1.0  0.38648  0.91548  0.38543  1.0000
  H   H36       1.0  0.11353  0.08452  0.88543  1.0000
  H   H37       1.0  0.85382  0.08559  0.61452  1.0000
  H   H38       1.0  0.64619  0.91441  0.11452  1.0000
  H   H39       1.0  0.14619  0.91442  0.38548  1.0000
  H   H40       1.0  0.35382  0.08559  0.88548  1.0000
  H   H41       1.0  0.57639  0.66033  0.93767  1.0000
  H   H42       1.0  0.92361  0.33967  0.43767  1.0000
  H   H43       1.0  0.42361  0.33966  0.06233  1.0000
  H   H44       1.0  0.07639  0.66033  0.56233  1.0000
  H   H45       1.0  0.57363  0.51510  0.88917  1.0000
  H   H46       1.0  0.92637  0.48490  0.38917  1.0000
  H   H47       1.0  0.42637  0.48489  0.11083  1.0000
  H   H48       1.0  0.07362  0.51510  0.61083  1.0000
  H   H49       1.0  0.44428  0.65180  0.55627  1.0000
  H   H50       1.0  0.05572  0.34821  0.05627  1.0000
  H   H51       1.0  0.55572  0.34821  0.44373  1.0000
  H   H52       1.0  0.94428  0.65180  0.94373  1.0000
  H   H53       1.0  0.43599  0.50842  0.60582  1.0000
  H   H54       1.0  0.06401  0.49158  0.10582  1.0000
  H   H55       1.0  0.56401  0.49158  0.39418  1.0000
  H   H56       1.0  0.93599  0.50841  0.89418  1.0000
  C   C1        1.0  0.51180  0.60436  0.74792  1.0000
  C   C2        1.0  0.98820  0.39564  0.24793  1.0000
  C   C3        1.0  0.48820  0.39563  0.25208  1.0000
  C   C4        1.0  0.01180  0.60436  0.75207  1.0000
  C   C5        1.0  0.49811  0.67630  0.81973  1.0000
  C   C6        1.0  0.00188  0.32370  0.31973  1.0000
  C   C7        1.0  0.50189  0.32370  0.18027  1.0000
  C   C8        1.0  0.99811  0.67630  0.68026  1.0000
  C   C9        1.0  0.76426  0.74311  0.43239  1.0000
  C   C10       1.0  0.73575  0.25690  0.93240  1.0000
  C   C11       1.0  0.23574  0.25690  0.56760  1.0000
  C   C12       1.0  0.26425  0.74310  0.06760  1.0000
  C   C13       1.0  0.47341  0.81677  0.81968  1.0000
  C   C14       1.0  0.02659  0.18323  0.31968  1.0000
  C   C15       1.0  0.52659  0.18323  0.18032  1.0000
  C   C16       1.0  0.97340  0.81677  0.68031  1.0000
  C   C17       1.0  0.47915  0.81525  0.67404  1.0000
  C   C18       1.0  0.02085  0.18475  0.17404  1.0000
  C   C19       1.0  0.52085  0.18475  0.32596  1.0000
  C   C20       1.0  0.97915  0.81525  0.82595  1.0000
  C   C21       1.0  0.50088  0.67454  0.67529  1.0000
  C   C22       1.0  0.99912  0.32546  0.17529  1.0000
  C   C23       1.0  0.49912  0.32546  0.32471  1.0000
  C   C24       1.0  0.00088  0.67454  0.82470  1.0000
  C   C25       1.0  0.76292  0.80235  0.34871  1.0000
  C   C26       1.0  0.73708  0.19766  0.84871  1.0000
  C   C27       1.0  0.23708  0.19765  0.65129  1.0000
  C   C28       1.0  0.26292  0.80234  0.15129  1.0000
  C   C29       1.0  0.46508  0.88506  0.74656  1.0000
  C   C30       1.0  0.03492  0.11494  0.24656  1.0000
  C   C31       1.0  0.53491  0.11494  0.25345  1.0000
  C   C32       1.0  0.96508  0.88505  0.75344  1.0000
  C   C33       1.0  0.73566  0.12681  0.58368  1.0000
  C   C34       1.0  0.76434  0.87319  0.08368  1.0000
  C   C35       1.0  0.26434  0.87319  0.41632  1.0000
  C   C36       1.0  0.23566  0.12681  0.91632  1.0000
  C   C37       1.0  0.74318  0.28021  0.59155  1.0000
  C   C38       1.0  0.75682  0.71978  0.09155  1.0000
  C   C39       1.0  0.25682  0.71978  0.40845  1.0000
  C   C40       1.0  0.24319  0.28022  0.90845  1.0000
  N   N1        1.0  0.51018  0.60012  0.60112  1.0000
  N   N2        1.0  0.98981  0.39988  0.10112  1.0000
  N   N3        1.0  0.48982  0.39988  0.39888  1.0000
  N   N4        1.0  0.01019  0.60012  0.89888  1.0000
  N   N5        1.0  0.50448  0.60431  0.89470  1.0000
  N   N6        1.0  0.99552  0.39569  0.39470  1.0000
  N   N7        1.0  0.49552  0.39569  0.10530  1.0000
  N   N8        1.0  0.00447  0.60431  0.60530  1.0000
  O   O1        1.0  0.75802  0.60896  0.43723  1.0000
  O   O2        1.0  0.74198  0.39105  0.93723  1.0000
  O   O3        1.0  0.24198  0.39105  0.56277  1.0000
  O   O4        1.0  0.25802  0.60895  0.06277  1.0000
  O   O5        1.0  0.74565  0.35023  0.52416  1.0000
  O   O6        1.0  0.75435  0.64977  0.02416  1.0000
  O   O7        1.0  0.25435  0.64977  0.47584  1.0000
  O   O8        1.0  0.24565  0.35023  0.97584  1.0000
  O   O9        1.0  0.76931  0.81679  0.49330  1.0000
  O   O10       1.0  0.73070  0.18322  0.99330  1.0000
  O   O11       1.0  0.23069  0.18321  0.50670  1.0000
  O   O12       1.0  0.26931  0.81678  0.00670  1.0000
  O   O13       1.0  0.74689  0.33805  0.65826  1.0000
  O   O14       1.0  0.75310  0.66195  0.15826  1.0000
  O   O15       1.0  0.25311  0.66196  0.34174  1.0000
  O   O16       1.0  0.24691  0.33805  0.84174  1.0000
