data_image0
_chemical_formula_structural       La2H16C14Se2N2O18
_chemical_formula_sum              "La2 H16 C14 Se2 N2 O18"
_cell_length_a       7.15962
_cell_length_b       7.15155
_cell_length_c       12.7229
_cell_angle_alpha    76.282
_cell_angle_beta     73.6614
_cell_angle_gamma    70.8427

_space_group_name_H-M_alt    "P 1"
_space_group_IT_number       1

loop_
  _space_group_symop_operation_xyz
  'x, y, z'

loop_
  _atom_site_type_symbol
  _atom_site_label
  _atom_site_symmetry_multiplicity
  _atom_site_fract_x
  _atom_site_fract_y
  _atom_site_fract_z
  _atom_site_occupancy
  La  La1       1.0  0.18069  0.05553  0.09057  1.0000
  La  La2       1.0  0.81931  0.94447  0.90943  1.0000
  H   H1        1.0  0.55226  0.34716  0.27144  1.0000
  H   H2        1.0  0.44774  0.65284  0.72856  1.0000
  H   H3        1.0  0.93470  0.74585  0.25902  1.0000
  H   H4        1.0  0.06530  0.25414  0.74098  1.0000
  H   H5        1.0  0.79041  0.97612  0.23624  1.0000
  H   H6        1.0  0.20959  0.02387  0.76376  1.0000
  H   H7        1.0  0.11774  0.43719  0.88917  1.0000
  H   H8        1.0  0.88226  0.56281  0.11083  1.0000
  H   H9        1.0  0.35455  0.32524  0.88677  1.0000
  H   H10       1.0  0.64545  0.67477  0.11323  1.0000
  H   H11       1.0  0.41700  0.68021  0.50000  1.0000
  H   H12       1.0  0.58300  0.31979  0.50000  1.0000
  H   H13       1.0  0.27911  0.98102  0.59612  1.0000
  H   H14       1.0  0.72090  0.01898  0.40388  1.0000
  H   H15       1.0  0.10148  0.31126  0.49575  1.0000
  H   H16       1.0  0.89852  0.68874  0.50425  1.0000
  C   C1        1.0  0.39918  0.67667  0.28633  1.0000
  C   C2        1.0  0.60083  0.32333  0.71367  1.0000
  C   C3        1.0  0.31545  0.84760  0.35133  1.0000
  C   C4        1.0  0.68456  0.15241  0.64867  1.0000
  C   C5        1.0  0.33944  0.82547  0.45915  1.0000
  C   C6        1.0  0.66056  0.17453  0.54085  1.0000
  C   C7        1.0  0.26245  0.99373  0.51214  1.0000
  C   C8        1.0  0.73754  0.00627  0.48786  1.0000
  C   C9        1.0  0.16343  0.17661  0.45716  1.0000
  C   C10       1.0  0.83657  0.82340  0.54284  1.0000
  C   C11       1.0  0.14476  0.18452  0.34948  1.0000
  C   C12       1.0  0.85523  0.81548  0.65053  1.0000
  C   C13       1.0  0.03960  0.37622  0.28366  1.0000
  C   C14       1.0  0.96040  0.62378  0.71634  1.0000
  Se  Se1       1.0  0.39457  0.70705  0.91356  1.0000
  Se  Se2       1.0  0.60543  0.29295  0.08644  1.0000
  N   N1        1.0  0.22041  0.02382  0.29785  1.0000
  N   N2        1.0  0.77958  0.97618  0.70215  1.0000
  O   O1        1.0  0.38770  0.71659  0.18410  1.0000
  O   O2        1.0  0.61231  0.28341  0.81590  1.0000
  O   O3        1.0  0.48145  0.50529  0.33483  1.0000
  O   O4        1.0  0.51857  0.49471  0.66517  1.0000
  O   O5        1.0  0.03417  0.36515  0.18486  1.0000
  O   O6        1.0  0.96582  0.63485  0.81514  1.0000
  O   O7        1.0  0.96698  0.53036  0.32902  1.0000
  O   O8        1.0  0.03302  0.46964  0.67098  1.0000
  O   O9        1.0  0.48337  0.88799  0.93352  1.0000
  O   O10       1.0  0.51664  0.11201  0.06648  1.0000
  O   O11       1.0  0.14647  0.80601  0.97517  1.0000
  O   O12       1.0  0.85353  0.19399  0.02483  1.0000
  O   O13       1.0  0.39484  0.78242  0.76974  1.0000
  O   O14       1.0  0.60516  0.21758  0.23026  1.0000
  O   O15       1.0  0.92865  0.88724  0.21844  1.0000
  O   O16       1.0  0.07135  0.11275  0.78156  1.0000
  O   O17       1.0  0.21641  0.34769  0.93448  1.0000
  O   O18       1.0  0.78359  0.65231  0.06551  1.0000
