data_image0
_chemical_formula_structural       Cu6H48C72N24
_chemical_formula_sum              "Cu6 H48 C72 N24"
_cell_length_a       8.96811
_cell_length_b       15.2558
_cell_length_c       15.2507
_cell_angle_alpha    120.011
_cell_angle_beta     90.0984
_cell_angle_gamma    90.0002

_space_group_name_H-M_alt    "P 1"
_space_group_IT_number       1

loop_
  _space_group_symop_operation_xyz
  'x, y, z'

loop_
  _atom_site_type_symbol
  _atom_site_label
  _atom_site_symmetry_multiplicity
  _atom_site_fract_x
  _atom_site_fract_y
  _atom_site_fract_z
  _atom_site_occupancy
  Cu  Cu1       1.0  0.25000  0.24808  0.00000  1.0000
  Cu  Cu2       1.0  0.25073  0.99995  0.24762  1.0000
  Cu  Cu3       1.0  0.24927  0.75232  0.75237  1.0000
  Cu  Cu4       1.0  0.75000  0.75193  0.00000  1.0000
  Cu  Cu5       1.0  0.74927  0.00005  0.75237  1.0000
  Cu  Cu6       1.0  0.75073  0.24768  0.24763  1.0000
  H   H1        1.0  0.84777  0.40001  0.84513  1.0000
  H   H2        1.0  0.84771  0.15459  0.55476  1.0000
  H   H3        1.0  0.84802  0.44474  0.59944  1.0000
  H   H4        1.0  0.65197  0.84530  0.40056  1.0000
  H   H5        1.0  0.65223  0.55489  0.15488  1.0000
  H   H6        1.0  0.65230  0.59982  0.44523  1.0000
  H   H7        1.0  0.15223  0.59999  0.15487  1.0000
  H   H8        1.0  0.15230  0.84541  0.44523  1.0000
  H   H9        1.0  0.15198  0.55526  0.40056  1.0000
  H   H10       1.0  0.34801  0.15470  0.59944  1.0000
  H   H11       1.0  0.34777  0.44511  0.84513  1.0000
  H   H12       1.0  0.34771  0.40018  0.55477  1.0000
  H   H13       1.0  0.11662  0.41844  0.08828  1.0000
  H   H14       1.0  0.11608  0.91204  0.33017  1.0000
  H   H15       1.0  0.11567  0.67022  0.58214  1.0000
  H   H16       1.0  0.38433  0.08808  0.41786  1.0000
  H   H17       1.0  0.38338  0.33016  0.91173  1.0000
  H   H18       1.0  0.38392  0.58188  0.66983  1.0000
  H   H19       1.0  0.88338  0.58156  0.91172  1.0000
  H   H20       1.0  0.88392  0.08795  0.66983  1.0000
  H   H21       1.0  0.88433  0.32978  0.41786  1.0000
  H   H22       1.0  0.61566  0.91192  0.58214  1.0000
  H   H23       1.0  0.61662  0.66984  0.08828  1.0000
  H   H24       1.0  0.61608  0.41813  0.33017  1.0000
  H   H25       1.0  0.72908  0.24740  0.84970  1.0000
  H   H26       1.0  0.72896  0.14863  0.39589  1.0000
  H   H27       1.0  0.72922  0.60170  0.75251  1.0000
  H   H28       1.0  0.77078  0.84920  0.24749  1.0000
  H   H29       1.0  0.77092  0.39771  0.15031  1.0000
  H   H30       1.0  0.77104  0.75274  0.60410  1.0000
  H   H31       1.0  0.27091  0.75260  0.15030  1.0000
  H   H32       1.0  0.27105  0.85137  0.60411  1.0000
  H   H33       1.0  0.27079  0.39829  0.24749  1.0000
  H   H34       1.0  0.22921  0.15081  0.75252  1.0000
  H   H35       1.0  0.22909  0.60229  0.84969  1.0000
  H   H36       1.0  0.22896  0.24726  0.39590  1.0000
  H   H37       1.0  0.06439  0.06036  0.86205  1.0000
  H   H38       1.0  0.06605  0.13720  0.19834  1.0000
  H   H39       1.0  0.06458  0.80166  0.93966  1.0000
  H   H40       1.0  0.43542  0.86199  0.06034  1.0000
  H   H41       1.0  0.43561  0.19831  0.13795  1.0000
  H   H42       1.0  0.43395  0.93885  0.80165  1.0000
  H   H43       1.0  0.93561  0.93964  0.13795  1.0000
  H   H44       1.0  0.93395  0.86280  0.80165  1.0000
  H   H45       1.0  0.93542  0.19835  0.06034  1.0000
  H   H46       1.0  0.56458  0.13801  0.93966  1.0000
  H   H47       1.0  0.56439  0.80169  0.86205  1.0000
  H   H48       1.0  0.56605  0.06114  0.19835  1.0000
  C   C1        1.0  0.97996  0.39410  0.96075  1.0000
  C   C2        1.0  0.97974  0.03914  0.43339  1.0000
  C   C3        1.0  0.97959  0.56657  0.60585  1.0000
  C   C4        1.0  0.52040  0.96072  0.39415  1.0000
  C   C5        1.0  0.52004  0.43335  0.03925  1.0000
  C   C6        1.0  0.52026  0.60575  0.56661  1.0000
  C   C7        1.0  0.02004  0.60590  0.03925  1.0000
  C   C8        1.0  0.02026  0.96085  0.56661  1.0000
  C   C9        1.0  0.02041  0.43343  0.39415  1.0000
  C   C10       1.0  0.47959  0.03929  0.60585  1.0000
  C   C11       1.0  0.47996  0.56665  0.96075  1.0000
  C   C12       1.0  0.47975  0.39425  0.43339  1.0000
  C   C13       1.0  0.91364  0.44367  0.91382  1.0000
  C   C14       1.0  0.91361  0.08606  0.52983  1.0000
  C   C15       1.0  0.91385  0.46989  0.55601  1.0000
  C   C16       1.0  0.58615  0.91387  0.44398  1.0000
  C   C17       1.0  0.58635  0.52985  0.08618  1.0000
  C   C18       1.0  0.58640  0.55624  0.47017  1.0000
  C   C19       1.0  0.08635  0.55633  0.08618  1.0000
  C   C20       1.0  0.08640  0.91394  0.47017  1.0000
  C   C21       1.0  0.08615  0.53011  0.44399  1.0000
  C   C22       1.0  0.41385  0.08613  0.55601  1.0000
  C   C23       1.0  0.41365  0.47015  0.91382  1.0000
  C   C24       1.0  0.41361  0.44377  0.52983  1.0000
  C   C25       1.0  0.06679  0.45310  0.04790  1.0000
  C   C26       1.0  0.06651  0.95218  0.40522  1.0000
  C   C27       1.0  0.06621  0.59502  0.54721  1.0000
  C   C28       1.0  0.43379  0.04782  0.45279  1.0000
  C   C29       1.0  0.43321  0.40521  0.95211  1.0000
  C   C30       1.0  0.43349  0.54696  0.59478  1.0000
  C   C31       1.0  0.93321  0.54690  0.95210  1.0000
  C   C32       1.0  0.93349  0.04782  0.59478  1.0000
  C   C33       1.0  0.93379  0.40498  0.45279  1.0000
  C   C34       1.0  0.56621  0.95219  0.54721  1.0000
  C   C35       1.0  0.56679  0.59480  0.04790  1.0000
  C   C36       1.0  0.56651  0.45304  0.40523  1.0000
  C   C37       1.0  0.95753  0.28539  0.91880  1.0000
  C   C38       1.0  0.95779  0.08084  0.36641  1.0000
  C   C39       1.0  0.95710  0.63325  0.71457  1.0000
  C   C40       1.0  0.54290  0.91868  0.28543  1.0000
  C   C41       1.0  0.54247  0.36660  0.08121  1.0000
  C   C42       1.0  0.54220  0.71444  0.63359  1.0000
  C   C43       1.0  0.04247  0.71461  0.08120  1.0000
  C   C44       1.0  0.04221  0.91915  0.63359  1.0000
  C   C45       1.0  0.04290  0.36674  0.28543  1.0000
  C   C46       1.0  0.45709  0.08132  0.71457  1.0000
  C   C47       1.0  0.45753  0.63340  0.91879  1.0000
  C   C48       1.0  0.45780  0.28556  0.36641  1.0000
  C   C49       1.0  0.83550  0.22565  0.86677  1.0000
  C   C50       1.0  0.83551  0.13184  0.35746  1.0000
  C   C51       1.0  0.83555  0.64065  0.77429  1.0000
  C   C52       1.0  0.66445  0.86636  0.22571  1.0000
  C   C53       1.0  0.66450  0.35888  0.13323  1.0000
  C   C54       1.0  0.66449  0.77438  0.64254  1.0000
  C   C55       1.0  0.16450  0.77435  0.13323  1.0000
  C   C56       1.0  0.16449  0.86816  0.64254  1.0000
  C   C57       1.0  0.16445  0.35935  0.22571  1.0000
  C   C58       1.0  0.33554  0.13364  0.77429  1.0000
  C   C59       1.0  0.33550  0.64111  0.86677  1.0000
  C   C60       1.0  0.33551  0.22562  0.35746  1.0000
  C   C61       1.0  0.00533  0.12744  0.87395  1.0000
  C   C62       1.0  0.00628  0.12523  0.25320  1.0000
  C   C63       1.0  0.00532  0.74639  0.87259  1.0000
  C   C64       1.0  0.49468  0.87380  0.12741  1.0000
  C   C65       1.0  0.49467  0.25349  0.12605  1.0000
  C   C66       1.0  0.49372  0.87203  0.74680  1.0000
  C   C67       1.0  0.99466  0.87256  0.12605  1.0000
  C   C68       1.0  0.99372  0.87478  0.74680  1.0000
  C   C69       1.0  0.99468  0.25361  0.12741  1.0000
  C   C70       1.0  0.50532  0.12620  0.87259  1.0000
  C   C71       1.0  0.50533  0.74651  0.87395  1.0000
  C   C72       1.0  0.50628  0.12797  0.25320  1.0000
  N   N1        1.0  0.06363  0.22100  0.92276  1.0000
  N   N2        1.0  0.06471  0.07732  0.29890  1.0000
  N   N3        1.0  0.06312  0.70186  0.77900  1.0000
  N   N4        1.0  0.43688  0.92286  0.22100  1.0000
  N   N5        1.0  0.43637  0.29824  0.07724  1.0000
  N   N6        1.0  0.43529  0.77841  0.70110  1.0000
  N   N7        1.0  0.93637  0.77900  0.07723  1.0000
  N   N8        1.0  0.93529  0.92268  0.70109  1.0000
  N   N9        1.0  0.93688  0.29814  0.22100  1.0000
  N   N10       1.0  0.56311  0.07714  0.77900  1.0000
  N   N11       1.0  0.56363  0.70176  0.92276  1.0000
  N   N12       1.0  0.56471  0.22158  0.29891  1.0000
  N   N13       1.0  0.86626  0.12663  0.83955  1.0000
  N   N14       1.0  0.86661  0.15868  0.28545  1.0000
  N   N15       1.0  0.86659  0.71246  0.87339  1.0000
  N   N16       1.0  0.63341  0.83908  0.12661  1.0000
  N   N17       1.0  0.63374  0.28709  0.16045  1.0000
  N   N18       1.0  0.63339  0.87323  0.71455  1.0000
  N   N19       1.0  0.13374  0.87336  0.16045  1.0000
  N   N20       1.0  0.13339  0.84132  0.71455  1.0000
  N   N21       1.0  0.13341  0.28753  0.12661  1.0000
  N   N22       1.0  0.36659  0.16092  0.87339  1.0000
  N   N23       1.0  0.36626  0.71291  0.83955  1.0000
  N   N24       1.0  0.36661  0.12677  0.28546  1.0000
