data_image0
_chemical_formula_structural       Cd2H24C36N8O12
_chemical_formula_sum              "Cd2 H24 C36 N8 O12"
_cell_length_a       8.38662
_cell_length_b       8.46901
_cell_length_c       12.8978
_cell_angle_alpha    83.6331
_cell_angle_beta     75.9708
_cell_angle_gamma    85.3981

_space_group_name_H-M_alt    "P 1"
_space_group_IT_number       1

loop_
  _space_group_symop_operation_xyz
  'x, y, z'

loop_
  _atom_site_type_symbol
  _atom_site_label
  _atom_site_symmetry_multiplicity
  _atom_site_fract_x
  _atom_site_fract_y
  _atom_site_fract_z
  _atom_site_occupancy
  Cd  Cd1       1.0  0.77016  0.91086  0.83526  1.0000
  Cd  Cd2       1.0  0.22984  0.08914  0.16474  1.0000
  H   H1        1.0  0.40758  0.89656  0.82081  1.0000
  H   H2        1.0  0.59242  0.10344  0.17919  1.0000
  H   H3        1.0  0.25475  0.80657  0.69849  1.0000
  H   H4        1.0  0.74525  0.19343  0.30151  1.0000
  H   H5        1.0  0.70945  0.81437  0.45216  1.0000
  H   H6        1.0  0.29055  0.18563  0.54784  1.0000
  H   H7        1.0  0.84485  0.89419  0.58684  1.0000
  H   H8        1.0  0.15515  0.10582  0.41316  1.0000
  H   H9        1.0  0.13952  0.80102  0.57557  1.0000
  H   H10       1.0  0.86048  0.19899  0.42442  1.0000
  H   H11       1.0  0.00127  0.67157  0.46176  1.0000
  H   H12       1.0  0.99873  0.32844  0.53824  1.0000
  H   H13       1.0  0.47332  0.51846  0.27083  1.0000
  H   H14       1.0  0.52668  0.48154  0.72917  1.0000
  H   H15       1.0  0.61184  0.64042  0.38725  1.0000
  H   H16       1.0  0.38816  0.35958  0.61276  1.0000
  H   H17       1.0  0.80882  0.61211  0.18819  1.0000
  H   H18       1.0  0.19118  0.38789  0.81182  1.0000
  H   H19       1.0  0.64820  0.52356  0.06399  1.0000
  H   H20       1.0  0.35180  0.47644  0.93601  1.0000
  H   H21       1.0  0.74560  0.27385  0.97509  1.0000
  H   H22       1.0  0.25440  0.72615  0.02492  1.0000
  H   H23       1.0  0.98890  0.11601  0.01863  1.0000
  H   H24       1.0  0.01110  0.88399  0.98137  1.0000
  C   C1        1.0  0.47002  0.87305  0.73905  1.0000
  C   C2        1.0  0.52998  0.12695  0.26095  1.0000
  C   C3        1.0  0.38554  0.82418  0.66923  1.0000
  C   C4        1.0  0.61446  0.17582  0.33077  1.0000
  C   C5        1.0  0.46917  0.79418  0.56427  1.0000
  C   C6        1.0  0.53083  0.20582  0.43573  1.0000
  C   C7        1.0  0.63734  0.82495  0.53382  1.0000
  C   C8        1.0  0.36265  0.17506  0.46618  1.0000
  C   C9        1.0  0.71433  0.87161  0.60821  1.0000
  C   C10       1.0  0.28567  0.12839  0.39180  1.0000
  C   C11       1.0  0.38627  0.72829  0.49149  1.0000
  C   C12       1.0  0.61373  0.27171  0.50852  1.0000
  C   C13       1.0  0.21344  0.73619  0.51052  1.0000
  C   C14       1.0  0.78656  0.26382  0.48947  1.0000
  C   C15       1.0  0.13506  0.66535  0.44604  1.0000
  C   C16       1.0  0.86494  0.33466  0.55395  1.0000
  C   C17       1.0  0.22760  0.58448  0.35909  1.0000
  C   C18       1.0  0.77239  0.41553  0.64091  1.0000
  C   C19       1.0  0.40080  0.57875  0.33849  1.0000
  C   C20       1.0  0.59920  0.42125  0.66151  1.0000
  C   C21       1.0  0.47803  0.64922  0.40378  1.0000
  C   C22       1.0  0.52197  0.35078  0.59622  1.0000
  C   C23       1.0  0.14634  0.51292  0.29376  1.0000
  C   C24       1.0  0.85366  0.48708  0.70623  1.0000
  C   C25       1.0  0.07136  0.45541  0.23826  1.0000
  C   C26       1.0  0.92864  0.54459  0.76174  1.0000
  C   C27       1.0  0.97801  0.40643  0.17075  1.0000
  C   C28       1.0  0.02199  0.59357  0.82925  1.0000
  C   C29       1.0  0.84123  0.50127  0.15050  1.0000
  C   C30       1.0  0.15877  0.49873  0.84950  1.0000
  C   C31       1.0  0.75467  0.45269  0.08129  1.0000
  C   C32       1.0  0.24534  0.54731  0.91871  1.0000
  C   C33       1.0  0.80774  0.31349  0.03155  1.0000
  C   C34       1.0  0.19226  0.68651  0.96845  1.0000
  C   C35       1.0  0.94309  0.22501  0.05589  1.0000
  C   C36       1.0  0.05692  0.77499  0.94411  1.0000
  N   N1        1.0  0.63351  0.89211  0.71023  1.0000
  N   N2        1.0  0.36649  0.10789  0.28977  1.0000
  N   N3        1.0  0.04174  0.10782  0.73977  1.0000
  N   N4        1.0  0.95826  0.89219  0.26023  1.0000
  N   N5        1.0  0.56586  0.83468  0.04391  1.0000
  N   N6        1.0  0.43414  0.16532  0.95609  1.0000
  N   N7        1.0  0.02551  0.26765  0.12481  1.0000
  N   N8        1.0  0.97449  0.73235  0.87519  1.0000
  O   O1        1.0  0.01406  0.01315  0.67678  1.0000
  O   O2        1.0  0.98593  0.98685  0.32322  1.0000
  O   O3        1.0  0.16264  0.19212  0.71455  1.0000
  O   O4        1.0  0.83736  0.80788  0.28545  1.0000
  O   O5        1.0  0.94029  0.11449  0.83240  1.0000
  O   O6        1.0  0.05971  0.88551  0.16760  1.0000
  O   O7        1.0  0.66889  0.94579  0.02235  1.0000
  O   O8        1.0  0.33111  0.05421  0.97766  1.0000
  O   O9        1.0  0.46846  0.81674  0.13380  1.0000
  O   O10       1.0  0.53154  0.18326  0.86620  1.0000
  O   O11       1.0  0.56662  0.74535  0.97028  1.0000
  O   O12       1.0  0.43338  0.25465  0.02972  1.0000
