data_image0
_chemical_formula_structural       Cu4H20C24N8O16
_chemical_formula_sum              "Cu4 H20 C24 N8 O16"
_cell_length_a       8.06427
_cell_length_b       8.91031
_cell_length_c       10.9914
_cell_angle_alpha    111.068
_cell_angle_beta     89.9999
_cell_angle_gamma    89.9999

_space_group_name_H-M_alt    "P 1"
_space_group_IT_number       1

loop_
  _space_group_symop_operation_xyz
  'x, y, z'

loop_
  _atom_site_type_symbol
  _atom_site_label
  _atom_site_symmetry_multiplicity
  _atom_site_fract_x
  _atom_site_fract_y
  _atom_site_fract_z
  _atom_site_occupancy
  Cu  Cu1       1.0  0.82422  0.34576  0.77725  1.0000
  Cu  Cu2       1.0  0.32422  0.15423  0.72275  1.0000
  Cu  Cu3       1.0  0.17578  0.65423  0.22275  1.0000
  Cu  Cu4       1.0  0.67578  0.84576  0.27725  1.0000
  H   H1        1.0  0.78760  0.08874  0.91977  1.0000
  H   H2        1.0  0.28761  0.41126  0.58024  1.0000
  H   H3        1.0  0.21240  0.91126  0.08023  1.0000
  H   H4        1.0  0.71239  0.58873  0.41977  1.0000
  H   H5        1.0  0.89849  0.08829  0.13231  1.0000
  H   H6        1.0  0.39849  0.41172  0.36770  1.0000
  H   H7        1.0  0.10151  0.91172  0.86769  1.0000
  H   H8        1.0  0.60149  0.58828  0.63231  1.0000
  H   H9        1.0  0.08708  0.32123  0.26347  1.0000
  H   H10       1.0  0.58707  0.17878  0.23652  1.0000
  H   H11       1.0  0.91294  0.67878  0.73652  1.0000
  H   H12       1.0  0.41291  0.82123  0.76347  1.0000
  H   H13       1.0  0.92304  0.90468  0.61771  1.0000
  H   H14       1.0  0.42304  0.59532  0.88229  1.0000
  H   H15       1.0  0.07697  0.09533  0.38229  1.0000
  H   H16       1.0  0.57696  0.40467  0.11772  1.0000
  H   H17       1.0  0.99568  0.29815  0.54082  1.0000
  H   H18       1.0  0.49566  0.20187  0.95919  1.0000
  H   H19       1.0  0.00432  0.70186  0.45918  1.0000
  H   H20       1.0  0.50432  0.79814  0.04082  1.0000
  C   C1        1.0  0.98744  0.43152  0.02038  1.0000
  C   C2        1.0  0.48744  0.06848  0.47963  1.0000
  C   C3        1.0  0.01257  0.56848  0.97962  1.0000
  C   C4        1.0  0.51257  0.93152  0.52037  1.0000
  C   C5        1.0  0.86388  0.18760  0.98254  1.0000
  C   C6        1.0  0.36390  0.31240  0.51746  1.0000
  C   C7        1.0  0.13611  0.81240  0.01746  1.0000
  C   C8        1.0  0.63611  0.68759  0.48254  1.0000
  C   C9        1.0  0.92830  0.18729  0.09990  1.0000
  C   C10       1.0  0.42830  0.31272  0.40011  1.0000
  C   C11       1.0  0.07170  0.81272  0.90010  1.0000
  C   C12       1.0  0.57169  0.68728  0.59990  1.0000
  C   C13       1.0  0.03030  0.31476  0.17216  1.0000
  C   C14       1.0  0.53030  0.18525  0.32784  1.0000
  C   C15       1.0  0.96971  0.68524  0.82783  1.0000
  C   C16       1.0  0.46969  0.81475  0.67216  1.0000
  C   C17       1.0  0.92815  0.03793  0.65231  1.0000
  C   C18       1.0  0.42814  0.46207  0.84769  1.0000
  C   C19       1.0  0.07186  0.96207  0.34769  1.0000
  C   C20       1.0  0.57187  0.53793  0.15232  1.0000
  C   C21       1.0  0.87661  0.34973  0.52339  1.0000
  C   C22       1.0  0.37660  0.15028  0.97661  1.0000
  C   C23       1.0  0.12340  0.65027  0.47661  1.0000
  C   C24       1.0  0.62338  0.84972  0.02339  1.0000
  N   N1        1.0  0.89523  0.31104  0.94270  1.0000
  N   N2        1.0  0.39524  0.18896  0.55730  1.0000
  N   N3        1.0  0.10476  0.68895  0.05730  1.0000
  N   N4        1.0  0.60477  0.81104  0.44270  1.0000
  N   N5        1.0  0.05831  0.43815  0.13225  1.0000
  N   N6        1.0  0.55832  0.06185  0.36775  1.0000
  N   N7        1.0  0.94169  0.56185  0.86774  1.0000
  N   N8        1.0  0.44169  0.93815  0.63225  1.0000
  O   O1        1.0  0.78862  0.10845  0.69192  1.0000
  O   O2        1.0  0.28862  0.39155  0.80808  1.0000
  O   O3        1.0  0.21139  0.89155  0.30808  1.0000
  O   O4        1.0  0.71138  0.60844  0.19192  1.0000
  O   O5        1.0  0.77303  0.39058  0.62035  1.0000
  O   O6        1.0  0.27303  0.10941  0.87965  1.0000
  O   O7        1.0  0.22697  0.60941  0.37965  1.0000
  O   O8        1.0  0.72696  0.89058  0.12034  1.0000
  O   O9        1.0  0.06262  0.10704  0.65068  1.0000
  O   O10       1.0  0.56263  0.39295  0.84932  1.0000
  O   O11       1.0  0.93739  0.89296  0.34932  1.0000
  O   O12       1.0  0.43738  0.60705  0.15069  1.0000
  O   O13       1.0  0.84844  0.36510  0.41721  1.0000
  O   O14       1.0  0.34843  0.13491  0.08279  1.0000
  O   O15       1.0  0.15156  0.63491  0.58279  1.0000
  O   O16       1.0  0.65155  0.86509  0.91720  1.0000
