data_image0
_chemical_formula_structural       Mn2H28C40N4O8
_chemical_formula_sum              "Mn2 H28 C40 N4 O8"
_cell_length_a       9.96476
_cell_length_b       10.1554
_cell_length_c       10.6843
_cell_angle_alpha    80.7135
_cell_angle_beta     81.8571
_cell_angle_gamma    65.5251

_space_group_name_H-M_alt    "P 1"
_space_group_IT_number       1

loop_
  _space_group_symop_operation_xyz
  'x, y, z'

loop_
  _atom_site_type_symbol
  _atom_site_label
  _atom_site_symmetry_multiplicity
  _atom_site_fract_x
  _atom_site_fract_y
  _atom_site_fract_z
  _atom_site_occupancy
  Mn  Mn1       1.0  0.18643  0.87972  0.11275  1.0000
  Mn  Mn2       1.0  0.81357  0.12029  0.88725  1.0000
  H   H1        1.0  0.25446  0.51649  0.45593  1.0000
  H   H2        1.0  0.74554  0.48352  0.54407  1.0000
  H   H3        1.0  0.61896  0.64506  0.35382  1.0000
  H   H4        1.0  0.38105  0.35494  0.64618  1.0000
  H   H5        1.0  0.79377  0.69661  0.88714  1.0000
  H   H6        1.0  0.20622  0.30339  0.11287  1.0000
  H   H7        1.0  0.18834  0.55941  0.08117  1.0000
  H   H8        1.0  0.81166  0.44060  0.91883  1.0000
  H   H9        1.0  0.36359  0.05406  0.97164  1.0000
  H   H10       1.0  0.63642  0.94594  0.02836  1.0000
  H   H11       1.0  0.48182  0.08275  0.75539  1.0000
  H   H12       1.0  0.51818  0.91725  0.24460  1.0000
  H   H13       1.0  0.50662  0.65805  0.70690  1.0000
  H   H14       1.0  0.49337  0.34194  0.29310  1.0000
  H   H15       1.0  0.39296  0.64512  0.92887  1.0000
  H   H16       1.0  0.60703  0.35488  0.07113  1.0000
  H   H17       1.0  0.59833  0.79136  0.53322  1.0000
  H   H18       1.0  0.40167  0.20864  0.46677  1.0000
  H   H19       1.0  0.60159  0.07665  0.58896  1.0000
  H   H20       1.0  0.39840  0.92335  0.41104  1.0000
  H   H21       1.0  0.78259  0.74612  0.41525  1.0000
  H   H22       1.0  0.21742  0.25387  0.58476  1.0000
  H   H23       1.0  0.00973  0.70517  0.26882  1.0000
  H   H24       1.0  0.99027  0.29482  0.73119  1.0000
  H   H25       1.0  0.99339  0.11245  0.29799  1.0000
  H   H26       1.0  0.00660  0.88755  0.70201  1.0000
  H   H27       1.0  0.76507  0.17163  0.44750  1.0000
  H   H28       1.0  0.23492  0.82837  0.55249  1.0000
  C   C1        1.0  0.35237  0.68873  0.28384  1.0000
  C   C2        1.0  0.64764  0.31127  0.71616  1.0000
  C   C3        1.0  0.42935  0.59049  0.39472  1.0000
  C   C4        1.0  0.57066  0.40952  0.60528  1.0000
  C   C5        1.0  0.36196  0.50860  0.47644  1.0000
  C   C6        1.0  0.63805  0.49141  0.52356  1.0000
  C   C7        1.0  0.56776  0.58122  0.41885  1.0000
  C   C8        1.0  0.43225  0.41878  0.58115  1.0000
  C   C9        1.0  0.97991  0.79666  0.95987  1.0000
  C   C10       1.0  0.02009  0.20334  0.04013  1.0000
  C   C11       1.0  0.99010  0.64350  0.98142  1.0000
  C   C12       1.0  0.00989  0.35650  0.01859  1.0000
  C   C13       1.0  0.88360  0.60967  0.93660  1.0000
  C   C14       1.0  0.11639  0.39033  0.06340  1.0000
  C   C15       1.0  0.10685  0.53267  0.04502  1.0000
  C   C16       1.0  0.89315  0.46733  0.95498  1.0000
  C   C17       1.0  0.39853  0.96806  0.91002  1.0000
  C   C18       1.0  0.60148  0.03194  0.08998  1.0000
  C   C19       1.0  0.46151  0.98467  0.78719  1.0000
  C   C20       1.0  0.53849  0.01532  0.21281  1.0000
  C   C21       1.0  0.49656  0.87584  0.70784  1.0000
  C   C22       1.0  0.50344  0.12416  0.29215  1.0000
  C   C23       1.0  0.47669  0.74901  0.76196  1.0000
  C   C24       1.0  0.52330  0.25099  0.23803  1.0000
  C   C25       1.0  0.41402  0.74059  0.88617  1.0000
  C   C26       1.0  0.58597  0.25941  0.11383  1.0000
  C   C27       1.0  0.53598  0.89792  0.56777  1.0000
  C   C28       1.0  0.46402  0.10208  0.43222  1.0000
  C   C29       1.0  0.60222  0.01142  0.51606  1.0000
  C   C30       1.0  0.39777  0.98858  0.48393  1.0000
  C   C31       1.0  0.75038  0.96542  0.44226  1.0000
  C   C32       1.0  0.24962  0.03458  0.55774  1.0000
  C   C33       1.0  0.82424  0.83162  0.39272  1.0000
  C   C34       1.0  0.17577  0.16837  0.60729  1.0000
  C   C35       1.0  0.95141  0.80758  0.31030  1.0000
  C   C36       1.0  0.04859  0.19242  0.68971  1.0000
  C   C37       1.0  0.94226  0.03467  0.32674  1.0000
  C   C38       1.0  0.05774  0.96533  0.67326  1.0000
  C   C39       1.0  0.81550  0.06663  0.40984  1.0000
  C   C40       1.0  0.18449  0.93337  0.59016  1.0000
  N   N1        1.0  0.37057  0.85026  0.95889  1.0000
  N   N2        1.0  0.62943  0.14974  0.04111  1.0000
  N   N3        1.0  0.00876  0.90816  0.27499  1.0000
  N   N4        1.0  0.99124  0.09184  0.72502  1.0000
  O   O1        1.0  0.86514  0.89474  0.91056  1.0000
  O   O2        1.0  0.13486  0.10526  0.08944  1.0000
  O   O3        1.0  0.08648  0.82140  0.98798  1.0000
  O   O4        1.0  0.91351  0.17861  0.01202  1.0000
  O   O5        1.0  0.35387  0.81557  0.26096  1.0000
  O   O6        1.0  0.64613  0.18444  0.73904  1.0000
  O   O7        1.0  0.28475  0.64479  0.21875  1.0000
  O   O8        1.0  0.71525  0.35521  0.78125  1.0000
