data_image0
_chemical_formula_structural       Fe2H56C52S2N8O8
_chemical_formula_sum              "Fe2 H56 C52 S2 N8 O8"
_cell_length_a       10.5031
_cell_length_b       11.5552
_cell_length_c       12.0866
_cell_angle_alpha    108.564
_cell_angle_beta     116.203
_cell_angle_gamma    89.8408

_space_group_name_H-M_alt    "P 1"
_space_group_IT_number       1

loop_
  _space_group_symop_operation_xyz
  'x, y, z'

loop_
  _atom_site_type_symbol
  _atom_site_label
  _atom_site_symmetry_multiplicity
  _atom_site_fract_x
  _atom_site_fract_y
  _atom_site_fract_z
  _atom_site_occupancy
  Fe  Fe1       1.0  0.50000  0.50000  1.00000  1.0000
  Fe  Fe2       1.0  0.50000  1.00000  1.00000  1.0000
  H   H1        1.0  0.96960  0.87233  0.65213  1.0000
  H   H2        1.0  0.68110  0.37293  0.65080  1.0000
  H   H3        1.0  0.03040  0.12767  0.34787  1.0000
  H   H4        1.0  0.31889  0.62707  0.34920  1.0000
  H   H5        1.0  0.03649  0.73344  0.65856  1.0000
  H   H6        1.0  0.62031  0.23380  0.65628  1.0000
  H   H7        1.0  0.96351  0.26656  0.34144  1.0000
  H   H8        1.0  0.37969  0.76620  0.34372  1.0000
  H   H9        1.0  0.95372  0.56318  0.92449  1.0000
  H   H10       1.0  0.97162  0.06348  0.92360  1.0000
  H   H11       1.0  0.04628  0.43683  0.07551  1.0000
  H   H12       1.0  0.02839  0.93652  0.07640  1.0000
  H   H13       1.0  0.80203  0.47591  0.21016  1.0000
  H   H14       1.0  0.40778  0.97498  0.20896  1.0000
  H   H15       1.0  0.19796  0.52409  0.78984  1.0000
  H   H16       1.0  0.59222  0.02502  0.79104  1.0000
  H   H17       1.0  0.97067  0.57428  0.44835  1.0000
  H   H18       1.0  0.47692  0.07421  0.44629  1.0000
  H   H19       1.0  0.02933  0.42572  0.55165  1.0000
  H   H20       1.0  0.52308  0.92579  0.55371  1.0000
  H   H21       1.0  0.82274  0.52056  0.04090  1.0000
  H   H22       1.0  0.22068  0.02065  0.04100  1.0000
  H   H23       1.0  0.17726  0.47944  0.95910  1.0000
  H   H24       1.0  0.77932  0.97935  0.95900  1.0000
  H   H25       1.0  0.45532  0.62672  0.80398  1.0000
  H   H26       1.0  0.34928  0.12663  0.80525  1.0000
  H   H27       1.0  0.54468  0.37328  0.19601  1.0000
  H   H28       1.0  0.65072  0.87337  0.19475  1.0000
  H   H29       1.0  0.56558  0.66438  0.67146  1.0000
  H   H30       1.0  0.10454  0.16425  0.67166  1.0000
  H   H31       1.0  0.43442  0.33562  0.32854  1.0000
  H   H32       1.0  0.89546  0.83575  0.32835  1.0000
  H   H33       1.0  0.76514  0.57251  0.59802  1.0000
  H   H34       1.0  0.83067  0.07304  0.59727  1.0000
  H   H35       1.0  0.23486  0.42749  0.40198  1.0000
  H   H36       1.0  0.16933  0.92696  0.40273  1.0000
  H   H37       1.0  0.93942  0.59161  0.73151  1.0000
  H   H38       1.0  0.79088  0.09173  0.73024  1.0000
  H   H39       1.0  0.06058  0.40839  0.26849  1.0000
  H   H40       1.0  0.20912  0.90827  0.26976  1.0000
  H   H41       1.0  0.51986  0.72307  0.23435  1.0000
  H   H42       1.0  0.71431  0.22306  0.23598  1.0000
  H   H43       1.0  0.48014  0.27693  0.76565  1.0000
  H   H44       1.0  0.28570  0.77693  0.76403  1.0000
  H   H45       1.0  0.94421  0.81593  0.81855  1.0000
  H   H46       1.0  0.87439  0.31592  0.81858  1.0000
  H   H47       1.0  0.05579  0.18408  0.18145  1.0000
  H   H48       1.0  0.12561  0.68408  0.18142  1.0000
  H   H49       1.0  0.76911  0.80335  0.69007  1.0000
  H   H50       1.0  0.92104  0.30361  0.69126  1.0000
  H   H51       1.0  0.23089  0.19665  0.30993  1.0000
  H   H52       1.0  0.07896  0.69639  0.30875  1.0000
  H   H53       1.0  0.67785  0.83137  0.47456  1.0000
  H   H54       1.0  0.79665  0.33188  0.47569  1.0000
  H   H55       1.0  0.32215  0.16863  0.52544  1.0000
  H   H56       1.0  0.20335  0.66811  0.52431  1.0000
  C   C1        1.0  0.93725  0.77368  0.62950  1.0000
  C   C2        1.0  0.69094  0.27426  0.62840  1.0000
  C   C3        1.0  0.06275  0.22632  0.37050  1.0000
  C   C4        1.0  0.30906  0.72574  0.37160  1.0000
  C   C5        1.0  0.76941  0.61335  0.78439  1.0000
  C   C6        1.0  0.01467  0.11310  0.78392  1.0000
  C   C7        1.0  0.23059  0.38665  0.21561  1.0000
  C   C8        1.0  0.98534  0.88690  0.21608  1.0000
  C   C9        1.0  0.84197  0.57653  0.89318  1.0000
  C   C10       1.0  0.05203  0.07659  0.89279  1.0000
  C   C11       1.0  0.15803  0.42347  0.10682  1.0000
  C   C12       1.0  0.94797  0.92341  0.10721  1.0000
  C   C13       1.0  0.77908  0.55696  0.27098  1.0000
  C   C14       1.0  0.49141  0.05647  0.27006  1.0000
  C   C15       1.0  0.22092  0.44304  0.72902  1.0000
  C   C16       1.0  0.50859  0.94353  0.72994  1.0000
  C   C17       1.0  0.84028  0.71293  0.48409  1.0000
  C   C18       1.0  0.64303  0.21329  0.48345  1.0000
  C   C19       1.0  0.15972  0.28707  0.51591  1.0000
  C   C20       1.0  0.35697  0.78672  0.51655  1.0000
  C   C21       1.0  0.87235  0.61176  0.40525  1.0000
  C   C22       1.0  0.53209  0.11170  0.40386  1.0000
  C   C23       1.0  0.12765  0.38824  0.59475  1.0000
  C   C24       1.0  0.46792  0.88830  0.59614  1.0000
  C   C25       1.0  0.77023  0.55447  0.95955  1.0000
  C   C26       1.0  0.19105  0.05443  0.95963  1.0000
  C   C27       1.0  0.22977  0.44553  0.04045  1.0000
  C   C28       1.0  0.80895  0.94557  0.04037  1.0000
  C   C29       1.0  0.56513  0.61206  0.82639  1.0000
  C   C30       1.0  0.26178  0.11195  0.82697  1.0000
  C   C31       1.0  0.43487  0.38794  0.17361  1.0000
  C   C32       1.0  0.73822  0.88805  0.17303  1.0000
  C   C33       1.0  0.62796  0.63358  0.75354  1.0000
  C   C34       1.0  0.12506  0.13338  0.75360  1.0000
  C   C35       1.0  0.37204  0.36642  0.24646  1.0000
  C   C36       1.0  0.87494  0.86662  0.24640  1.0000
  C   C37       1.0  0.83744  0.62798  0.70225  1.0000
  C   C38       1.0  0.86358  0.12802  0.70155  1.0000
  C   C39       1.0  0.16256  0.37202  0.29775  1.0000
  C   C40       1.0  0.13642  0.87198  0.29846  1.0000
  C   C41       1.0  0.62190  0.69378  0.28543  1.0000
  C   C42       1.0  0.66335  0.19373  0.28635  1.0000
  C   C43       1.0  0.37810  0.30622  0.71457  1.0000
  C   C44       1.0  0.33665  0.80626  0.71365  1.0000
  C   C45       1.0  0.86859  0.76267  0.71535  1.0000
  C   C46       1.0  0.84632  0.26301  0.71549  1.0000
  C   C47       1.0  0.13141  0.23734  0.28465  1.0000
  C   C48       1.0  0.15368  0.73699  0.28451  1.0000
  C   C49       1.0  0.71054  0.75328  0.41969  1.0000
  C   C50       1.0  0.70891  0.25356  0.42028  1.0000
  C   C51       1.0  0.28945  0.24672  0.58031  1.0000
  C   C52       1.0  0.29109  0.74644  0.57972  1.0000
  S   S1        1.0  0.31263  0.75006  0.99956  1.0000
  S   S2        1.0  0.68737  0.24994  0.00043  1.0000
  N   N1        1.0  0.65485  0.59692  0.21024  1.0000
  N   N2        1.0  0.55520  0.09645  0.21043  1.0000
  N   N3        1.0  0.34515  0.40308  0.78976  1.0000
  N   N4        1.0  0.44481  0.90355  0.78957  1.0000
  N   N5        1.0  0.63274  0.56991  0.92630  1.0000
  N   N6        1.0  0.29506  0.06978  0.92679  1.0000
  N   N7        1.0  0.36726  0.43009  0.07370  1.0000
  N   N8        1.0  0.70494  0.93022  0.07321  1.0000
  O   O1        1.0  0.39729  0.64467  0.99532  1.0000
  O   O2        1.0  0.59883  0.14460  0.99603  1.0000
  O   O3        1.0  0.60271  0.35533  0.00469  1.0000
  O   O4        1.0  0.40117  0.85540  0.00397  1.0000
  O   O5        1.0  0.29664  0.78687  0.12038  1.0000
  O   O6        1.0  0.82535  0.28690  0.12159  1.0000
  O   O7        1.0  0.70336  0.21313  0.87961  1.0000
  O   O8        1.0  0.17465  0.71310  0.87841  1.0000
