data_image0
_chemical_formula_structural       Cd2H16C24S2N4O8
_chemical_formula_sum              "Cd2 H16 C24 S2 N4 O8"
_cell_length_a       6.94757
_cell_length_b       6.94758
_cell_length_c       14.3712
_cell_angle_alpha    89.9999
_cell_angle_beta     90
_cell_angle_gamma    90.0006

_space_group_name_H-M_alt    "P 1"
_space_group_IT_number       1

loop_
  _space_group_symop_operation_xyz
  'x, y, z'

loop_
  _atom_site_type_symbol
  _atom_site_label
  _atom_site_symmetry_multiplicity
  _atom_site_fract_x
  _atom_site_fract_y
  _atom_site_fract_z
  _atom_site_occupancy
  Cd  Cd1       1.0  0.50000  1.00000  0.03380  1.0000
  Cd  Cd2       1.0  1.00000  0.50000  0.96620  1.0000
  H   H1        1.0  0.29017  0.79017  0.20593  1.0000
  H   H2        1.0  0.70983  0.20983  0.20593  1.0000
  H   H3        1.0  0.79017  0.70983  0.79407  1.0000
  H   H4        1.0  0.20983  0.29017  0.79407  1.0000
  H   H5        1.0  0.27975  0.77975  0.38147  1.0000
  H   H6        1.0  0.72025  0.22025  0.38147  1.0000
  H   H7        1.0  0.77975  0.72025  0.61853  1.0000
  H   H8        1.0  0.22025  0.27975  0.61853  1.0000
  H   H9        1.0  0.27956  0.77956  0.69246  1.0000
  H   H10       1.0  0.72044  0.22045  0.69246  1.0000
  H   H11       1.0  0.77956  0.72044  0.30754  1.0000
  H   H12       1.0  0.22044  0.27956  0.30755  1.0000
  H   H13       1.0  0.28883  0.78883  0.86592  1.0000
  H   H14       1.0  0.71117  0.21117  0.86592  1.0000
  H   H15       1.0  0.78883  0.71117  0.13408  1.0000
  H   H16       1.0  0.21117  0.28883  0.13408  1.0000
  C   C1        1.0  0.38205  0.88205  0.24840  1.0000
  C   C2        1.0  0.61795  0.11795  0.24839  1.0000
  C   C3        1.0  0.88205  0.61795  0.75160  1.0000
  C   C4        1.0  0.11795  0.38205  0.75160  1.0000
  C   C5        1.0  0.37697  0.87697  0.34513  1.0000
  C   C6        1.0  0.62303  0.12303  0.34513  1.0000
  C   C7        1.0  0.87698  0.62303  0.65487  1.0000
  C   C8        1.0  0.12303  0.37698  0.65487  1.0000
  C   C9        1.0  0.50000  1.00000  0.39566  1.0000
  C   C10       1.0  0.00000  0.50000  0.60434  1.0000
  C   C11       1.0  0.50000  1.00000  0.49421  1.0000
  C   C12       1.0  0.00000  0.50000  0.50579  1.0000
  C   C13       1.0  0.50000  0.00000  0.57914  1.0000
  C   C14       1.0  0.00000  0.50000  0.42086  1.0000
  C   C15       1.0  0.50000  0.00000  0.67775  1.0000
  C   C16       1.0  0.00000  0.50000  0.32225  1.0000
  C   C17       1.0  0.37716  0.87716  0.72828  1.0000
  C   C18       1.0  0.62284  0.12284  0.72828  1.0000
  C   C19       1.0  0.87716  0.62284  0.27172  1.0000
  C   C20       1.0  0.12284  0.37716  0.27172  1.0000
  C   C21       1.0  0.38178  0.88178  0.82488  1.0000
  C   C22       1.0  0.61822  0.11822  0.82488  1.0000
  C   C23       1.0  0.88178  0.61822  0.17512  1.0000
  C   C24       1.0  0.11822  0.38178  0.17512  1.0000
  S   S1        1.0  0.50000  0.50000  1.00000  1.0000
  S   S2        1.0  1.00000  1.00000  0.00000  1.0000
  N   N1        1.0  0.50000  0.00000  0.20103  1.0000
  N   N2        1.0  1.00000  0.50000  0.79898  1.0000
  N   N3        1.0  0.50000  0.00000  0.87236  1.0000
  N   N4        1.0  1.00000  0.50000  0.12764  1.0000
  O   O1        1.0  0.48791  0.67204  0.06173  1.0000
  O   O2        1.0  0.51209  0.32795  0.06173  1.0000
  O   O3        1.0  0.98791  0.82795  0.93827  1.0000
  O   O4        1.0  0.01209  0.17204  0.93827  1.0000
  O   O5        1.0  0.17204  0.98791  0.06173  1.0000
  O   O6        1.0  0.82795  0.01209  0.06173  1.0000
  O   O7        1.0  0.32795  0.48791  0.93827  1.0000
  O   O8        1.0  0.67204  0.51209  0.93827  1.0000
