data_image0
_chemical_formula_structural       Zn6H48C36N12O24
_chemical_formula_sum              "Zn6 H48 C36 N12 O24"
_cell_length_a       9.76293
_cell_length_b       9.72896
_cell_length_c       16.1639
_cell_angle_alpha    77.5929
_cell_angle_beta     77.6368
_cell_angle_gamma    64.5081

_space_group_name_H-M_alt    "P 1"
_space_group_IT_number       1

loop_
  _space_group_symop_operation_xyz
  'x, y, z'

loop_
  _atom_site_type_symbol
  _atom_site_label
  _atom_site_symmetry_multiplicity
  _atom_site_fract_x
  _atom_site_fract_y
  _atom_site_fract_z
  _atom_site_occupancy
  Zn  Zn1       1.0  0.00000  0.00000  0.00000  1.0000
  Zn  Zn2       1.0  1.00000  0.00000  0.50000  1.0000
  Zn  Zn3       1.0  0.06891  0.55932  0.82088  1.0000
  Zn  Zn4       1.0  0.44155  0.93057  0.67937  1.0000
  Zn  Zn5       1.0  0.93109  0.44068  0.17912  1.0000
  Zn  Zn6       1.0  0.55844  0.06943  0.32063  1.0000
  H   H1        1.0  0.66765  0.21667  0.99758  1.0000
  H   H2        1.0  0.78379  0.33247  0.50227  1.0000
  H   H3        1.0  0.33236  0.78332  0.00242  1.0000
  H   H4        1.0  0.21621  0.66753  0.49773  1.0000
  H   H5        1.0  0.33690  0.46731  0.66486  1.0000
  H   H6        1.0  0.53385  0.66277  0.83520  1.0000
  H   H7        1.0  0.66310  0.53269  0.33513  1.0000
  H   H8        1.0  0.46615  0.33723  0.16480  1.0000
  H   H9        1.0  0.37146  0.33243  0.59443  1.0000
  H   H10       1.0  0.66809  0.62826  0.90575  1.0000
  H   H11       1.0  0.62854  0.66757  0.40557  1.0000
  H   H12       1.0  0.33190  0.37174  0.09425  1.0000
  H   H13       1.0  0.50104  0.28822  0.66624  1.0000
  H   H14       1.0  0.71224  0.49801  0.83412  1.0000
  H   H15       1.0  0.49896  0.71178  0.33377  1.0000
  H   H16       1.0  0.28775  0.50199  0.16588  1.0000
  H   H17       1.0  0.33350  0.29400  0.93867  1.0000
  H   H18       1.0  0.70548  0.66757  0.56150  1.0000
  H   H19       1.0  0.66650  0.70600  0.06133  1.0000
  H   H20       1.0  0.29452  0.33243  0.43850  1.0000
  H   H21       1.0  0.44105  0.35542  0.84654  1.0000
  H   H22       1.0  0.64508  0.55890  0.65364  1.0000
  H   H23       1.0  0.55895  0.64457  0.15346  1.0000
  H   H24       1.0  0.35492  0.44110  0.34636  1.0000
  H   H25       1.0  0.45855  0.37770  0.94975  1.0000
  H   H26       1.0  0.62290  0.54137  0.55041  1.0000
  H   H27       1.0  0.54145  0.62230  0.05025  1.0000
  H   H28       1.0  0.37710  0.45863  0.44959  1.0000
  H   H29       1.0  0.59181  0.07427  0.80514  1.0000
  H   H30       1.0  0.92558  0.40840  0.69491  1.0000
  H   H31       1.0  0.40818  0.92573  0.19486  1.0000
  H   H32       1.0  0.07442  0.59160  0.30509  1.0000
  H   H33       1.0  0.46227  0.02671  0.88977  1.0000
  H   H34       1.0  0.97264  0.53864  0.61026  1.0000
  H   H35       1.0  0.53773  0.97329  0.11023  1.0000
  H   H36       1.0  0.02736  0.46136  0.38974  1.0000
  H   H37       1.0  0.66607  0.92795  0.89152  1.0000
  H   H38       1.0  0.07117  0.33416  0.60850  1.0000
  H   H39       1.0  0.33393  0.07205  0.10848  1.0000
  H   H40       1.0  0.92883  0.66584  0.39150  1.0000
  H   H41       1.0  0.11005  0.59170  0.96803  1.0000
  H   H42       1.0  0.40795  0.88994  0.53226  1.0000
  H   H43       1.0  0.88996  0.40830  0.03197  1.0000
  H   H44       1.0  0.59205  0.11006  0.46774  1.0000
  H   H45       1.0  0.14242  0.72252  0.89693  1.0000
  H   H46       1.0  0.27751  0.85802  0.60339  1.0000
  H   H47       1.0  0.85758  0.27748  0.10307  1.0000
  H   H48       1.0  0.72250  0.14198  0.39661  1.0000
  C   C1        1.0  0.20805  0.94399  0.82387  1.0000
  C   C2        1.0  0.05456  0.79325  0.67620  1.0000
  C   C3        1.0  0.79195  0.05601  0.17613  1.0000
  C   C4        1.0  0.94544  0.20675  0.32381  1.0000
  C   C5        1.0  0.12135  0.24209  0.83367  1.0000
  C   C6        1.0  0.75767  0.87910  0.66619  1.0000
  C   C7        1.0  0.87865  0.75791  0.16633  1.0000
  C   C8        1.0  0.24233  0.12090  0.33381  1.0000
  C   C9        1.0  0.99768  0.29721  0.90455  1.0000
  C   C10       1.0  0.70263  0.00284  0.59507  1.0000
  C   C11       1.0  0.00232  0.70279  0.09545  1.0000
  C   C12       1.0  0.29737  0.99717  0.40493  1.0000
  C   C13       1.0  0.20053  0.10329  0.79992  1.0000
  C   C14       1.0  0.89599  0.80019  0.70004  1.0000
  C   C15       1.0  0.79947  0.89671  0.20008  1.0000
  C   C16       1.0  0.10401  0.19981  0.29996  1.0000
  C   C17       1.0  0.68053  0.11923  0.96762  1.0000
  C   C18       1.0  0.88081  0.31993  0.53220  1.0000
  C   C19       1.0  0.31947  0.88077  0.03238  1.0000
  C   C20       1.0  0.11919  0.68007  0.46780  1.0000
  C   C21       1.0  0.28796  0.27289  0.72447  1.0000
  C   C22       1.0  0.72748  0.71196  0.77564  1.0000
  C   C23       1.0  0.71204  0.72711  0.27553  1.0000
  C   C24       1.0  0.27252  0.28804  0.22436  1.0000
  C   C25       1.0  0.37868  0.34518  0.65899  1.0000
  C   C26       1.0  0.65552  0.62086  0.84118  1.0000
  C   C27       1.0  0.62132  0.65482  0.34101  1.0000
  C   C28       1.0  0.34448  0.37914  0.15882  1.0000
  C   C29       1.0  0.44386  0.30260  0.91380  1.0000
  C   C30       1.0  0.69750  0.55652  0.58636  1.0000
  C   C31       1.0  0.55614  0.69740  0.08620  1.0000
  C   C32       1.0  0.30250  0.44348  0.41364  1.0000
  C   C33       1.0  0.57245  0.03800  0.87434  1.0000
  C   C34       1.0  0.96151  0.42801  0.62570  1.0000
  C   C35       1.0  0.42755  0.96200  0.12566  1.0000
  C   C36       1.0  0.03849  0.57199  0.37430  1.0000
  N   N1        1.0  0.30423  0.12587  0.73150  1.0000
  N   N2        1.0  0.87380  0.69614  0.76863  1.0000
  N   N3        1.0  0.69577  0.87413  0.26850  1.0000
  N   N4        1.0  0.12620  0.30385  0.23137  1.0000
  N   N5        1.0  0.17890  0.34594  0.78579  1.0000
  N   N6        1.0  0.65448  0.82106  0.71416  1.0000
  N   N7        1.0  0.82109  0.65406  0.21421  1.0000
  N   N8        1.0  0.34552  0.17894  0.28584  1.0000
  N   N9        1.0  0.56922  0.15126  0.92146  1.0000
  N   N10       1.0  0.84857  0.43123  0.57860  1.0000
  N   N11       1.0  0.43078  0.84874  0.07854  1.0000
  N   N12       1.0  0.15143  0.56877  0.42140  1.0000
  O   O1        1.0  0.31435  0.84282  0.78167  1.0000
  O   O2        1.0  0.15537  0.68709  0.71872  1.0000
  O   O3        1.0  0.68565  0.15718  0.21833  1.0000
  O   O4        1.0  0.84463  0.31291  0.28128  1.0000
  O   O5        1.0  0.92099  0.21942  0.94339  1.0000
  O   O6        1.0  0.78025  0.07946  0.55593  1.0000
  O   O7        1.0  0.07901  0.78058  0.05661  1.0000
  O   O8        1.0  0.21975  0.92054  0.44407  1.0000
  O   O9        1.0  0.11424  0.91025  0.88431  1.0000
  O   O10       1.0  0.08841  0.88714  0.61567  1.0000
  O   O11       1.0  0.88577  0.08975  0.11569  1.0000
  O   O12       1.0  0.91158  0.11286  0.38433  1.0000
  O   O13       1.0  0.96820  0.42968  0.92345  1.0000
  O   O14       1.0  0.57050  0.03219  0.57630  1.0000
  O   O15       1.0  0.03181  0.57032  0.07655  1.0000
  O   O16       1.0  0.42949  0.96782  0.42370  1.0000
  O   O17       1.0  0.79160  0.99128  0.97689  1.0000
  O   O18       1.0  0.00864  0.20897  0.52273  1.0000
  O   O19       1.0  0.20840  0.00871  0.02311  1.0000
  O   O20       1.0  0.99136  0.79104  0.47727  1.0000
  O   O21       1.0  0.15076  0.61360  0.90687  1.0000
  O   O22       1.0  0.38596  0.84942  0.59351  1.0000
  O   O23       1.0  0.84924  0.38640  0.09313  1.0000
  O   O24       1.0  0.61404  0.15058  0.40649  1.0000
