data_image0
_chemical_formula_structural       Mn4H32C24N8O24
_chemical_formula_sum              "Mn4 H32 C24 N8 O24"
_cell_length_a       7.4942
_cell_length_b       10.8719
_cell_length_c       12.0648
_cell_angle_alpha    104.564
_cell_angle_beta     90.0004
_cell_angle_gamma    90.0008

_space_group_name_H-M_alt    "P 1"
_space_group_IT_number       1

loop_
  _space_group_symop_operation_xyz
  'x, y, z'

loop_
  _atom_site_type_symbol
  _atom_site_label
  _atom_site_symmetry_multiplicity
  _atom_site_fract_x
  _atom_site_fract_y
  _atom_site_fract_z
  _atom_site_occupancy
  Mn  Mn1       1.0  0.99713  0.43167  0.18609  1.0000
  Mn  Mn2       1.0  0.49712  0.06833  0.31390  1.0000
  Mn  Mn3       1.0  0.00287  0.56834  0.81390  1.0000
  Mn  Mn4       1.0  0.50288  0.93168  0.68610  1.0000
  H   H1        1.0  0.79932  0.53547  0.04683  1.0000
  H   H2        1.0  0.29932  0.96453  0.45318  1.0000
  H   H3        1.0  0.20069  0.46453  0.95317  1.0000
  H   H4        1.0  0.70069  0.03547  0.54682  1.0000
  H   H5        1.0  0.66172  0.51165  0.14035  1.0000
  H   H6        1.0  0.16170  0.98834  0.35965  1.0000
  H   H7        1.0  0.33829  0.48835  0.85965  1.0000
  H   H8        1.0  0.83830  0.01166  0.64035  1.0000
  H   H9        1.0  0.00889  0.69391  0.19247  1.0000
  H   H10       1.0  0.50887  0.80609  0.30753  1.0000
  H   H11       1.0  0.99113  0.30609  0.80753  1.0000
  H   H12       1.0  0.49114  0.19391  0.69247  1.0000
  H   H13       1.0  0.18568  0.66112  0.26211  1.0000
  H   H14       1.0  0.68565  0.83887  0.23789  1.0000
  H   H15       1.0  0.81435  0.33887  0.73789  1.0000
  H   H16       1.0  0.31436  0.16113  0.76211  1.0000
  H   H17       1.0  0.21369  0.98641  0.89325  1.0000
  H   H18       1.0  0.71369  0.51359  0.60675  1.0000
  H   H19       1.0  0.78630  0.01358  0.10676  1.0000
  H   H20       1.0  0.28631  0.48642  0.39325  1.0000
  H   H21       1.0  0.42079  0.81497  0.10351  1.0000
  H   H22       1.0  0.92080  0.68504  0.39649  1.0000
  H   H23       1.0  0.57920  0.18503  0.89650  1.0000
  H   H24       1.0  0.07918  0.31496  0.60350  1.0000
  H   H25       1.0  0.39485  0.79206  0.95223  1.0000
  H   H26       1.0  0.89487  0.70794  0.54777  1.0000
  H   H27       1.0  0.60515  0.20793  0.04778  1.0000
  H   H28       1.0  0.10513  0.29206  0.45222  1.0000
  H   H29       1.0  0.20785  0.78272  0.03715  1.0000
  H   H30       1.0  0.70786  0.71730  0.46284  1.0000
  H   H31       1.0  0.79214  0.21728  0.96286  1.0000
  H   H32       1.0  0.29213  0.28271  0.53715  1.0000
  C   C1        1.0  0.30640  0.97149  0.05624  1.0000
  C   C2        1.0  0.80640  0.52852  0.44376  1.0000
  C   C3        1.0  0.69359  0.02851  0.94377  1.0000
  C   C4        1.0  0.19359  0.47149  0.55624  1.0000
  C   C5        1.0  0.33459  0.83277  0.03601  1.0000
  C   C6        1.0  0.83460  0.66723  0.46399  1.0000
  C   C7        1.0  0.66540  0.16722  0.96401  1.0000
  C   C8        1.0  0.16539  0.33278  0.53600  1.0000
  C   C9        1.0  0.22565  0.15932  0.02945  1.0000
  C   C10       1.0  0.72566  0.34068  0.47055  1.0000
  C   C11       1.0  0.77435  0.84067  0.97055  1.0000
  C   C12       1.0  0.27436  0.65932  0.52945  1.0000
  C   C13       1.0  0.29012  0.17494  0.14086  1.0000
  C   C14       1.0  0.79013  0.32506  0.35914  1.0000
  C   C15       1.0  0.70987  0.82505  0.85915  1.0000
  C   C16       1.0  0.20988  0.67494  0.64085  1.0000
  C   C17       1.0  0.15886  0.24822  0.96501  1.0000
  C   C18       1.0  0.65887  0.25178  0.53498  1.0000
  C   C19       1.0  0.84114  0.75178  0.03499  1.0000
  C   C20       1.0  0.34115  0.74821  0.46501  1.0000
  C   C21       1.0  0.31743  0.28374  0.24208  1.0000
  C   C22       1.0  0.81743  0.21627  0.25792  1.0000
  C   C23       1.0  0.68257  0.71625  0.75792  1.0000
  C   C24       1.0  0.18256  0.78374  0.74208  1.0000
  N   N1        1.0  0.34085  0.05754  0.15476  1.0000
  N   N2        1.0  0.84086  0.44247  0.34524  1.0000
  N   N3        1.0  0.65914  0.94246  0.84525  1.0000
  N   N4        1.0  0.15913  0.55754  0.65475  1.0000
  N   N5        1.0  0.23855  0.03080  0.97910  1.0000
  N   N6        1.0  0.73855  0.46920  0.52089  1.0000
  N   N7        1.0  0.76144  0.96919  0.02090  1.0000
  N   N8        1.0  0.26144  0.53080  0.47911  1.0000
  O   O1        1.0  0.13546  0.20782  0.85720  1.0000
  O   O2        1.0  0.63546  0.29217  0.64280  1.0000
  O   O3        1.0  0.86454  0.79217  0.14281  1.0000
  O   O4        1.0  0.36456  0.70782  0.35720  1.0000
  O   O5        1.0  0.12813  0.36356  0.02050  1.0000
  O   O6        1.0  0.62814  0.13644  0.47949  1.0000
  O   O7        1.0  0.87187  0.63644  0.97950  1.0000
  O   O8        1.0  0.37188  0.86356  0.52050  1.0000
  O   O9        1.0  0.40648  0.25977  0.32381  1.0000
  O   O10       1.0  0.90649  0.24024  0.17619  1.0000
  O   O11       1.0  0.59351  0.74024  0.67619  1.0000
  O   O12       1.0  0.09351  0.75978  0.82380  1.0000
  O   O13       1.0  0.25330  0.39443  0.24809  1.0000
  O   O14       1.0  0.75329  0.10557  0.25190  1.0000
  O   O15       1.0  0.74669  0.60557  0.75190  1.0000
  O   O16       1.0  0.24670  0.89444  0.74809  1.0000
  O   O17       1.0  0.76192  0.47375  0.09260  1.0000
  O   O18       1.0  0.26191  0.02625  0.40740  1.0000
  O   O19       1.0  0.23808  0.52625  0.90740  1.0000
  O   O20       1.0  0.73808  0.97375  0.59260  1.0000
  O   O21       1.0  0.07910  0.62656  0.21607  1.0000
  O   O22       1.0  0.57907  0.87344  0.28392  1.0000
  O   O23       1.0  0.92092  0.37344  0.78393  1.0000
  O   O24       1.0  0.42093  0.12656  0.71608  1.0000
