data_image0
_chemical_formula_structural       Zn6H36C56N4O28
_chemical_formula_sum              "Zn6 H36 C56 N4 O28"
_cell_length_a       10.4274
_cell_length_b       10.6995
_cell_length_c       14.8264
_cell_angle_alpha    87.8104
_cell_angle_beta     85.5029
_cell_angle_gamma    60.8378

_space_group_name_H-M_alt    "P 1"
_space_group_IT_number       1

loop_
  _space_group_symop_operation_xyz
  'x, y, z'

loop_
  _atom_site_type_symbol
  _atom_site_label
  _atom_site_symmetry_multiplicity
  _atom_site_fract_x
  _atom_site_fract_y
  _atom_site_fract_z
  _atom_site_occupancy
  Zn  Zn1       1.0  0.98924  0.61643  0.67065  1.0000
  Zn  Zn2       1.0  0.60568  0.38357  0.17065  1.0000
  Zn  Zn3       1.0  0.01076  0.38357  0.32935  1.0000
  Zn  Zn4       1.0  0.39432  0.61643  0.82935  1.0000
  Zn  Zn5       1.0  0.02278  0.95444  0.75000  1.0000
  Zn  Zn6       1.0  0.97722  0.04556  0.25000  1.0000
  H   H1        1.0  0.81566  0.59130  0.90862  1.0000
  H   H2        1.0  0.40696  0.40870  0.40862  1.0000
  H   H3        1.0  0.18434  0.40870  0.09138  1.0000
  H   H4        1.0  0.59304  0.59130  0.59138  1.0000
  H   H5        1.0  0.79580  0.64747  0.19633  1.0000
  H   H6        1.0  0.44327  0.35253  0.69633  1.0000
  H   H7        1.0  0.20420  0.35253  0.80367  1.0000
  H   H8        1.0  0.55673  0.64748  0.30367  1.0000
  H   H9        1.0  0.96904  0.86045  0.01351  1.0000
  H   H10       1.0  0.82949  0.13955  0.51351  1.0000
  H   H11       1.0  0.03096  0.13955  0.98649  1.0000
  H   H12       1.0  0.17051  0.86045  0.48649  1.0000
  H   H13       1.0  0.70391  0.82312  0.72677  1.0000
  H   H14       1.0  0.52703  0.17688  0.22677  1.0000
  H   H15       1.0  0.29609  0.17688  0.27323  1.0000
  H   H16       1.0  0.47297  0.82312  0.77323  1.0000
  H   H17       1.0  0.46802  0.98738  0.65881  1.0000
  H   H18       1.0  0.45540  0.01261  0.15881  1.0000
  H   H19       1.0  0.53198  0.01262  0.34119  1.0000
  H   H20       1.0  0.54460  0.98738  0.84119  1.0000
  H   H21       1.0  0.71945  0.89907  0.39872  1.0000
  H   H22       1.0  0.61852  0.10093  0.89872  1.0000
  H   H23       1.0  0.28055  0.10093  0.60128  1.0000
  H   H24       1.0  0.38148  0.89907  0.10128  1.0000
  H   H25       1.0  0.93977  0.74223  0.47904  1.0000
  H   H26       1.0  0.68199  0.25777  0.97904  1.0000
  H   H27       1.0  0.06023  0.25777  0.52096  1.0000
  H   H28       1.0  0.31800  0.74223  0.02096  1.0000
  H   H29       1.0  0.98010  0.37518  0.68946  1.0000
  H   H30       1.0  0.35529  0.62482  0.18946  1.0000
  H   H31       1.0  0.01990  0.62482  0.31054  1.0000
  H   H32       1.0  0.64471  0.37518  0.81054  1.0000
  H   H33       1.0  0.88000  0.46848  0.60674  1.0000
  H   H34       1.0  0.34848  0.53151  0.10674  1.0000
  H   H35       1.0  0.12000  0.53152  0.39326  1.0000
  H   H36       1.0  0.65152  0.46849  0.89326  1.0000
  C   C1        1.0  0.89855  0.72709  0.95177  1.0000
  C   C2        1.0  0.62564  0.27291  0.45177  1.0000
  C   C3        1.0  0.10145  0.27291  0.04823  1.0000
  C   C4        1.0  0.37436  0.72709  0.54823  1.0000
  C   C5        1.0  0.83418  0.63934  0.96615  1.0000
  C   C6        1.0  0.47352  0.36066  0.46615  1.0000
  C   C7        1.0  0.16582  0.36066  0.03385  1.0000
  C   C8        1.0  0.52648  0.63934  0.53385  1.0000
  C   C9        1.0  0.79636  0.61169  0.05396  1.0000
  C   C10       1.0  0.40806  0.38831  0.55396  1.0000
  C   C11       1.0  0.20364  0.38831  0.94604  1.0000
  C   C12       1.0  0.59194  0.61169  0.44604  1.0000
  C   C13       1.0  0.82369  0.67144  0.12788  1.0000
  C   C14       1.0  0.49513  0.32856  0.62789  1.0000
  C   C15       1.0  0.17631  0.32856  0.87212  1.0000
  C   C16       1.0  0.50487  0.67144  0.37211  1.0000
  C   C17       1.0  0.88436  0.76244  0.11383  1.0000
  C   C18       1.0  0.64679  0.23756  0.61383  1.0000
  C   C19       1.0  0.11564  0.23756  0.88617  1.0000
  C   C20       1.0  0.35321  0.76244  0.38617  1.0000
  C   C21       1.0  0.92151  0.79007  0.02530  1.0000
  C   C22       1.0  0.71158  0.20993  0.52530  1.0000
  C   C23       1.0  0.07849  0.20993  0.97470  1.0000
  C   C24       1.0  0.28842  0.79007  0.47470  1.0000
  C   C25       1.0  0.94223  0.75279  0.85743  1.0000
  C   C26       1.0  0.69502  0.24721  0.35743  1.0000
  C   C27       1.0  0.05777  0.24721  0.14257  1.0000
  C   C28       1.0  0.30498  0.75279  0.64257  1.0000
  C   C29       1.0  0.72869  0.51701  0.06901  1.0000
  C   C30       1.0  0.24570  0.48299  0.56901  1.0000
  C   C31       1.0  0.27131  0.48299  0.93099  1.0000
  C   C32       1.0  0.75430  0.51701  0.43099  1.0000
  C   C33       1.0  0.90636  0.83374  0.19228  1.0000
  C   C34       1.0  0.74010  0.16627  0.69228  1.0000
  C   C35       1.0  0.09364  0.16627  0.80772  1.0000
  C   C36       1.0  0.25990  0.83374  0.30772  1.0000
  C   C37       1.0  0.69934  0.84526  0.65448  1.0000
  C   C38       1.0  0.54460  0.15474  0.15448  1.0000
  C   C39       1.0  0.30066  0.15474  0.34552  1.0000
  C   C40       1.0  0.45540  0.84526  0.84552  1.0000
  C   C41       1.0  0.56927  0.93542  0.61565  1.0000
  C   C42       1.0  0.50469  0.06458  0.11566  1.0000
  C   C43       1.0  0.43073  0.06458  0.38434  1.0000
  C   C44       1.0  0.49531  0.93542  0.88435  1.0000
  C   C45       1.0  0.56952  0.95568  0.52164  1.0000
  C   C46       1.0  0.52521  0.04431  0.02164  1.0000
  C   C47       1.0  0.43048  0.04432  0.47836  1.0000
  C   C48       1.0  0.47479  0.95568  0.97836  1.0000
  C   C49       1.0  0.70614  0.88816  0.47169  1.0000
  C   C50       1.0  0.59431  0.11184  0.97169  1.0000
  C   C51       1.0  0.29386  0.11184  0.52831  1.0000
  C   C52       1.0  0.40569  0.88816  0.02831  1.0000
  C   C53       1.0  0.83235  0.79943  0.51549  1.0000
  C   C54       1.0  0.63177  0.20057  0.01549  1.0000
  C   C55       1.0  0.16765  0.20057  0.48451  1.0000
  C   C56       1.0  0.36822  0.79943  0.98451  1.0000
  N   N1        1.0  0.82850  0.77606  0.60512  1.0000
  N   N2        1.0  0.60456  0.22394  0.10512  1.0000
  N   N3        1.0  0.17150  0.22394  0.39488  1.0000
  N   N4        1.0  0.39544  0.77606  0.89488  1.0000
  O   O1        1.0  0.91884  0.68929  0.79496  1.0000
  O   O2        1.0  0.60813  0.31071  0.29496  1.0000
  O   O3        1.0  0.08116  0.31071  0.20504  1.0000
  O   O4        1.0  0.39187  0.68929  0.70504  1.0000
  O   O5        1.0  0.99658  0.83630  0.84768  1.0000
  O   O6        1.0  0.83289  0.16370  0.34768  1.0000
  O   O7        1.0  0.00342  0.16369  0.15232  1.0000
  O   O8        1.0  0.16712  0.83630  0.65232  1.0000
  O   O9        1.0  0.71209  0.48733  0.15320  1.0000
  O   O10       1.0  0.19942  0.51267  0.65320  1.0000
  O   O11       1.0  0.28791  0.51267  0.84680  1.0000
  O   O12       1.0  0.80058  0.48733  0.34680  1.0000
  O   O13       1.0  0.69168  0.47077  0.00469  1.0000
  O   O14       1.0  0.16245  0.52923  0.50470  1.0000
  O   O15       1.0  0.30833  0.52923  0.99531  1.0000
  O   O16       1.0  0.83755  0.47077  0.49530  1.0000
  O   O17       1.0  0.91733  0.94598  0.17013  1.0000
  O   O18       1.0  0.86332  0.05402  0.67013  1.0000
  O   O19       1.0  0.08266  0.05402  0.82987  1.0000
  O   O20       1.0  0.13669  0.94598  0.32987  1.0000
  O   O21       1.0  0.90953  0.78643  0.27177  1.0000
  O   O22       1.0  0.69596  0.21357  0.77177  1.0000
  O   O23       1.0  0.09047  0.21357  0.72823  1.0000
  O   O24       1.0  0.30404  0.78643  0.22823  1.0000
  O   O25       1.0  0.91380  0.47412  0.66656  1.0000
  O   O26       1.0  0.38792  0.52588  0.16656  1.0000
  O   O27       1.0  0.08620  0.52588  0.33344  1.0000
  O   O28       1.0  0.61208  0.47412  0.83344  1.0000
