data_image0
_chemical_formula_structural       Nd2H32C18O16
_chemical_formula_sum              "Nd2 H32 C18 O16"
_cell_length_a       9.03126
_cell_length_b       9.85211
_cell_length_c       10.3319
_cell_angle_alpha    68.3826
_cell_angle_beta     78.5754
_cell_angle_gamma    58.4009

_space_group_name_H-M_alt    "P 1"
_space_group_IT_number       1

loop_
  _space_group_symop_operation_xyz
  'x, y, z'

loop_
  _atom_site_type_symbol
  _atom_site_label
  _atom_site_symmetry_multiplicity
  _atom_site_fract_x
  _atom_site_fract_y
  _atom_site_fract_z
  _atom_site_occupancy
  Nd  Nd1       1.0  0.78247  0.46058  0.00962  1.0000
  Nd  Nd2       1.0  0.21753  0.53942  0.99039  1.0000
  H   H1        1.0  0.62942  0.92747  0.15489  1.0000
  H   H2        1.0  0.37058  0.07254  0.84510  1.0000
  H   H3        1.0  0.54686  0.96664  0.31491  1.0000
  H   H4        1.0  0.45314  0.03336  0.68508  1.0000
  H   H5        1.0  0.53773  0.69777  0.41609  1.0000
  H   H6        1.0  0.46226  0.30225  0.58392  1.0000
  H   H7        1.0  0.63173  0.64975  0.26148  1.0000
  H   H8        1.0  0.36826  0.35026  0.73853  1.0000
  H   H9        1.0  0.48968  0.48347  0.39814  1.0000
  H   H10       1.0  0.51031  0.51654  0.60188  1.0000
  H   H11       1.0  0.28508  0.66780  0.38801  1.0000
  H   H12       1.0  0.71491  0.33221  0.61200  1.0000
  H   H13       1.0  0.07750  0.24206  0.46835  1.0000
  H   H14       1.0  0.92251  0.75791  0.53164  1.0000
  H   H15       1.0  0.19215  0.34392  0.35277  1.0000
  H   H16       1.0  0.80786  0.65606  0.64724  1.0000
  H   H17       1.0  0.27960  0.95618  0.28072  1.0000
  H   H18       1.0  0.72039  0.04383  0.71927  1.0000
  H   H19       1.0  0.37798  0.90640  0.12573  1.0000
  H   H20       1.0  0.62204  0.09359  0.87426  1.0000
  H   H21       1.0  0.16764  0.18231  0.02693  1.0000
  H   H22       1.0  0.83236  0.81770  0.97307  1.0000
  H   H23       1.0  0.05324  0.08938  0.07339  1.0000
  H   H24       1.0  0.94677  0.91063  0.92660  1.0000
  H   H25       1.0  0.78682  0.20156  0.24726  1.0000
  H   H26       1.0  0.21317  0.79844  0.75274  1.0000
  H   H27       1.0  0.63323  0.22354  0.17451  1.0000
  H   H28       1.0  0.36677  0.77646  0.82548  1.0000
  H   H29       1.0  0.82686  0.52125  0.47413  1.0000
  H   H30       1.0  0.17315  0.47872  0.52588  1.0000
  H   H31       1.0  0.93545  0.62403  0.35375  1.0000
  H   H32       1.0  0.06456  0.37593  0.64627  1.0000
  C   C1        1.0  0.37862  0.60241  0.20012  1.0000
  C   C2        1.0  0.62137  0.39762  0.79987  1.0000
  C   C3        1.0  0.50812  0.98394  0.21315  1.0000
  C   C4        1.0  0.49187  0.01607  0.78685  1.0000
  C   C5        1.0  0.50661  0.70956  0.31330  1.0000
  C   C6        1.0  0.49338  0.29046  0.68670  1.0000
  C   C7        1.0  0.97281  0.38430  0.26305  1.0000
  C   C8        1.0  0.02721  0.61570  0.73692  1.0000
  C   C9        1.0  0.40967  0.61444  0.33345  1.0000
  C   C10       1.0  0.59032  0.38558  0.66656  1.0000
  C   C11       1.0  0.06306  0.35722  0.38562  1.0000
  C   C12       1.0  0.93696  0.64276  0.61439  1.0000
  C   C13       1.0  0.41160  0.16960  0.13587  1.0000
  C   C14       1.0  0.58841  0.83041  0.86412  1.0000
  C   C15       1.0  0.40565  0.89486  0.22942  1.0000
  C   C16       1.0  0.59435  0.10514  0.77057  1.0000
  C   C17       1.0  0.95537  0.50898  0.43970  1.0000
  C   C18       1.0  0.04464  0.49098  0.56032  1.0000
  O   O1        1.0  0.50253  0.56890  0.11153  1.0000
  O   O2        1.0  0.49748  0.43109  0.88848  1.0000
  O   O3        1.0  0.00091  0.46651  0.14002  1.0000
  O   O4        1.0  0.99909  0.53350  0.86000  1.0000
  O   O5        1.0  0.31583  0.22620  0.03186  1.0000
  O   O6        1.0  0.68417  0.77379  0.96814  1.0000
  O   O7        1.0  0.23295  0.62135  0.18215  1.0000
  O   O8        1.0  0.76705  0.37865  0.81786  1.0000
  O   O9        1.0  0.42628  0.27174  0.17414  1.0000
  O   O10       1.0  0.57372  0.72826  0.82586  1.0000
  O   O11       1.0  0.86357  0.33517  0.27972  1.0000
  O   O12       1.0  0.13642  0.66486  0.72027  1.0000
  O   O13       1.0  0.05530  0.19118  0.01411  1.0000
  O   O14       1.0  0.94470  0.80883  0.98588  1.0000
  O   O15       1.0  0.75599  0.20097  0.16178  1.0000
  O   O16       1.0  0.24401  0.79904  0.83821  1.0000
