data_image0
_chemical_formula_structural       Cd4H48C56S8N16O8
_chemical_formula_sum              "Cd4 H48 C56 S8 N16 O8"
_cell_length_a       8.24234
_cell_length_b       8.74162
_cell_length_c       22.2579
_cell_angle_alpha    90
_cell_angle_beta     90
_cell_angle_gamma    90

_space_group_name_H-M_alt    "P 1"
_space_group_IT_number       1

loop_
  _space_group_symop_operation_xyz
  'x, y, z'

loop_
  _atom_site_type_symbol
  _atom_site_label
  _atom_site_symmetry_multiplicity
  _atom_site_fract_x
  _atom_site_fract_y
  _atom_site_fract_z
  _atom_site_occupancy
  Cd  Cd1       1.0  0.05938  0.32231  0.60043  1.0000
  Cd  Cd2       1.0  0.44063  0.67770  0.10043  1.0000
  Cd  Cd3       1.0  0.94063  0.82230  0.89956  1.0000
  Cd  Cd4       1.0  0.55937  0.17770  0.39956  1.0000
  H   H1        1.0  0.00527  0.40248  0.45038  1.0000
  H   H2        1.0  0.49471  0.59752  0.95038  1.0000
  H   H3        1.0  0.99471  0.90247  0.04962  1.0000
  H   H4        1.0  0.50528  0.09753  0.54962  1.0000
  H   H5        1.0  0.88174  0.60026  0.38446  1.0000
  H   H6        1.0  0.61825  0.39975  0.88446  1.0000
  H   H7        1.0  0.11824  0.10025  0.11554  1.0000
  H   H8        1.0  0.38175  0.89975  0.61554  1.0000
  H   H9        1.0  0.71088  0.80783  0.43310  1.0000
  H   H10       1.0  0.78912  0.19218  0.93309  1.0000
  H   H11       1.0  0.28911  0.30783  0.06691  1.0000
  H   H12       1.0  0.21089  0.69217  0.56691  1.0000
  H   H13       1.0  0.66831  0.79881  0.54413  1.0000
  H   H14       1.0  0.83169  0.20119  0.04413  1.0000
  H   H15       1.0  0.33168  0.29881  0.95587  1.0000
  H   H16       1.0  0.16832  0.70119  0.45587  1.0000
  H   H17       1.0  0.81365  0.84946  0.68471  1.0000
  H   H18       1.0  0.68634  0.15054  0.18471  1.0000
  H   H19       1.0  0.18635  0.34947  0.81529  1.0000
  H   H20       1.0  0.31366  0.65053  0.31529  1.0000
  H   H21       1.0  0.06526  0.93728  0.73923  1.0000
  H   H22       1.0  0.43473  0.06273  0.23924  1.0000
  H   H23       1.0  0.93474  0.43729  0.76077  1.0000
  H   H24       1.0  0.56527  0.56272  0.26077  1.0000
  H   H25       1.0  0.30766  0.76402  0.74160  1.0000
  H   H26       1.0  0.19233  0.23599  0.24160  1.0000
  H   H27       1.0  0.69234  0.26403  0.75840  1.0000
  H   H28       1.0  0.80767  0.73598  0.25840  1.0000
  H   H29       1.0  0.29355  0.51472  0.68652  1.0000
  H   H30       1.0  0.20645  0.48528  0.18652  1.0000
  H   H31       1.0  0.70645  0.01472  0.81348  1.0000
  H   H32       1.0  0.79356  0.98527  0.31348  1.0000
  H   H33       1.0  0.52141  0.38525  0.63836  1.0000
  H   H34       1.0  0.97858  0.61474  0.13836  1.0000
  H   H35       1.0  0.47859  0.88525  0.86164  1.0000
  H   H36       1.0  0.02142  0.11475  0.36164  1.0000
  H   H37       1.0  0.64540  0.22025  0.62986  1.0000
  H   H38       1.0  0.85460  0.77974  0.12986  1.0000
  H   H39       1.0  0.35460  0.72025  0.87014  1.0000
  H   H40       1.0  0.14541  0.27975  0.37014  1.0000
  H   H41       1.0  0.62111  0.34990  0.56762  1.0000
  H   H42       1.0  0.87888  0.65009  0.06762  1.0000
  H   H43       1.0  0.37888  0.84990  0.93239  1.0000
  H   H44       1.0  0.12114  0.15009  0.43239  1.0000
  H   H45       1.0  0.55607  0.64264  0.61203  1.0000
  H   H46       1.0  0.94393  0.35735  0.11203  1.0000
  H   H47       1.0  0.44393  0.14264  0.88797  1.0000
  H   H48       1.0  0.05608  0.85736  0.38797  1.0000
  C   C1        1.0  0.92763  0.49097  0.46933  1.0000
  C   C2        1.0  0.57236  0.50904  0.96933  1.0000
  C   C3        1.0  0.07236  0.99096  0.03067  1.0000
  C   C4        1.0  0.42763  0.00904  0.53067  1.0000
  C   C5        1.0  0.85916  0.60339  0.43279  1.0000
  C   C6        1.0  0.64083  0.39661  0.93279  1.0000
  C   C7        1.0  0.14083  0.10338  0.06721  1.0000
  C   C8        1.0  0.35917  0.89661  0.56721  1.0000
  C   C9        1.0  0.76483  0.71640  0.45967  1.0000
  C   C10       1.0  0.73516  0.28361  0.95967  1.0000
  C   C11       1.0  0.23515  0.21640  0.04033  1.0000
  C   C12       1.0  0.26484  0.78360  0.54033  1.0000
  C   C13       1.0  0.73956  0.71137  0.52156  1.0000
  C   C14       1.0  0.76043  0.28863  0.02156  1.0000
  C   C15       1.0  0.26043  0.21137  0.97844  1.0000
  C   C16       1.0  0.23958  0.78863  0.47844  1.0000
  C   C17       1.0  0.80744  0.59154  0.55440  1.0000
  C   C18       1.0  0.69255  0.40846  0.05440  1.0000
  C   C19       1.0  0.19256  0.09153  0.94560  1.0000
  C   C20       1.0  0.30745  0.90846  0.44560  1.0000
  C   C21       1.0  0.78025  0.57650  0.62248  1.0000
  C   C22       1.0  0.71975  0.42350  0.12248  1.0000
  C   C23       1.0  0.21975  0.07650  0.87752  1.0000
  C   C24       1.0  0.28026  0.92350  0.37752  1.0000
  C   C25       1.0  0.92644  0.63947  0.65646  1.0000
  C   C26       1.0  0.57355  0.36053  0.15646  1.0000
  C   C27       1.0  0.07356  0.13948  0.84354  1.0000
  C   C28       1.0  0.42645  0.86052  0.34354  1.0000
  C   C29       1.0  0.92332  0.78040  0.68563  1.0000
  C   C30       1.0  0.57667  0.21959  0.18563  1.0000
  C   C31       1.0  0.07668  0.28041  0.81438  1.0000
  C   C32       1.0  0.42333  0.71959  0.31437  1.0000
  C   C33       1.0  0.06232  0.82753  0.71621  1.0000
  C   C34       1.0  0.43768  0.17247  0.21621  1.0000
  C   C35       1.0  0.93768  0.32754  0.78379  1.0000
  C   C36       1.0  0.56232  0.67246  0.28379  1.0000
  C   C37       1.0  0.19782  0.73217  0.71761  1.0000
  C   C38       1.0  0.30218  0.26783  0.21761  1.0000
  C   C39       1.0  0.80219  0.23218  0.78239  1.0000
  C   C40       1.0  0.69782  0.76783  0.28239  1.0000
  C   C41       1.0  0.19136  0.59407  0.68666  1.0000
  C   C42       1.0  0.30863  0.40593  0.18666  1.0000
  C   C43       1.0  0.80864  0.09408  0.81334  1.0000
  C   C44       1.0  0.69137  0.90592  0.31334  1.0000
  C   C45       1.0  0.63128  0.34022  0.61681  1.0000
  C   C46       1.0  0.86871  0.65977  0.11680  1.0000
  C   C47       1.0  0.36871  0.84022  0.88320  1.0000
  C   C48       1.0  0.13130  0.15978  0.38320  1.0000
  C   C49       1.0  0.32268  0.13548  0.68927  1.0000
  C   C50       1.0  0.17733  0.86452  0.18927  1.0000
  C   C51       1.0  0.67733  0.63548  0.81072  1.0000
  C   C52       1.0  0.82267  0.36451  0.31073  1.0000
  C   C53       1.0  0.34211  0.40091  0.49188  1.0000
  C   C54       1.0  0.15789  0.59909  0.99188  1.0000
  C   C55       1.0  0.65789  0.90090  0.00812  1.0000
  C   C56       1.0  0.84211  0.09910  0.50812  1.0000
  S   S1        1.0  0.47382  0.03487  0.71301  1.0000
  S   S2        1.0  0.02618  0.96513  0.21301  1.0000
  S   S3        1.0  0.52618  0.53487  0.78699  1.0000
  S   S4        1.0  0.97382  0.46512  0.28700  1.0000
  S   S5        1.0  0.44170  0.44426  0.43080  1.0000
  S   S6        1.0  0.05830  0.55574  0.93080  1.0000
  S   S7        1.0  0.55830  0.94425  0.06919  1.0000
  S   S8        1.0  0.94170  0.05575  0.56920  1.0000
  N   N1        1.0  0.90303  0.48497  0.52890  1.0000
  N   N2        1.0  0.59696  0.51503  0.02890  1.0000
  N   N3        1.0  0.09696  0.98496  0.97110  1.0000
  N   N4        1.0  0.40304  0.01504  0.47110  1.0000
  N   N5        1.0  0.05900  0.54975  0.65599  1.0000
  N   N6        1.0  0.44099  0.45025  0.15599  1.0000
  N   N7        1.0  0.94100  0.04975  0.84401  1.0000
  N   N8        1.0  0.55901  0.95024  0.34401  1.0000
  N   N9        1.0  0.20977  0.20812  0.67182  1.0000
  N   N10       1.0  0.29024  0.79188  0.17182  1.0000
  N   N11       1.0  0.79024  0.70812  0.82818  1.0000
  N   N12       1.0  0.70975  0.29188  0.32818  1.0000
  N   N13       1.0  0.27056  0.37517  0.53679  1.0000
  N   N14       1.0  0.22943  0.62484  0.03679  1.0000
  N   N15       1.0  0.72944  0.87515  0.96321  1.0000
  N   N16       1.0  0.77056  0.12486  0.46321  1.0000
  O   O1        1.0  0.77297  0.41769  0.63891  1.0000
  O   O2        1.0  0.72702  0.58230  0.13891  1.0000
  O   O3        1.0  0.22703  0.91769  0.86109  1.0000
  O   O4        1.0  0.27298  0.08230  0.36109  1.0000
  O   O5        1.0  0.64336  0.65889  0.64090  1.0000
  O   O6        1.0  0.85663  0.34111  0.14090  1.0000
  O   O7        1.0  0.35664  0.15889  0.85910  1.0000
  O   O8        1.0  0.14337  0.84111  0.35910  1.0000
