data_image0
_chemical_formula_structural       Zn2H26C40N8Cl2O6
_chemical_formula_sum              "Zn2 H26 C40 N8 Cl2 O6"
_cell_length_a       6.8579
_cell_length_b       9.27185
_cell_length_c       13.2161
_cell_angle_alpha    90.9461
_cell_angle_beta     90
_cell_angle_gamma    89.9997

_space_group_name_H-M_alt    "P 1"
_space_group_IT_number       1

loop_
  _space_group_symop_operation_xyz
  'x, y, z'

loop_
  _atom_site_type_symbol
  _atom_site_label
  _atom_site_symmetry_multiplicity
  _atom_site_fract_x
  _atom_site_fract_y
  _atom_site_fract_z
  _atom_site_occupancy
  Zn  Zn1       1.0  0.61116  0.50396  0.20655  1.0000
  Zn  Zn2       1.0  0.11116  0.49604  0.79345  1.0000
  H   H1        1.0  0.08789  0.67646  0.26322  1.0000
  H   H2        1.0  0.58790  0.32354  0.73678  1.0000
  H   H3        1.0  0.14253  0.82040  0.87323  1.0000
  H   H4        1.0  0.64252  0.17960  0.12677  1.0000
  H   H5        1.0  0.21478  0.05996  0.79467  1.0000
  H   H6        1.0  0.71478  0.94004  0.20533  1.0000
  H   H7        1.0  0.23134  0.07312  0.60498  1.0000
  H   H8        1.0  0.73134  0.92688  0.39501  1.0000
  H   H9        1.0  0.09599  0.43257  0.34040  1.0000
  H   H10       1.0  0.59599  0.56743  0.65960  1.0000
  H   H11       1.0  0.08472  0.21013  0.44776  1.0000
  H   H12       1.0  0.58472  0.78987  0.55224  1.0000
  H   H13       1.0  0.05366  0.24246  0.63649  1.0000
  H   H14       1.0  0.55366  0.75754  0.36351  1.0000
  H   H15       1.0  0.08985  0.15859  0.28432  1.0000
  H   H16       1.0  0.58985  0.84141  0.71568  1.0000
  H   H17       1.0  0.13611  0.30442  0.13047  1.0000
  H   H18       1.0  0.63611  0.69558  0.86953  1.0000
  H   H19       1.0  0.28024  0.18998  0.97545  1.0000
  H   H20       1.0  0.78024  0.81002  0.02456  1.0000
  H   H21       1.0  0.36373  0.92805  0.97584  1.0000
  H   H22       1.0  0.86374  0.07195  0.02416  1.0000
  H   H23       1.0  0.60217  0.39447  0.02190  1.0000
  H   H24       1.0  0.10217  0.60554  0.97811  1.0000
  H   H25       1.0  0.43223  0.51399  0.04271  1.0000
  H   H26       1.0  0.93223  0.48601  0.95729  1.0000
  C   C1        1.0  0.14852  0.83178  0.79140  1.0000
  C   C2        1.0  0.64851  0.16822  0.20860  1.0000
  C   C3        1.0  0.18853  0.96515  0.74693  1.0000
  C   C4        1.0  0.68852  0.03485  0.25307  1.0000
  C   C5        1.0  0.19410  0.97338  0.64256  1.0000
  C   C6        1.0  0.69410  0.02661  0.35744  1.0000
  C   C7        1.0  0.15415  0.84978  0.58282  1.0000
  C   C8        1.0  0.65414  0.15022  0.41718  1.0000
  C   C9        1.0  0.15066  0.84450  0.47444  1.0000
  C   C10       1.0  0.65065  0.15549  0.52555  1.0000
  C   C11       1.0  0.11636  0.71326  0.42249  1.0000
  C   C12       1.0  0.61635  0.28674  0.57751  1.0000
  C   C13       1.0  0.09637  0.57795  0.47101  1.0000
  C   C14       1.0  0.59637  0.42205  0.52899  1.0000
  C   C15       1.0  0.09174  0.44070  0.42289  1.0000
  C   C16       1.0  0.59174  0.55930  0.57711  1.0000
  C   C17       1.0  0.08251  0.31840  0.48143  1.0000
  C   C18       1.0  0.58251  0.68160  0.51857  1.0000
  C   C19       1.0  0.07151  0.33423  0.58706  1.0000
  C   C20       1.0  0.57151  0.66577  0.41294  1.0000
  C   C21       1.0  0.12019  0.71867  0.63405  1.0000
  C   C22       1.0  0.62018  0.28133  0.36595  1.0000
  C   C23       1.0  0.09580  0.58338  0.57867  1.0000
  C   C24       1.0  0.59580  0.41662  0.42133  1.0000
  C   C25       1.0  0.17386  0.88895  0.31481  1.0000
  C   C26       1.0  0.67386  0.11105  0.68519  1.0000
  C   C27       1.0  0.20353  0.96271  0.21886  1.0000
  C   C28       1.0  0.70353  0.03729  0.78114  1.0000
  C   C29       1.0  0.15203  0.10956  0.21625  1.0000
  C   C30       1.0  0.65203  0.89045  0.78375  1.0000
  C   C31       1.0  0.17766  0.19105  0.12990  1.0000
  C   C32       1.0  0.67766  0.80895  0.87010  1.0000
  C   C33       1.0  0.25498  0.12603  0.04274  1.0000
  C   C34       1.0  0.75498  0.87397  0.95726  1.0000
  C   C35       1.0  0.30147  0.97986  0.04287  1.0000
  C   C36       1.0  0.80147  0.02014  0.95713  1.0000
  C   C37       1.0  0.27905  0.89630  0.12969  1.0000
  C   C38       1.0  0.77905  0.10370  0.87031  1.0000
  C   C39       1.0  0.35626  0.74391  0.12097  1.0000
  C   C40       1.0  0.85626  0.25609  0.87903  1.0000
  N   N1        1.0  0.11856  0.71234  0.73635  1.0000
  N   N2        1.0  0.61856  0.28766  0.26365  1.0000
  N   N3        1.0  0.07976  0.46242  0.63392  1.0000
  N   N4        1.0  0.57976  0.53758  0.36608  1.0000
  N   N5        1.0  0.18577  0.95257  0.40684  1.0000
  N   N6        1.0  0.68577  0.04743  0.59316  1.0000
  N   N7        1.0  0.13000  0.74520  0.32200  1.0000
  N   N8        1.0  0.62999  0.25481  0.67800  1.0000
  Cl  Cl1       1.0  0.93320  0.54063  0.17017  1.0000
  Cl  Cl2       1.0  0.43320  0.45936  0.82983  1.0000
  O   O1        1.0  0.46847  0.70150  0.19203  1.0000
  O   O2        1.0  0.96847  0.29850  0.80797  1.0000
  O   O3        1.0  0.31424  0.67133  0.04179  1.0000
  O   O4        1.0  0.81425  0.32867  0.95821  1.0000
  O   O5        1.0  0.50270  0.42859  0.07114  1.0000
  O   O6        1.0  0.00269  0.57141  0.92886  1.0000
