data_image0
_chemical_formula_structural       Cu4H40C28N32
_chemical_formula_sum              "Cu4 H40 C28 N32"
_cell_length_a       7.47247
_cell_length_b       7.45901
_cell_length_c       20.747
_cell_angle_alpha    84.4503
_cell_angle_beta     84.4603
_cell_angle_gamma    67.9985

_space_group_name_H-M_alt    "P 1"
_space_group_IT_number       1

loop_
  _space_group_symop_operation_xyz
  'x, y, z'

loop_
  _atom_site_type_symbol
  _atom_site_label
  _atom_site_symmetry_multiplicity
  _atom_site_fract_x
  _atom_site_fract_y
  _atom_site_fract_z
  _atom_site_occupancy
  Cu  Cu1       1.0  0.82595  0.55495  0.68164  1.0000
  Cu  Cu2       1.0  0.55495  0.82554  0.18155  1.0000
  Cu  Cu3       1.0  0.17406  0.44503  0.31836  1.0000
  Cu  Cu4       1.0  0.44504  0.17446  0.81844  1.0000
  H   H1        1.0  0.48236  0.80725  0.67540  1.0000
  H   H2        1.0  0.80773  0.48172  0.17557  1.0000
  H   H3        1.0  0.51765  0.19274  0.32460  1.0000
  H   H4        1.0  0.19223  0.51828  0.82442  1.0000
  H   H5        1.0  0.60550  0.89489  0.71591  1.0000
  H   H6        1.0  0.89432  0.60606  0.21596  1.0000
  H   H7        1.0  0.39452  0.10510  0.28410  1.0000
  H   H8        1.0  0.10565  0.39393  0.78404  1.0000
  H   H9        1.0  0.98949  0.59242  0.57090  1.0000
  H   H10       1.0  0.59234  0.98964  0.07082  1.0000
  H   H11       1.0  0.01052  0.40759  0.42911  1.0000
  H   H12       1.0  0.40766  0.01036  0.92918  1.0000
  H   H13       1.0  0.83045  0.49356  0.55989  1.0000
  H   H14       1.0  0.49388  0.83013  0.05981  1.0000
  H   H15       1.0  0.16957  0.50644  0.44011  1.0000
  H   H16       1.0  0.50612  0.16988  0.94018  1.0000
  H   H17       1.0  0.52511  0.05614  0.60383  1.0000
  H   H18       1.0  0.05559  0.52492  0.10391  1.0000
  H   H19       1.0  0.47489  0.94386  0.39618  1.0000
  H   H20       1.0  0.94440  0.47508  0.89609  1.0000
  H   H21       1.0  0.77086  0.97339  0.62257  1.0000
  H   H22       1.0  0.97269  0.77117  0.12254  1.0000
  H   H23       1.0  0.22913  0.02661  0.37744  1.0000
  H   H24       1.0  0.02730  0.22882  0.87746  1.0000
  H   H25       1.0  0.57910  0.76307  0.54968  1.0000
  H   H26       1.0  0.76318  0.57849  0.04971  1.0000
  H   H27       1.0  0.42090  0.23693  0.45032  1.0000
  H   H28       1.0  0.23682  0.42152  0.95028  1.0000
  H   H29       1.0  0.68760  0.02303  0.48574  1.0000
  H   H30       1.0  0.02235  0.68762  0.98578  1.0000
  H   H31       1.0  0.31240  0.97699  0.51427  1.0000
  H   H32       1.0  0.97765  0.31239  0.01423  1.0000
  H   H33       1.0  0.80756  0.78521  0.45859  1.0000
  H   H34       1.0  0.78491  0.80741  0.95860  1.0000
  H   H35       1.0  0.19245  0.21481  0.54142  1.0000
  H   H36       1.0  0.21510  0.19260  0.04140  1.0000
  H   H37       1.0  0.92619  0.88333  0.50767  1.0000
  H   H38       1.0  0.88255  0.92655  0.00766  1.0000
  H   H39       1.0  0.07382  0.11668  0.49233  1.0000
  H   H40       1.0  0.11746  0.07344  0.99234  1.0000
  C   C1        1.0  0.65205  0.92598  0.61544  1.0000
  C   C2        1.0  0.92555  0.65201  0.11546  1.0000
  C   C3        1.0  0.34795  0.07402  0.38457  1.0000
  C   C4        1.0  0.07444  0.34798  0.88454  1.0000
  C   C5        1.0  0.70761  0.79081  0.56018  1.0000
  C   C6        1.0  0.79060  0.70737  0.06020  1.0000
  C   C7        1.0  0.29240  0.20919  0.43982  1.0000
  C   C8        1.0  0.20939  0.29263  0.93980  1.0000
  C   C9        1.0  0.78621  0.87573  0.49938  1.0000
  C   C10       1.0  0.87524  0.78622  0.99939  1.0000
  C   C11       1.0  0.21379  0.12428  0.50063  1.0000
  C   C12       1.0  0.12477  0.21378  0.00062  1.0000
  C   C13       1.0  0.64802  0.52360  0.82235  1.0000
  C   C14       1.0  0.52420  0.64730  0.32232  1.0000
  C   C15       1.0  0.35198  0.47640  0.17765  1.0000
  C   C16       1.0  0.47580  0.35271  0.67768  1.0000
  C   C17       1.0  0.49715  0.63599  0.92086  1.0000
  C   C18       1.0  0.63659  0.49655  0.42087  1.0000
  C   C19       1.0  0.50285  0.36402  0.07914  1.0000
  C   C20       1.0  0.36342  0.50348  0.57913  1.0000
  C   C21       1.0  0.07835  0.12156  0.66807  1.0000
  C   C22       1.0  0.12198  0.07706  0.16804  1.0000
  C   C23       1.0  0.92167  0.87844  0.33193  1.0000
  C   C24       1.0  0.87800  0.92293  0.83195  1.0000
  C   C25       1.0  0.09939  0.80793  0.68036  1.0000
  C   C26       1.0  0.80837  0.09890  0.18033  1.0000
  C   C27       1.0  0.90062  0.19207  0.31964  1.0000
  C   C28       1.0  0.19161  0.90108  0.81967  1.0000
  N   N1        1.0  0.61383  0.82121  0.67579  1.0000
  N   N2        1.0  0.82106  0.61373  0.17584  1.0000
  N   N3        1.0  0.38619  0.17878  0.32421  1.0000
  N   N4        1.0  0.17892  0.38627  0.82416  1.0000
  N   N5        1.0  0.84948  0.59994  0.58320  1.0000
  N   N6        1.0  0.59995  0.84935  0.08315  1.0000
  N   N7        1.0  0.15053  0.40006  0.41681  1.0000
  N   N8        1.0  0.40004  0.15065  0.91685  1.0000
  N   N9        1.0  0.74272  0.51179  0.77291  1.0000
  N   N10       1.0  0.51213  0.74227  0.27288  1.0000
  N   N11       1.0  0.25729  0.48820  0.22710  1.0000
  N   N12       1.0  0.48784  0.25774  0.72712  1.0000
  N   N13       1.0  0.54911  0.51264  0.87598  1.0000
  N   N14       1.0  0.51358  0.54803  0.37594  1.0000
  N   N15       1.0  0.45090  0.48736  0.12402  1.0000
  N   N16       1.0  0.48642  0.45198  0.62405  1.0000
  N   N17       1.0  0.44114  0.73864  0.96439  1.0000
  N   N18       1.0  0.73905  0.44079  0.46442  1.0000
  N   N19       1.0  0.55886  0.26138  0.03561  1.0000
  N   N20       1.0  0.26096  0.55923  0.53558  1.0000
  N   N21       1.0  0.01464  0.28804  0.67686  1.0000
  N   N22       1.0  0.28827  0.01364  0.17673  1.0000
  N   N23       1.0  0.98538  0.71195  0.32313  1.0000
  N   N24       1.0  0.71173  0.98633  0.82327  1.0000
  N   N25       1.0  0.16261  0.94167  0.65520  1.0000
  N   N26       1.0  0.94243  0.16139  0.15517  1.0000
  N   N27       1.0  0.83740  0.05833  0.34479  1.0000
  N   N28       1.0  0.05755  0.83859  0.84482  1.0000
  N   N29       1.0  0.05347  0.67694  0.70053  1.0000
  N   N30       1.0  0.67686  0.05400  0.20041  1.0000
  N   N31       1.0  0.94654  0.32306  0.29948  1.0000
  N   N32       1.0  0.32312  0.94599  0.79959  1.0000
