data_image0
_chemical_formula_structural       Zn8H48C32S8N8
_chemical_formula_sum              "Zn8 H48 C32 S8 N8"
_cell_length_a       6.14888
_cell_length_b       6.42899
_cell_length_c       24.829
_cell_angle_alpha    90
_cell_angle_beta     90
_cell_angle_gamma    90

_space_group_name_H-M_alt    "P 1"
_space_group_IT_number       1

loop_
  _space_group_symop_operation_xyz
  'x, y, z'

loop_
  _atom_site_type_symbol
  _atom_site_label
  _atom_site_symmetry_multiplicity
  _atom_site_fract_x
  _atom_site_fract_y
  _atom_site_fract_z
  _atom_site_occupancy
  Zn  Zn1       1.0  0.17680  0.89806  0.28155  1.0000
  Zn  Zn2       1.0  0.67681  0.10193  0.21845  1.0000
  Zn  Zn3       1.0  0.82319  0.60193  0.78155  1.0000
  Zn  Zn4       1.0  0.32319  0.39806  0.71846  1.0000
  Zn  Zn5       1.0  0.82319  0.10193  0.71845  1.0000
  Zn  Zn6       1.0  0.32319  0.89807  0.78155  1.0000
  Zn  Zn7       1.0  0.17681  0.39806  0.21845  1.0000
  Zn  Zn8       1.0  0.67681  0.60194  0.28155  1.0000
  H   H1        1.0  0.48851  0.01051  0.34267  1.0000
  H   H2        1.0  0.98852  0.98949  0.15733  1.0000
  H   H3        1.0  0.51148  0.48949  0.84268  1.0000
  H   H4        1.0  0.01148  0.51051  0.65733  1.0000
  H   H5        1.0  0.51148  0.98950  0.65733  1.0000
  H   H6        1.0  0.01148  0.01051  0.84267  1.0000
  H   H7        1.0  0.48852  0.51051  0.15733  1.0000
  H   H8        1.0  0.98851  0.48950  0.34268  1.0000
  H   H9        1.0  0.30531  0.19746  0.34943  1.0000
  H   H10       1.0  0.80530  0.80254  0.15057  1.0000
  H   H11       1.0  0.69469  0.30254  0.84943  1.0000
  H   H12       1.0  0.19469  0.69746  0.65057  1.0000
  H   H13       1.0  0.69468  0.80255  0.65057  1.0000
  H   H14       1.0  0.19469  0.19746  0.84943  1.0000
  H   H15       1.0  0.30531  0.69746  0.15057  1.0000
  H   H16       1.0  0.80531  0.30255  0.34943  1.0000
  H   H17       1.0  0.24636  0.77174  0.39247  1.0000
  H   H18       1.0  0.74636  0.22826  0.10753  1.0000
  H   H19       1.0  0.75366  0.72826  0.89247  1.0000
  H   H20       1.0  0.25363  0.27174  0.60753  1.0000
  H   H21       1.0  0.75362  0.22827  0.60753  1.0000
  H   H22       1.0  0.25363  0.77173  0.89247  1.0000
  H   H23       1.0  0.24637  0.27173  0.10753  1.0000
  H   H24       1.0  0.74637  0.72826  0.39248  1.0000
  H   H25       1.0  0.08140  0.98712  0.40708  1.0000
  H   H26       1.0  0.58139  0.01288  0.09292  1.0000
  H   H27       1.0  0.91861  0.51287  0.90708  1.0000
  H   H28       1.0  0.41860  0.48712  0.59292  1.0000
  H   H29       1.0  0.91860  0.01288  0.59292  1.0000
  H   H30       1.0  0.41860  0.98712  0.90708  1.0000
  H   H31       1.0  0.08141  0.48713  0.09291  1.0000
  H   H32       1.0  0.58139  0.51288  0.40708  1.0000
  H   H33       1.0  0.12434  0.86318  0.50172  1.0000
  H   H34       1.0  0.62435  0.13681  0.99828  1.0000
  H   H35       1.0  0.87566  0.63682  0.00172  1.0000
  H   H36       1.0  0.37565  0.36318  0.49828  1.0000
  H   H37       1.0  0.87565  0.13681  0.49828  1.0000
  H   H38       1.0  0.37567  0.86319  0.00172  1.0000
  H   H39       1.0  0.12435  0.36319  0.99828  1.0000
  H   H40       1.0  0.62433  0.63682  0.50172  1.0000
  H   H41       1.0  0.67443  0.09459  0.41328  1.0000
  H   H42       1.0  0.17444  0.90542  0.08672  1.0000
  H   H43       1.0  0.32557  0.40542  0.91328  1.0000
  H   H44       1.0  0.82556  0.59459  0.58673  1.0000
  H   H45       1.0  0.32556  0.90541  0.58672  1.0000
  H   H46       1.0  0.82556  0.09459  0.91328  1.0000
  H   H47       1.0  0.67445  0.59458  0.08672  1.0000
  H   H48       1.0  0.17443  0.40541  0.41328  1.0000
  C   C1        1.0  0.25139  0.94062  0.40029  1.0000
  C   C2        1.0  0.75139  0.05937  0.09971  1.0000
  C   C3        1.0  0.74862  0.55937  0.90029  1.0000
  C   C4        1.0  0.24860  0.44063  0.59971  1.0000
  C   C5        1.0  0.74860  0.05938  0.59971  1.0000
  C   C6        1.0  0.24860  0.94063  0.90029  1.0000
  C   C7        1.0  0.25140  0.44063  0.09971  1.0000
  C   C8        1.0  0.75139  0.55937  0.40029  1.0000
  C   C9        1.0  0.28975  0.92375  0.50071  1.0000
  C   C10       1.0  0.78976  0.07625  0.99929  1.0000
  C   C11       1.0  0.71025  0.57624  0.00071  1.0000
  C   C12       1.0  0.21025  0.42375  0.49929  1.0000
  C   C13       1.0  0.71023  0.07624  0.49929  1.0000
  C   C14       1.0  0.21023  0.92376  0.00071  1.0000
  C   C15       1.0  0.28978  0.42376  0.99929  1.0000
  C   C16       1.0  0.78976  0.57625  0.50071  1.0000
  C   C17       1.0  0.38249  0.97670  0.45103  1.0000
  C   C18       1.0  0.88247  0.02330  0.04897  1.0000
  C   C19       1.0  0.61752  0.52329  0.95103  1.0000
  C   C20       1.0  0.11751  0.47670  0.54897  1.0000
  C   C21       1.0  0.61752  0.02330  0.54897  1.0000
  C   C22       1.0  0.11750  0.97671  0.95103  1.0000
  C   C23       1.0  0.38249  0.47670  0.04897  1.0000
  C   C24       1.0  0.88249  0.52330  0.45103  1.0000
  C   C25       1.0  0.59529  0.05341  0.45117  1.0000
  C   C26       1.0  0.09529  0.94657  0.04883  1.0000
  C   C27       1.0  0.40472  0.44659  0.95117  1.0000
  C   C28       1.0  0.90472  0.55342  0.54883  1.0000
  C   C29       1.0  0.40470  0.94657  0.54883  1.0000
  C   C30       1.0  0.90470  0.05342  0.95117  1.0000
  C   C31       1.0  0.59531  0.55343  0.04883  1.0000
  C   C32       1.0  0.09530  0.44657  0.45117  1.0000
  S   S1        1.0  0.30483  0.05746  0.20405  1.0000
  S   S2        1.0  0.80483  0.94255  0.29595  1.0000
  S   S3        1.0  0.69517  0.44254  0.70406  1.0000
  S   S4        1.0  0.19517  0.55746  0.79595  1.0000
  S   S5        1.0  0.69517  0.94254  0.79595  1.0000
  S   S6        1.0  0.19517  0.05746  0.70406  1.0000
  S   S7        1.0  0.30483  0.55745  0.29595  1.0000
  S   S8        1.0  0.80483  0.44254  0.20406  1.0000
  N   N1        1.0  0.32581  0.03883  0.35014  1.0000
  N   N2        1.0  0.82580  0.96117  0.14987  1.0000
  N   N3        1.0  0.67420  0.46117  0.85014  1.0000
  N   N4        1.0  0.17419  0.53883  0.64986  1.0000
  N   N5        1.0  0.67419  0.96117  0.64986  1.0000
  N   N6        1.0  0.17419  0.03884  0.85014  1.0000
  N   N7        1.0  0.32581  0.53883  0.14986  1.0000
  N   N8        1.0  0.82581  0.46117  0.35014  1.0000
