data_image0
_chemical_formula_structural       Zn4H24C16S4N4
_chemical_formula_sum              "Zn4 H24 C16 S4 N4"
_cell_length_a       6.15487
_cell_length_b       6.44232
_cell_length_c       12.7699
_cell_angle_alpha    104.587
_cell_angle_beta     90.0002
_cell_angle_gamma    90.0004

_space_group_name_H-M_alt    "P 1"
_space_group_IT_number       1

loop_
  _space_group_symop_operation_xyz
  'x, y, z'

loop_
  _atom_site_type_symbol
  _atom_site_label
  _atom_site_symmetry_multiplicity
  _atom_site_fract_x
  _atom_site_fract_y
  _atom_site_fract_z
  _atom_site_occupancy
  Zn  Zn1       1.0  0.78561  0.92576  0.56186  1.0000
  Zn  Zn2       1.0  0.28561  0.07424  0.43814  1.0000
  Zn  Zn3       1.0  0.78574  0.36390  0.43818  1.0000
  Zn  Zn4       1.0  0.28574  0.63610  0.56182  1.0000
  H   H1        1.0  0.71605  0.12387  0.99998  1.0000
  H   H2        1.0  0.21606  0.87613  0.00002  1.0000
  H   H3        1.0  0.09788  0.10036  0.68345  1.0000
  H   H4        1.0  0.59788  0.89964  0.31655  1.0000
  H   H5        1.0  0.09796  0.41705  0.31647  1.0000
  H   H6        1.0  0.59797  0.58296  0.68353  1.0000
  H   H7        1.0  0.91217  0.29151  0.69886  1.0000
  H   H8        1.0  0.41217  0.70850  0.30114  1.0000
  H   H9        1.0  0.91207  0.59263  0.30102  1.0000
  H   H10       1.0  0.41207  0.40738  0.69898  1.0000
  H   H11       1.0  0.86642  0.90381  0.78150  1.0000
  H   H12       1.0  0.36643  0.09619  0.21849  1.0000
  H   H13       1.0  0.86612  0.12231  0.21869  1.0000
  H   H14       1.0  0.36614  0.87769  0.78132  1.0000
  H   H15       1.0  0.68835  0.12359  0.80953  1.0000
  H   H16       1.0  0.18836  0.87641  0.19047  1.0000
  H   H17       1.0  0.68827  0.31417  0.19049  1.0000
  H   H18       1.0  0.18828  0.68584  0.80951  1.0000
  H   H19       1.0  0.28137  0.24514  0.82598  1.0000
  H   H20       1.0  0.78137  0.75486  0.17402  1.0000
  H   H21       1.0  0.28143  0.41846  0.17410  1.0000
  H   H22       1.0  0.78144  0.58154  0.82591  1.0000
  H   H23       1.0  0.46979  0.39268  0.00006  1.0000
  H   H24       1.0  0.96979  0.60731  0.99995  1.0000
  C   C1        1.0  0.88228  0.18326  0.00000  1.0000
  C   C2        1.0  0.38229  0.81674  1.00000  1.0000
  C   C3        1.0  0.98452  0.17464  0.90108  1.0000
  C   C4        1.0  0.48453  0.82536  0.09892  1.0000
  C   C5        1.0  0.98450  0.27316  0.09895  1.0000
  C   C6        1.0  0.48452  0.72684  0.90105  1.0000
  C   C7        1.0  0.86108  0.08017  0.79791  1.0000
  C   C8        1.0  0.36109  0.91983  0.20209  1.0000
  C   C9        1.0  0.86095  0.28220  0.20215  1.0000
  C   C10       1.0  0.36097  0.71781  0.79785  1.0000
  C   C11       1.0  0.19747  0.25089  0.90200  1.0000
  C   C12       1.0  0.69748  0.74911  0.09799  1.0000
  C   C13       1.0  0.19749  0.34849  0.09807  1.0000
  C   C14       1.0  0.69750  0.65150  0.90193  1.0000
  C   C15       1.0  0.30385  0.33459  0.00005  1.0000
  C   C16       1.0  0.80385  0.66540  0.99995  1.0000
  S   S1        1.0  0.91520  0.00994  0.40778  1.0000
  S   S2        1.0  0.41520  0.99007  0.59221  1.0000
  S   S3        1.0  0.91530  0.60221  0.59219  1.0000
  S   S4        1.0  0.41530  0.39780  0.40781  1.0000
  N   N1        1.0  0.93484  0.13338  0.69847  1.0000
  N   N2        1.0  0.43484  0.86662  0.30153  1.0000
  N   N3        1.0  0.93490  0.43496  0.30147  1.0000
  N   N4        1.0  0.43490  0.56505  0.69852  1.0000
