data_image0
_chemical_formula_structural       Zn2H44C36N12O12
_chemical_formula_sum              "Zn2 H44 C36 N12 O12"
_cell_length_a       10.3549
_cell_length_b       10.7264
_cell_length_c       12.474
_cell_angle_alpha    104.369
_cell_angle_beta     102.25
_cell_angle_gamma    110.711

_space_group_name_H-M_alt    "P 1"
_space_group_IT_number       1

loop_
  _space_group_symop_operation_xyz
  'x, y, z'

loop_
  _atom_site_type_symbol
  _atom_site_label
  _atom_site_symmetry_multiplicity
  _atom_site_fract_x
  _atom_site_fract_y
  _atom_site_fract_z
  _atom_site_occupancy
  Zn  Zn1       1.0  0.55582  0.94821  0.72332  1.0000
  Zn  Zn2       1.0  0.44418  0.05179  0.27668  1.0000
  H   H1        1.0  0.64243  0.61977  0.81458  1.0000
  H   H2        1.0  0.35757  0.38023  0.18542  1.0000
  H   H3        1.0  0.80031  0.82456  0.80586  1.0000
  H   H4        1.0  0.19969  0.17544  0.19414  1.0000
  H   H5        1.0  0.85762  0.55277  0.37139  1.0000
  H   H6        1.0  0.14238  0.44723  0.62861  1.0000
  H   H7        1.0  0.61933  0.42595  0.34725  1.0000
  H   H8        1.0  0.38067  0.57405  0.65275  1.0000
  H   H9        1.0  0.82960  0.21304  0.85340  1.0000
  H   H10       1.0  0.17039  0.78696  0.14660  1.0000
  H   H11       1.0  0.91230  0.47334  0.90442  1.0000
  H   H12       1.0  0.08770  0.52666  0.09558  1.0000
  H   H13       1.0  0.46466  0.38824  0.73225  1.0000
  H   H14       1.0  0.53534  0.61176  0.26775  1.0000
  H   H15       1.0  0.40124  0.13016  0.68224  1.0000
  H   H16       1.0  0.59876  0.86984  0.31776  1.0000
  H   H17       1.0  0.00509  0.03084  0.88690  1.0000
  H   H18       1.0  0.99491  0.96916  0.11310  1.0000
  H   H19       1.0  0.10267  0.94536  0.95281  1.0000
  H   H20       1.0  0.89733  0.05464  0.04719  1.0000
  H   H21       1.0  0.35929  0.80735  0.46409  1.0000
  H   H22       1.0  0.64071  0.19265  0.53591  1.0000
  H   H23       1.0  0.09282  0.65984  0.35785  1.0000
  H   H24       1.0  0.90718  0.34016  0.64215  1.0000
  H   H25       1.0  0.02891  0.72367  0.69632  1.0000
  H   H26       1.0  0.97109  0.27633  0.30368  1.0000
  H   H27       1.0  0.29875  0.86165  0.78729  1.0000
  H   H28       1.0  0.70125  0.13835  0.21271  1.0000
  H   H29       1.0  0.54913  0.40194  0.55179  1.0000
  H   H30       1.0  0.45086  0.59805  0.44821  1.0000
  H   H31       1.0  0.42791  0.34937  0.40727  1.0000
  H   H32       1.0  0.57209  0.65064  0.59273  1.0000
  H   H33       1.0  0.82579  0.85741  0.47467  1.0000
  H   H34       1.0  0.17421  0.14260  0.52532  1.0000
  H   H35       1.0  0.93501  0.90802  0.62438  1.0000
  H   H36       1.0  0.06499  0.09198  0.37562  1.0000
  H   H37       1.0  0.91856  0.03941  0.56450  1.0000
  H   H38       1.0  0.08144  0.96059  0.43550  1.0000
  H   H39       1.0  0.48731  0.69457  0.00942  1.0000
  H   H40       1.0  0.51270  0.30543  0.99059  1.0000
  H   H41       1.0  0.55797  0.88568  0.06857  1.0000
  H   H42       1.0  0.44203  0.11432  0.93143  1.0000
  H   H43       1.0  0.67560  0.80225  0.04129  1.0000
  H   H44       1.0  0.32440  0.19775  0.95871  1.0000
  C   C1        1.0  0.75193  0.25539  0.82588  1.0000
  C   C2        1.0  0.24807  0.74461  0.17412  1.0000
  C   C3        1.0  0.79852  0.40094  0.85505  1.0000
  C   C4        1.0  0.20147  0.59906  0.14495  1.0000
  C   C5        1.0  0.69541  0.45419  0.82173  1.0000
  C   C6        1.0  0.30459  0.54581  0.17828  1.0000
  C   C7        1.0  0.54870  0.35313  0.76010  1.0000
  C   C8        1.0  0.45130  0.64687  0.23990  1.0000
  C   C9        1.0  0.51256  0.20968  0.73334  1.0000
  C   C10       1.0  0.48744  0.79032  0.26666  1.0000
  C   C11       1.0  0.86674  0.70992  0.90061  1.0000
  C   C12       1.0  0.13326  0.29008  0.09939  1.0000
  C   C13       1.0  0.00289  0.96284  0.93995  1.0000
  C   C14       1.0  0.99711  0.03716  0.06005  1.0000
  C   C15       1.0  0.28179  0.78455  0.51139  1.0000
  C   C16       1.0  0.71821  0.21545  0.48861  1.0000
  C   C17       1.0  0.13297  0.70408  0.45351  1.0000
  C   C18       1.0  0.86703  0.29591  0.54649  1.0000
  C   C19       1.0  0.03640  0.67879  0.51850  1.0000
  C   C20       1.0  0.96359  0.32121  0.48149  1.0000
  C   C21       1.0  0.09811  0.73903  0.64206  1.0000
  C   C22       1.0  0.90189  0.26097  0.35794  1.0000
  C   C23       1.0  0.24790  0.81626  0.69211  1.0000
  C   C24       1.0  0.75210  0.18374  0.30788  1.0000
  C   C25       1.0  0.77812  0.56547  0.51178  1.0000
  C   C26       1.0  0.22188  0.43453  0.48822  1.0000
  C   C27       1.0  0.52067  0.43852  0.47902  1.0000
  C   C28       1.0  0.47933  0.56148  0.52098  1.0000
  C   C29       1.0  0.72831  0.92463  0.60010  1.0000
  C   C30       1.0  0.27170  0.07537  0.39990  1.0000
  C   C31       1.0  0.86065  0.93150  0.56469  1.0000
  C   C32       1.0  0.13935  0.06851  0.43531  1.0000
  C   C33       1.0  0.53796  0.80051  0.88703  1.0000
  C   C34       1.0  0.46204  0.19950  0.11297  1.0000
  C   C35       1.0  0.56484  0.79560  0.00953  1.0000
  C   C36       1.0  0.43516  0.20440  0.99047  1.0000
  N   N1        1.0  0.61168  0.15940  0.76513  1.0000
  N   N2        1.0  0.38832  0.84060  0.23486  1.0000
  N   N3        1.0  0.72823  0.59499  0.84310  1.0000
  N   N4        1.0  0.27177  0.40501  0.15690  1.0000
  N   N5        1.0  0.87496  0.82869  0.87667  1.0000
  N   N6        1.0  0.12504  0.17131  0.12333  1.0000
  N   N7        1.0  0.34008  0.83938  0.62959  1.0000
  N   N8        1.0  0.65992  0.16062  0.37041  1.0000
  N   N9        1.0  0.88873  0.59727  0.46005  1.0000
  N   N10       1.0  0.11127  0.40273  0.53995  1.0000
  N   N11       1.0  0.64188  0.48042  0.43439  1.0000
  N   N12       1.0  0.35812  0.51958  0.56561  1.0000
  O   O1        1.0  0.96941  0.70437  0.96878  1.0000
  O   O2        1.0  0.03059  0.29563  0.03122  1.0000
  O   O3        1.0  0.80436  0.61375  0.61895  1.0000
  O   O4        1.0  0.19564  0.38625  0.38105  1.0000
  O   O5        1.0  0.73182  0.91990  0.70410  1.0000
  O   O6        1.0  0.26818  0.08009  0.29589  1.0000
  O   O7        1.0  0.62195  0.92770  0.53268  1.0000
  O   O8        1.0  0.37805  0.07230  0.46732  1.0000
  O   O9        1.0  0.55752  0.92194  0.87809  1.0000
  O   O10       1.0  0.44249  0.07806  0.12191  1.0000
  O   O11       1.0  0.50132  0.68777  0.80098  1.0000
  O   O12       1.0  0.49867  0.31223  0.19902  1.0000
