data_image0
_chemical_formula_structural       Ba2Co2H26C16N2O20
_chemical_formula_sum              "Ba2 Co2 H26 C16 N2 O20"
_cell_length_a       9.51566
_cell_length_b       9.65689
_cell_length_c       9.72384
_cell_angle_alpha    64.6786
_cell_angle_beta     61.1023
_cell_angle_gamma    65.1597

_space_group_name_H-M_alt    "P 1"
_space_group_IT_number       1

loop_
  _space_group_symop_operation_xyz
  'x, y, z'

loop_
  _atom_site_type_symbol
  _atom_site_label
  _atom_site_symmetry_multiplicity
  _atom_site_fract_x
  _atom_site_fract_y
  _atom_site_fract_z
  _atom_site_occupancy
  Ba  Ba1       1.0  0.74815  0.65640  0.50692  1.0000
  Ba  Ba2       1.0  0.25185  0.34360  0.49308  1.0000
  Co  Co1       1.0  0.69183  0.41099  0.22487  1.0000
  Co  Co2       1.0  0.30817  0.58901  0.77512  1.0000
  H   H1        1.0  0.10489  0.30845  0.97372  1.0000
  H   H2        1.0  0.89511  0.69155  0.02628  1.0000
  H   H3        1.0  0.09670  0.12633  0.98133  1.0000
  H   H4        1.0  0.90330  0.87367  0.01867  1.0000
  H   H5        1.0  0.82732  0.05941  0.18097  1.0000
  H   H6        1.0  0.17268  0.94059  0.81903  1.0000
  H   H7        1.0  0.95507  0.95884  0.29933  1.0000
  H   H8        1.0  0.04493  0.04116  0.70067  1.0000
  H   H9        1.0  0.02529  0.10165  0.38155  1.0000
  H   H10       1.0  0.97471  0.89835  0.61845  1.0000
  H   H11       1.0  0.14336  0.21835  0.20072  1.0000
  H   H12       1.0  0.85664  0.78165  0.79928  1.0000
  H   H13       1.0  0.79231  0.20768  0.77085  1.0000
  H   H14       1.0  0.20768  0.79232  0.22915  1.0000
  H   H15       1.0  0.73192  0.13456  0.67344  1.0000
  H   H16       1.0  0.26808  0.86544  0.32656  1.0000
  H   H17       1.0  0.67708  0.05885  0.88953  1.0000
  H   H18       1.0  0.32293  0.94115  0.11047  1.0000
  H   H19       1.0  0.64753  0.57477  0.89214  1.0000
  H   H20       1.0  0.35247  0.42523  0.10786  1.0000
  H   H21       1.0  0.57712  0.75823  0.86579  1.0000
  H   H22       1.0  0.42289  0.24177  0.13421  1.0000
  H   H23       1.0  0.62299  0.86023  0.18972  1.0000
  H   H24       1.0  0.37701  0.13977  0.81028  1.0000
  H   H25       1.0  0.52865  0.95906  0.31900  1.0000
  H   H26       1.0  0.47134  0.04095  0.68100  1.0000
  C   C1        1.0  0.01914  0.23748  0.01559  1.0000
  C   C2        1.0  0.98086  0.76252  0.98441  1.0000
  C   C3        1.0  0.90340  0.33220  0.92036  1.0000
  C   C4        1.0  0.09660  0.66780  0.07964  1.0000
  C   C5        1.0  0.86230  0.07034  0.26784  1.0000
  C   C6        1.0  0.13770  0.92966  0.73216  1.0000
  C   C7        1.0  0.70209  0.08808  0.41739  1.0000
  C   C8        1.0  0.29791  0.91192  0.58261  1.0000
  C   C9        1.0  0.01477  0.21191  0.28148  1.0000
  C   C10       1.0  0.98523  0.78809  0.71852  1.0000
  C   C11       1.0  0.93033  0.35136  0.35446  1.0000
  C   C12       1.0  0.06967  0.64864  0.64554  1.0000
  C   C13       1.0  0.69435  0.16528  0.78526  1.0000
  C   C14       1.0  0.30565  0.83472  0.21475  1.0000
  C   C15       1.0  0.53290  0.29476  0.80514  1.0000
  C   C16       1.0  0.46711  0.70524  0.19486  1.0000
  N   N1        1.0  0.92695  0.21024  0.19283  1.0000
  N   N2        1.0  0.07305  0.78976  0.80717  1.0000
  O   O1        1.0  0.80818  0.46113  0.31596  1.0000
  O   O2        1.0  0.19182  0.53887  0.68404  1.0000
  O   O3        1.0  0.95239  0.33036  0.77634  1.0000
  O   O4        1.0  0.04761  0.66965  0.22365  1.0000
  O   O5        1.0  0.60756  0.23045  0.41512  1.0000
  O   O6        1.0  0.39244  0.76954  0.58488  1.0000
  O   O7        1.0  0.66658  0.96649  0.53208  1.0000
  O   O8        1.0  0.33341  0.03351  0.46793  1.0000
  O   O9        1.0  0.98362  0.35563  0.44777  1.0000
  O   O10       1.0  0.01638  0.64437  0.55223  1.0000
  O   O11       1.0  0.75887  0.41558  0.99570  1.0000
  O   O12       1.0  0.24113  0.58442  0.00430  1.0000
  O   O13       1.0  0.54007  0.43929  0.72219  1.0000
  O   O14       1.0  0.45993  0.56071  0.27782  1.0000
  O   O15       1.0  0.39536  0.26061  0.89940  1.0000
  O   O16       1.0  0.60464  0.73939  0.10061  1.0000
  O   O17       1.0  0.59780  0.67522  0.82153  1.0000
  O   O18       1.0  0.40220  0.32478  0.17847  1.0000
  O   O19       1.0  0.64132  0.90744  0.25018  1.0000
  O   O20       1.0  0.35868  0.09256  0.74982  1.0000
