data_image0
_chemical_formula_structural       Rb4H44C72N16O12
_chemical_formula_sum              "Rb4 H44 C72 N16 O12"
_cell_length_a       7.86993
_cell_length_b       13.429
_cell_length_c       18.793
_cell_angle_alpha    107.718
_cell_angle_beta     90
_cell_angle_gamma    107.039

_space_group_name_H-M_alt    "P 1"
_space_group_IT_number       1

loop_
  _space_group_symop_operation_xyz
  'x, y, z'

loop_
  _atom_site_type_symbol
  _atom_site_label
  _atom_site_symmetry_multiplicity
  _atom_site_fract_x
  _atom_site_fract_y
  _atom_site_fract_z
  _atom_site_occupancy
  Rb  Rb1       1.0  0.65853  0.57844  0.91273  1.0000
  Rb  Rb2       1.0  0.92024  0.57866  0.41267  1.0000
  Rb  Rb3       1.0  0.20104  0.65874  0.92957  1.0000
  Rb  Rb4       1.0  0.45796  0.65864  0.42955  1.0000
  H   H1        1.0  0.71030  0.96917  0.96308  1.0000
  H   H2        1.0  0.25893  0.96977  0.46318  1.0000
  H   H3        1.0  0.53148  0.98909  0.86227  1.0000
  H   H4        1.0  0.45763  0.98901  0.36225  1.0000
  H   H5        1.0  0.60135  0.92942  0.72978  1.0000
  H   H6        1.0  0.32789  0.92894  0.22975  1.0000
  H   H7        1.0  0.85270  0.85334  0.69865  1.0000
  H   H8        1.0  0.00050  0.85309  0.19873  1.0000
  H   H9        1.0  0.08196  0.88576  0.07610  1.0000
  H   H10       1.0  0.80384  0.88642  0.57625  1.0000
  H   H11       1.0  0.15155  0.13649  0.12912  1.0000
  H   H12       1.0  0.98510  0.13713  0.62926  1.0000
  H   H13       1.0  0.16144  0.05931  0.18995  1.0000
  H   H14       1.0  0.89801  0.05995  0.69008  1.0000
  H   H15       1.0  0.95506  0.03820  0.14020  1.0000
  H   H16       1.0  0.08321  0.03879  0.64031  1.0000
  H   H17       1.0  0.36230  0.92660  0.01460  1.0000
  H   H18       1.0  0.56427  0.92708  0.51479  1.0000
  H   H19       1.0  0.41037  0.99283  0.11315  1.0000
  H   H20       1.0  0.58247  0.99337  0.61333  1.0000
  H   H21       1.0  0.39615  0.07024  0.05338  1.0000
  H   H22       1.0  0.67372  0.07077  0.55350  1.0000
  H   H23       1.0  0.84888  0.27617  0.81530  1.0000
  H   H24       1.0  0.42752  0.27617  0.31532  1.0000
  H   H25       1.0  0.64432  0.25756  0.70814  1.0000
  H   H26       1.0  0.61364  0.25781  0.20825  1.0000
  H   H27       1.0  0.76857  0.31342  0.59924  1.0000
  H   H28       1.0  0.54517  0.31356  0.09932  1.0000
  H   H29       1.0  0.09596  0.38144  0.59611  1.0000
  H   H30       1.0  0.28530  0.38109  0.09603  1.0000
  H   H31       1.0  0.30892  0.34533  0.95699  1.0000
  H   H32       1.0  0.03652  0.34523  0.45696  1.0000
  H   H33       1.0  0.47849  0.18921  0.84717  1.0000
  H   H34       1.0  0.71059  0.18934  0.34718  1.0000
  H   H35       1.0  0.56784  0.26939  0.94171  1.0000
  H   H36       1.0  0.70158  0.26967  0.44171  1.0000
  H   H37       1.0  0.55556  0.33478  0.87348  1.0000
  H   H38       1.0  0.77964  0.33492  0.37344  1.0000
  H   H39       1.0  0.19362  0.09238  0.89253  1.0000
  H   H40       1.0  0.89832  0.09229  0.39264  1.0000
  H   H41       1.0  0.06462  0.16959  0.94898  1.0000
  H   H42       1.0  0.10462  0.16942  0.44906  1.0000
  H   H43       1.0  0.27033  0.17009  0.98767  1.0000
  H   H44       1.0  0.89948  0.17017  0.48776  1.0000
  C   C1        1.0  0.08637  0.83401  0.79505  1.0000
  C   C2        1.0  0.74752  0.83418  0.29510  1.0000
  C   C3        1.0  0.92462  0.86731  0.81302  1.0000
  C   C4        1.0  0.94260  0.86749  0.31313  1.0000
  C   C5        1.0  0.88093  0.89852  0.88796  1.0000
  C   C6        1.0  0.01752  0.89890  0.38808  1.0000
  C   C7        1.0  0.74079  0.94291  0.90507  1.0000
  C   C8        1.0  0.20210  0.94325  0.40516  1.0000
  C   C9        1.0  0.64092  0.95457  0.84827  1.0000
  C   C10       1.0  0.31359  0.95457  0.34830  1.0000
  C   C11       1.0  0.67977  0.92088  0.77399  1.0000
  C   C12       1.0  0.24100  0.92066  0.27400  1.0000
  C   C13       1.0  0.82059  0.87755  0.75651  1.0000
  C   C14       1.0  0.05683  0.87745  0.25659  1.0000
  C   C15       1.0  0.97192  0.87860  0.94988  1.0000
  C   C16       1.0  0.90663  0.87916  0.45004  1.0000
  C   C17       1.0  0.14081  0.96870  0.07222  1.0000
  C   C18       1.0  0.82789  0.96935  0.57236  1.0000
  C   C19       1.0  0.09917  0.05547  0.13654  1.0000
  C   C20       1.0  0.95640  0.05610  0.63667  1.0000
  C   C21       1.0  0.33844  0.99056  0.06236  1.0000
  C   C22       1.0  0.65206  0.99113  0.56252  1.0000
  C   C23       1.0  0.09878  0.77468  0.71256  1.0000
  C   C24       1.0  0.67591  0.77491  0.21257  1.0000
  C   C25       1.0  0.01344  0.66063  0.68898  1.0000
  C   C26       1.0  0.64706  0.66084  0.18897  1.0000
  C   C27       1.0  0.19133  0.83892  0.66994  1.0000
  C   C28       1.0  0.64773  0.83918  0.16995  1.0000
  C   C29       1.0  0.28400  0.95205  0.70388  1.0000
  C   C30       1.0  0.66780  0.95224  0.20398  1.0000
  C   C31       1.0  0.20318  0.79760  0.59206  1.0000
  C   C32       1.0  0.59487  0.79794  0.09205  1.0000
  C   C33       1.0  0.94084  0.61082  0.74304  1.0000
  C   C34       1.0  0.66983  0.61102  0.24304  1.0000
  C   C35       1.0  0.00119  0.58933  0.61506  1.0000
  C   C36       1.0  0.58793  0.58950  0.11508  1.0000
  C   C37       1.0  0.35395  0.39909  0.69883  1.0000
  C   C38       1.0  0.04490  0.39856  0.19868  1.0000
  C   C39       1.0  0.15917  0.36678  0.70360  1.0000
  C   C40       1.0  0.20742  0.36636  0.20351  1.0000
  C   C41       1.0  0.08782  0.33760  0.76617  1.0000
  C   C42       1.0  0.24969  0.33733  0.26612  1.0000
  C   C43       1.0  0.90321  0.29841  0.76695  1.0000
  C   C44       1.0  0.39533  0.29834  0.26695  1.0000
  C   C45       1.0  0.78816  0.28879  0.70683  1.0000
  C   C46       1.0  0.50086  0.28887  0.20688  1.0000
  C   C47       1.0  0.85789  0.31995  0.64584  1.0000
  C   C48       1.0  0.46224  0.31993  0.14586  1.0000
  C   C49       1.0  0.04196  0.35869  0.64428  1.0000
  C   C50       1.0  0.31666  0.35843  0.14423  1.0000
  C   C51       1.0  0.20439  0.35566  0.83486  1.0000
  C   C52       1.0  0.15111  0.35544  0.33479  1.0000
  C   C53       1.0  0.30196  0.26730  0.91382  1.0000
  C   C54       1.0  0.96528  0.26721  0.41382  1.0000
  C   C55       1.0  0.48729  0.26522  0.89260  1.0000
  C   C56       1.0  0.77799  0.26533  0.39260  1.0000
  C   C57       1.0  0.20073  0.16927  0.93682  1.0000
  C   C58       1.0  0.96825  0.16920  0.43688  1.0000
  C   C59       1.0  0.42656  0.45779  0.64193  1.0000
  C   C60       1.0  0.03133  0.45722  0.14174  1.0000
  C   C61       1.0  0.44927  0.39282  0.57058  1.0000
  C   C62       1.0  0.94359  0.39230  0.07041  1.0000
  C   C63       1.0  0.46566  0.57273  0.66935  1.0000
  C   C64       1.0  0.10778  0.57211  0.16916  1.0000
  C   C65       1.0  0.44938  0.62304  0.74579  1.0000
  C   C66       1.0  0.17407  0.62241  0.24564  1.0000
  C   C67       1.0  0.52969  0.64460  0.62720  1.0000
  C   C68       1.0  0.11618  0.64408  0.12705  1.0000
  C   C69       1.0  0.50981  0.43535  0.51183  1.0000
  C   C70       1.0  0.92585  0.43492  0.01168  1.0000
  C   C71       1.0  0.41881  0.27837  0.55447  1.0000
  C   C72       1.0  0.85913  0.27790  0.05431  1.0000
  N   N1        1.0  0.88729  0.57232  0.78996  1.0000
  N   N2        1.0  0.68491  0.57254  0.28997  1.0000
  N   N3        1.0  0.98687  0.52752  0.55432  1.0000
  N   N4        1.0  0.54044  0.52757  0.05436  1.0000
  N   N5        1.0  0.36725  0.04491  0.72989  1.0000
  N   N6        1.0  0.67698  0.04502  0.23010  1.0000
  N   N7        1.0  0.21291  0.76641  0.52726  1.0000
  N   N8        1.0  0.55423  0.76679  0.02722  1.0000
  N   N9        1.0  0.55807  0.46836  0.46196  1.0000
  N   N10       1.0  0.91076  0.46807  0.96187  1.0000
  N   N11       1.0  0.40022  0.18439  0.54073  1.0000
  N   N12       1.0  0.78331  0.18397  0.04056  1.0000
  N   N13       1.0  0.43956  0.66216  0.80991  1.0000
  N   N14       1.0  0.22271  0.66169  0.30978  1.0000
  N   N15       1.0  0.58111  0.70707  0.59409  1.0000
  N   N16       1.0  0.12758  0.70670  0.09405  1.0000
  O   O1        1.0  0.20867  0.85114  0.84239  1.0000
  O   O2        1.0  0.64215  0.85121  0.34236  1.0000
  O   O3        1.0  0.96136  0.78589  0.95162  1.0000
  O   O4        1.0  0.82440  0.78646  0.45182  1.0000
  O   O5        1.0  0.05159  0.97218  0.00402  1.0000
  O   O6        1.0  0.92055  0.97276  0.50414  1.0000
  O   O7        1.0  0.45991  0.38357  0.73923  1.0000
  O   O8        1.0  0.92335  0.38313  0.23907  1.0000
  O   O9        1.0  0.28743  0.44811  0.87706  1.0000
  O   O10       1.0  0.16038  0.44785  0.37693  1.0000
  O   O11       1.0  0.19533  0.26158  0.84677  1.0000
  O   O12       1.0  0.06614  0.26136  0.34676  1.0000
