data_image0
_chemical_formula_structural       Dy2Cu2H32C44S4N4O22
_chemical_formula_sum              "Dy2 Cu2 H32 C44 S4 N4 O22"
_cell_length_a       9.36345
_cell_length_b       11.3223
_cell_length_c       12.345
_cell_angle_alpha    99.2946
_cell_angle_beta     100.374
_cell_angle_gamma    113.755

_space_group_name_H-M_alt    "P 1"
_space_group_IT_number       1

loop_
  _space_group_symop_operation_xyz
  'x, y, z'

loop_
  _atom_site_type_symbol
  _atom_site_label
  _atom_site_symmetry_multiplicity
  _atom_site_fract_x
  _atom_site_fract_y
  _atom_site_fract_z
  _atom_site_occupancy
  Dy  Dy1       1.0  0.30527  0.46444  0.09611  1.0000
  Dy  Dy2       1.0  0.69472  0.53556  0.90389  1.0000
  Cu  Cu1       1.0  0.25503  0.97622  0.59611  1.0000
  Cu  Cu2       1.0  0.74497  0.02378  0.40389  1.0000
  H   H1        1.0  0.73552  0.54539  0.41424  1.0000
  H   H2        1.0  0.26448  0.45461  0.58575  1.0000
  H   H3        1.0  0.90061  0.67268  0.29894  1.0000
  H   H4        1.0  0.09940  0.32731  0.70105  1.0000
  H   H5        1.0  0.28971  0.58193  0.43700  1.0000
  H   H6        1.0  0.71029  0.41807  0.56300  1.0000
  H   H7        1.0  0.44797  0.25004  0.22953  1.0000
  H   H8        1.0  0.55203  0.74996  0.77048  1.0000
  H   H9        1.0  0.49978  0.10824  0.35284  1.0000
  H   H10       1.0  0.50021  0.89175  0.64716  1.0000
  H   H11       1.0  0.94092  0.18767  0.28050  1.0000
  H   H12       1.0  0.05908  0.81233  0.71950  1.0000
  H   H13       1.0  0.90773  0.33275  0.15939  1.0000
  H   H14       1.0  0.09227  0.66726  0.84061  1.0000
  H   H15       1.0  0.57506  0.17711  0.86336  1.0000
  H   H16       1.0  0.42494  0.82289  0.13664  1.0000
  H   H17       1.0  0.76586  0.08045  0.90913  1.0000
  H   H18       1.0  0.23414  0.91954  0.09087  1.0000
  H   H19       1.0  0.15782  0.07328  0.99671  1.0000
  H   H20       1.0  0.84218  0.92672  0.00328  1.0000
  H   H21       1.0  0.41009  0.25762  0.62746  1.0000
  H   H22       1.0  0.58991  0.74237  0.37255  1.0000
  H   H23       1.0  0.43434  0.40849  0.50001  1.0000
  H   H24       1.0  0.56566  0.59151  0.50000  1.0000
  H   H25       1.0  0.08752  0.06569  0.22659  1.0000
  H   H26       1.0  0.91249  0.93432  0.77341  1.0000
  H   H27       1.0  0.08082  0.92577  0.36249  1.0000
  H   H28       1.0  0.91918  0.07424  0.63751  1.0000
  H   H29       1.0  0.97423  0.31731  0.92885  1.0000
  H   H30       1.0  0.02577  0.68269  0.07114  1.0000
  H   H31       1.0  0.93978  0.40704  0.02259  1.0000
  H   H32       1.0  0.06022  0.59295  0.97741  1.0000
  C   C1        1.0  0.85791  0.55589  0.42160  1.0000
  C   C2        1.0  0.14209  0.44411  0.57839  1.0000
  C   C3        1.0  0.94828  0.62569  0.35646  1.0000
  C   C4        1.0  0.05172  0.37430  0.64354  1.0000
  C   C5        1.0  0.10467  0.63430  0.36302  1.0000
  C   C6        1.0  0.89533  0.36569  0.63698  1.0000
  C   C7        1.0  0.17013  0.57618  0.43469  1.0000
  C   C8        1.0  0.82987  0.42382  0.56531  1.0000
  C   C9        1.0  0.92004  0.49460  0.49654  1.0000
  C   C10       1.0  0.07995  0.50540  0.50345  1.0000
  C   C11       1.0  0.56019  0.24112  0.24229  1.0000
  C   C12       1.0  0.43982  0.75888  0.75771  1.0000
  C   C13       1.0  0.58763  0.16168  0.30971  1.0000
  C   C14       1.0  0.41237  0.83833  0.69029  1.0000
  C   C15       1.0  0.83471  0.20613  0.26933  1.0000
  C   C16       1.0  0.16529  0.79388  0.73068  1.0000
  C   C17       1.0  0.81495  0.28764  0.20154  1.0000
  C   C18       1.0  0.18505  0.71236  0.79847  1.0000
  C   C19       1.0  0.50164  0.12053  0.91305  1.0000
  C   C20       1.0  0.49836  0.87947  0.08695  1.0000
  C   C21       1.0  0.54960  0.03674  0.96759  1.0000
  C   C22       1.0  0.45041  0.96327  0.03241  1.0000
  C   C23       1.0  0.69245  0.02405  0.95928  1.0000
  C   C24       1.0  0.30755  0.97594  0.04072  1.0000
  C   C25       1.0  0.26407  0.05932  0.98771  1.0000
  C   C26       1.0  0.73593  0.94067  0.01229  1.0000
  C   C27       1.0  0.36312  0.13148  0.92407  1.0000
  C   C28       1.0  0.63688  0.86852  0.07593  1.0000
  C   C29       1.0  0.34128  0.21919  0.53833  1.0000
  C   C30       1.0  0.65872  0.78081  0.46168  1.0000
  C   C31       1.0  0.35292  0.30259  0.46624  1.0000
  C   C32       1.0  0.64709  0.69741  0.53377  1.0000
  C   C33       1.0  0.26113  0.24929  0.35247  1.0000
  C   C34       1.0  0.73888  0.75072  0.64754  1.0000
  C   C35       1.0  0.16047  0.11173  0.31466  1.0000
  C   C36       1.0  0.83953  0.88828  0.68535  1.0000
  C   C37       1.0  0.15617  0.03305  0.39047  1.0000
  C   C38       1.0  0.84382  0.96696  0.60954  1.0000
  C   C39       1.0  0.67424  0.30566  0.18648  1.0000
  C   C40       1.0  0.32576  0.69434  0.81352  1.0000
  C   C41       1.0  0.64015  0.38632  0.10890  1.0000
  C   C42       1.0  0.35984  0.61368  0.89110  1.0000
  C   C43       1.0  0.27420  0.33517  0.27061  1.0000
  C   C44       1.0  0.72581  0.66483  0.72940  1.0000
  S   S1        1.0  0.30583  0.23536  0.85187  1.0000
  S   S2        1.0  0.69416  0.76463  0.14813  1.0000
  S   S3        1.0  0.21684  0.71559  0.27216  1.0000
  S   S4        1.0  0.78316  0.28441  0.72783  1.0000
  N   N1        1.0  0.24563  0.08578  0.50055  1.0000
  N   N2        1.0  0.75437  0.91423  0.49945  1.0000
  N   N3        1.0  0.72303  0.14290  0.32250  1.0000
  N   N4        1.0  0.27697  0.85709  0.67751  1.0000
  O   O1        1.0  0.18178  0.27936  0.16863  1.0000
  O   O2        1.0  0.81823  0.72064  0.83137  1.0000
  O   O3        1.0  0.37845  0.45716  0.30124  1.0000
  O   O4        1.0  0.62155  0.54285  0.69877  1.0000
  O   O5        1.0  0.22056  0.60406  0.19161  1.0000
  O   O6        1.0  0.77944  0.39594  0.80837  1.0000
  O   O7        1.0  0.23476  0.29824  0.92641  1.0000
  O   O8        1.0  0.76523  0.70176  0.07359  1.0000
  O   O9        1.0  0.12166  0.77233  0.21042  1.0000
  O   O10       1.0  0.87833  0.22767  0.78958  1.0000
  O   O11       1.0  0.37673  0.81426  0.34298  1.0000
  O   O12       1.0  0.62328  0.18574  0.65701  1.0000
  O   O13       1.0  0.51771  0.40854  0.10824  1.0000
  O   O14       1.0  0.48229  0.59146  0.89176  1.0000
  O   O15       1.0  0.45661  0.33371  0.83542  1.0000
  O   O16       1.0  0.54339  0.66629  0.16458  1.0000
  O   O17       1.0  0.18887  0.14906  0.74384  1.0000
  O   O18       1.0  0.81112  0.85094  0.25616  1.0000
  O   O19       1.0  0.73454  0.42548  0.04609  1.0000
  O   O20       1.0  0.26546  0.57451  0.95391  1.0000
  O   O21       1.0  0.01745  0.37225  0.00949  1.0000
  O   O22       1.0  0.98254  0.62774  0.99050  1.0000
