data_image0
_chemical_formula_structural       Sm2Cu2H32C44S4N4O22
_chemical_formula_sum              "Sm2 Cu2 H32 C44 S4 N4 O22"
_cell_length_a       9.4608
_cell_length_b       11.3762
_cell_length_c       12.3811
_cell_angle_alpha    99.5079
_cell_angle_beta     100.224
_cell_angle_gamma    113.972

_space_group_name_H-M_alt    "P 1"
_space_group_IT_number       1

loop_
  _space_group_symop_operation_xyz
  'x, y, z'

loop_
  _atom_site_type_symbol
  _atom_site_label
  _atom_site_symmetry_multiplicity
  _atom_site_fract_x
  _atom_site_fract_y
  _atom_site_fract_z
  _atom_site_occupancy
  Sm  Sm1       1.0  0.30675  0.46400  0.09625  1.0000
  Sm  Sm2       1.0  0.69325  0.53600  0.90376  1.0000
  Cu  Cu1       1.0  0.26141  0.97532  0.59468  1.0000
  Cu  Cu2       1.0  0.73859  0.02468  0.40532  1.0000
  H   H1        1.0  0.73983  0.54829  0.41889  1.0000
  H   H2        1.0  0.26017  0.45171  0.58111  1.0000
  H   H3        1.0  0.90264  0.67553  0.30341  1.0000
  H   H4        1.0  0.09736  0.32447  0.69659  1.0000
  H   H5        1.0  0.28528  0.58074  0.43474  1.0000
  H   H6        1.0  0.71472  0.41926  0.56526  1.0000
  H   H7        1.0  0.45324  0.25475  0.23164  1.0000
  H   H8        1.0  0.54676  0.74525  0.76836  1.0000
  H   H9        1.0  0.49929  0.11151  0.35411  1.0000
  H   H10       1.0  0.50071  0.88850  0.64589  1.0000
  H   H11       1.0  0.93531  0.18441  0.28253  1.0000
  H   H12       1.0  0.06469  0.81559  0.71747  1.0000
  H   H13       1.0  0.90742  0.33019  0.16169  1.0000
  H   H14       1.0  0.09258  0.66981  0.83831  1.0000
  H   H15       1.0  0.57262  0.17505  0.86240  1.0000
  H   H16       1.0  0.42738  0.82495  0.13760  1.0000
  H   H17       1.0  0.76254  0.08017  0.90836  1.0000
  H   H18       1.0  0.23746  0.91983  0.09164  1.0000
  H   H19       1.0  0.15894  0.06911  0.99542  1.0000
  H   H20       1.0  0.84106  0.93089  0.00458  1.0000
  H   H21       1.0  0.41692  0.25569  0.62703  1.0000
  H   H22       1.0  0.58308  0.74431  0.37297  1.0000
  H   H23       1.0  0.43761  0.40697  0.50125  1.0000
  H   H24       1.0  0.56239  0.59303  0.49875  1.0000
  H   H25       1.0  0.08647  0.06494  0.22945  1.0000
  H   H26       1.0  0.91353  0.93506  0.77055  1.0000
  H   H27       1.0  0.08325  0.92502  0.36374  1.0000
  H   H28       1.0  0.91675  0.07498  0.63626  1.0000
  H   H29       1.0  0.97217  0.31645  0.92876  1.0000
  H   H30       1.0  0.02783  0.68355  0.07124  1.0000
  H   H31       1.0  0.93772  0.40352  0.02426  1.0000
  H   H32       1.0  0.06228  0.59648  0.97574  1.0000
  C   C1        1.0  0.86034  0.55784  0.42467  1.0000
  C   C2        1.0  0.13966  0.44216  0.57533  1.0000
  C   C3        1.0  0.94948  0.62780  0.35966  1.0000
  C   C4        1.0  0.05052  0.37220  0.64034  1.0000
  C   C5        1.0  0.10347  0.63529  0.36434  1.0000
  C   C6        1.0  0.89653  0.36471  0.63566  1.0000
  C   C7        1.0  0.16759  0.57578  0.43390  1.0000
  C   C8        1.0  0.83241  0.42422  0.56610  1.0000
  C   C9        1.0  0.92131  0.49521  0.49753  1.0000
  C   C10       1.0  0.07869  0.50479  0.50247  1.0000
  C   C11       1.0  0.56275  0.24357  0.24387  1.0000
  C   C12       1.0  0.43725  0.75643  0.75613  1.0000
  C   C13       1.0  0.58702  0.16370  0.31100  1.0000
  C   C14       1.0  0.41298  0.83630  0.68900  1.0000
  C   C15       1.0  0.83148  0.20449  0.27107  1.0000
  C   C16       1.0  0.16852  0.79551  0.72893  1.0000
  C   C17       1.0  0.81481  0.28631  0.20359  1.0000
  C   C18       1.0  0.18519  0.71369  0.79641  1.0000
  C   C19       1.0  0.50053  0.11897  0.91251  1.0000
  C   C20       1.0  0.49947  0.88103  0.08749  1.0000
  C   C21       1.0  0.54871  0.03639  0.96731  1.0000
  C   C22       1.0  0.45129  0.96361  0.03269  1.0000
  C   C23       1.0  0.69036  0.02442  0.95886  1.0000
  C   C24       1.0  0.30964  0.97558  0.04114  1.0000
  C   C25       1.0  0.26543  0.05707  0.98739  1.0000
  C   C26       1.0  0.73457  0.94293  0.01261  1.0000
  C   C27       1.0  0.36275  0.12865  0.92328  1.0000
  C   C28       1.0  0.63725  0.87134  0.07672  1.0000
  C   C29       1.0  0.34656  0.21773  0.53857  1.0000
  C   C30       1.0  0.65345  0.78227  0.46143  1.0000
  C   C31       1.0  0.35614  0.30121  0.46751  1.0000
  C   C32       1.0  0.64386  0.69879  0.53249  1.0000
  C   C33       1.0  0.26239  0.24778  0.35459  1.0000
  C   C34       1.0  0.73761  0.75222  0.64541  1.0000
  C   C35       1.0  0.16124  0.11069  0.31675  1.0000
  C   C36       1.0  0.83876  0.88931  0.68325  1.0000
  C   C37       1.0  0.15886  0.03203  0.39160  1.0000
  C   C38       1.0  0.84114  0.96797  0.60840  1.0000
  C   C39       1.0  0.67695  0.30618  0.18829  1.0000
  C   C40       1.0  0.32305  0.69382  0.81171  1.0000
  C   C41       1.0  0.64686  0.38666  0.11027  1.0000
  C   C42       1.0  0.35314  0.61334  0.88973  1.0000
  C   C43       1.0  0.27420  0.33308  0.27318  1.0000
  C   C44       1.0  0.72579  0.66692  0.72682  1.0000
  S   S1        1.0  0.30359  0.22960  0.84984  1.0000
  S   S2        1.0  0.69642  0.77040  0.15017  1.0000
  S   S3        1.0  0.21499  0.71749  0.27437  1.0000
  S   S4        1.0  0.78501  0.28251  0.72563  1.0000
  N   N1        1.0  0.25085  0.08452  0.50056  1.0000
  N   N2        1.0  0.74915  0.91548  0.49944  1.0000
  N   N3        1.0  0.71945  0.14293  0.32377  1.0000
  N   N4        1.0  0.28055  0.85707  0.67623  1.0000
  O   O1        1.0  0.18047  0.27711  0.17211  1.0000
  O   O2        1.0  0.81953  0.72289  0.82789  1.0000
  O   O3        1.0  0.37901  0.45465  0.30359  1.0000
  O   O4        1.0  0.62099  0.54535  0.69641  1.0000
  O   O5        1.0  0.22293  0.60750  0.19550  1.0000
  O   O6        1.0  0.77707  0.39250  0.80450  1.0000
  O   O7        1.0  0.23388  0.29312  0.92418  1.0000
  O   O8        1.0  0.76612  0.70688  0.07582  1.0000
  O   O9        1.0  0.11933  0.77134  0.21128  1.0000
  O   O10       1.0  0.88067  0.22866  0.78872  1.0000
  O   O11       1.0  0.37193  0.81834  0.34620  1.0000
  O   O12       1.0  0.62807  0.18166  0.65379  1.0000
  O   O13       1.0  0.52498  0.40868  0.10616  1.0000
  O   O14       1.0  0.47502  0.59132  0.89384  1.0000
  O   O15       1.0  0.45204  0.32798  0.83212  1.0000
  O   O16       1.0  0.54796  0.67202  0.16788  1.0000
  O   O17       1.0  0.18678  0.14119  0.74296  1.0000
  O   O18       1.0  0.81322  0.85881  0.25704  1.0000
  O   O19       1.0  0.74388  0.42631  0.04997  1.0000
  O   O20       1.0  0.25612  0.57369  0.95003  1.0000
  O   O21       1.0  0.01392  0.36839  0.01016  1.0000
  O   O22       1.0  0.98608  0.63162  0.98984  1.0000
