data_image0
_chemical_formula_structural       Tb2Cu2H32C44S4N4O22
_chemical_formula_sum              "Tb2 Cu2 H32 C44 S4 N4 O22"
_cell_length_a       9.42267
_cell_length_b       11.3197
_cell_length_c       12.3599
_cell_angle_alpha    99.3533
_cell_angle_beta     100.29
_cell_angle_gamma    113.923

_space_group_name_H-M_alt    "P 1"
_space_group_IT_number       1

loop_
  _space_group_symop_operation_xyz
  'x, y, z'

loop_
  _atom_site_type_symbol
  _atom_site_label
  _atom_site_symmetry_multiplicity
  _atom_site_fract_x
  _atom_site_fract_y
  _atom_site_fract_z
  _atom_site_occupancy
  Tb  Tb1       1.0  0.30580  0.46374  0.09577  1.0000
  Tb  Tb2       1.0  0.69420  0.53626  0.90423  1.0000
  Cu  Cu1       1.0  0.25664  0.97561  0.59546  1.0000
  Cu  Cu2       1.0  0.74336  0.02439  0.40454  1.0000
  H   H1        1.0  0.73863  0.54728  0.41560  1.0000
  H   H2        1.0  0.26137  0.45272  0.58440  1.0000
  H   H3        1.0  0.90315  0.67385  0.29991  1.0000
  H   H4        1.0  0.09685  0.32615  0.70009  1.0000
  H   H5        1.0  0.28735  0.58049  0.43595  1.0000
  H   H6        1.0  0.71265  0.41951  0.56405  1.0000
  H   H7        1.0  0.45013  0.25155  0.23158  1.0000
  H   H8        1.0  0.54987  0.74845  0.76842  1.0000
  H   H9        1.0  0.50059  0.10840  0.35384  1.0000
  H   H10       1.0  0.49942  0.89160  0.64616  1.0000
  H   H11       1.0  0.93826  0.18711  0.28038  1.0000
  H   H12       1.0  0.06174  0.81289  0.71962  1.0000
  H   H13       1.0  0.90580  0.33272  0.15954  1.0000
  H   H14       1.0  0.09420  0.66728  0.84047  1.0000
  H   H15       1.0  0.57467  0.17765  0.86365  1.0000
  H   H16       1.0  0.42533  0.82235  0.13635  1.0000
  H   H17       1.0  0.76422  0.08087  0.90900  1.0000
  H   H18       1.0  0.23578  0.91913  0.09100  1.0000
  H   H19       1.0  0.15855  0.07091  0.99550  1.0000
  H   H20       1.0  0.84145  0.92909  0.00450  1.0000
  H   H21       1.0  0.41220  0.25669  0.62650  1.0000
  H   H22       1.0  0.58780  0.74331  0.37350  1.0000
  H   H23       1.0  0.43485  0.40809  0.49965  1.0000
  H   H24       1.0  0.56515  0.59191  0.50035  1.0000
  H   H25       1.0  0.08601  0.06453  0.22724  1.0000
  H   H26       1.0  0.91399  0.93547  0.77276  1.0000
  H   H27       1.0  0.08024  0.92439  0.36282  1.0000
  H   H28       1.0  0.91976  0.07561  0.63718  1.0000
  H   H29       1.0  0.97440  0.31717  0.92871  1.0000
  H   H30       1.0  0.02560  0.68283  0.07129  1.0000
  H   H31       1.0  0.94214  0.40701  0.02359  1.0000
  H   H32       1.0  0.05786  0.59299  0.97641  1.0000
  C   C1        1.0  0.85989  0.55709  0.42252  1.0000
  C   C2        1.0  0.14011  0.44291  0.57748  1.0000
  C   C3        1.0  0.94994  0.62655  0.35723  1.0000
  C   C4        1.0  0.05006  0.37345  0.64277  1.0000
  C   C5        1.0  0.10484  0.63435  0.36319  1.0000
  C   C6        1.0  0.89516  0.36565  0.63680  1.0000
  C   C7        1.0  0.16900  0.57547  0.43429  1.0000
  C   C8        1.0  0.83100  0.42453  0.56571  1.0000
  C   C9        1.0  0.92082  0.49512  0.49690  1.0000
  C   C10       1.0  0.07918  0.50488  0.50310  1.0000
  C   C11       1.0  0.56094  0.24173  0.24343  1.0000
  C   C12       1.0  0.43906  0.75827  0.75657  1.0000
  C   C13       1.0  0.58764  0.16185  0.31040  1.0000
  C   C14       1.0  0.41236  0.83815  0.68961  1.0000
  C   C15       1.0  0.83296  0.20586  0.26941  1.0000
  C   C16       1.0  0.16704  0.79414  0.73059  1.0000
  C   C17       1.0  0.81363  0.28752  0.20182  1.0000
  C   C18       1.0  0.18637  0.71248  0.79818  1.0000
  C   C19       1.0  0.50168  0.12061  0.91316  1.0000
  C   C20       1.0  0.49832  0.87939  0.08684  1.0000
  C   C21       1.0  0.54928  0.03684  0.96755  1.0000
  C   C22       1.0  0.45072  0.96316  0.03245  1.0000
  C   C23       1.0  0.69136  0.02456  0.95929  1.0000
  C   C24       1.0  0.30864  0.97544  0.04071  1.0000
  C   C25       1.0  0.26508  0.05823  0.98735  1.0000
  C   C26       1.0  0.73492  0.94177  0.01265  1.0000
  C   C27       1.0  0.36351  0.13073  0.92383  1.0000
  C   C28       1.0  0.63649  0.86927  0.07617  1.0000
  C   C29       1.0  0.34251  0.21839  0.53774  1.0000
  C   C30       1.0  0.65749  0.78161  0.46226  1.0000
  C   C31       1.0  0.35342  0.30199  0.46602  1.0000
  C   C32       1.0  0.64658  0.69801  0.53398  1.0000
  C   C33       1.0  0.26088  0.24839  0.35263  1.0000
  C   C34       1.0  0.73912  0.75161  0.64737  1.0000
  C   C35       1.0  0.15976  0.11068  0.31496  1.0000
  C   C36       1.0  0.84024  0.88932  0.68504  1.0000
  C   C37       1.0  0.15603  0.03184  0.39050  1.0000
  C   C38       1.0  0.84397  0.96816  0.60950  1.0000
  C   C39       1.0  0.67415  0.30590  0.18721  1.0000
  C   C40       1.0  0.32585  0.69410  0.81279  1.0000
  C   C41       1.0  0.64095  0.38656  0.10955  1.0000
  C   C42       1.0  0.35905  0.61344  0.89045  1.0000
  C   C43       1.0  0.27413  0.33425  0.27082  1.0000
  C   C44       1.0  0.72587  0.66575  0.72918  1.0000
  S   S1        1.0  0.30616  0.23399  0.85131  1.0000
  S   S2        1.0  0.69384  0.76601  0.14869  1.0000
  S   S3        1.0  0.21661  0.71542  0.27237  1.0000
  S   S4        1.0  0.78339  0.28458  0.72763  1.0000
  N   N1        1.0  0.24670  0.08469  0.50001  1.0000
  N   N2        1.0  0.75330  0.91531  0.49999  1.0000
  N   N3        1.0  0.72184  0.14272  0.32267  1.0000
  N   N4        1.0  0.27816  0.85728  0.67733  1.0000
  O   O1        1.0  0.18150  0.27832  0.16915  1.0000
  O   O2        1.0  0.81849  0.72168  0.83085  1.0000
  O   O3        1.0  0.37886  0.45627  0.30128  1.0000
  O   O4        1.0  0.62114  0.54373  0.69872  1.0000
  O   O5        1.0  0.22072  0.60369  0.19235  1.0000
  O   O6        1.0  0.77928  0.39631  0.80765  1.0000
  O   O7        1.0  0.23549  0.29720  0.92548  1.0000
  O   O8        1.0  0.76451  0.70280  0.07452  1.0000
  O   O9        1.0  0.12212  0.77170  0.21026  1.0000
  O   O10       1.0  0.87789  0.22830  0.78974  1.0000
  O   O11       1.0  0.37548  0.81478  0.34327  1.0000
  O   O12       1.0  0.62452  0.18522  0.65673  1.0000
  O   O13       1.0  0.51798  0.40729  0.10735  1.0000
  O   O14       1.0  0.48202  0.59271  0.89265  1.0000
  O   O15       1.0  0.45615  0.33268  0.83472  1.0000
  O   O16       1.0  0.54385  0.66732  0.16528  1.0000
  O   O17       1.0  0.18966  0.14690  0.74360  1.0000
  O   O18       1.0  0.81034  0.85310  0.25639  1.0000
  O   O19       1.0  0.73661  0.42707  0.04816  1.0000
  O   O20       1.0  0.26339  0.57293  0.95184  1.0000
  O   O21       1.0  0.01752  0.37056  0.00986  1.0000
  O   O22       1.0  0.98248  0.62944  0.99014  1.0000
