data_image0
_chemical_formula_structural       U6H32C40N12O36
_chemical_formula_sum              "U6 H32 C40 N12 O36"
_cell_length_a       6.12838
_cell_length_b       12.9005
_cell_length_c       18.3478
_cell_angle_alpha    98.4521
_cell_angle_beta     90
_cell_angle_gamma    90

_space_group_name_H-M_alt    "P 1"
_space_group_IT_number       1

loop_
  _space_group_symop_operation_xyz
  'x, y, z'

loop_
  _atom_site_type_symbol
  _atom_site_label
  _atom_site_symmetry_multiplicity
  _atom_site_fract_x
  _atom_site_fract_y
  _atom_site_fract_z
  _atom_site_occupancy
  U   U1        1.0  0.58366  0.37790  0.93466  1.0000
  U   U2        1.0  0.08366  0.12210  0.56535  1.0000
  U   U3        1.0  0.41633  0.62209  0.06535  1.0000
  U   U4        1.0  0.91634  0.87790  0.43465  1.0000
  U   U5        1.0  0.50001  0.50000  0.50000  1.0000
  U   U6        1.0  0.00000  1.00000  0.00000  1.0000
  H   H1        1.0  0.15212  0.07256  0.78227  1.0000
  H   H2        1.0  0.65212  0.42745  0.71773  1.0000
  H   H3        1.0  0.84789  0.92745  0.21773  1.0000
  H   H4        1.0  0.34788  0.57256  0.28227  1.0000
  H   H5        1.0  0.03539  0.89281  0.76952  1.0000
  H   H6        1.0  0.53539  0.60719  0.73048  1.0000
  H   H7        1.0  0.96461  0.10719  0.23048  1.0000
  H   H8        1.0  0.46461  0.39281  0.26952  1.0000
  H   H9        1.0  0.45358  0.03103  0.69232  1.0000
  H   H10       1.0  0.95359  0.46897  0.80767  1.0000
  H   H11       1.0  0.54641  0.96897  0.30768  1.0000
  H   H12       1.0  0.04642  0.53103  0.19232  1.0000
  H   H13       1.0  0.36615  0.86335  0.61309  1.0000
  H   H14       1.0  0.86615  0.63665  0.88691  1.0000
  H   H15       1.0  0.63385  0.13665  0.38691  1.0000
  H   H16       1.0  0.13385  0.36335  0.11309  1.0000
  H   H17       1.0  0.94590  0.72387  0.68971  1.0000
  H   H18       1.0  0.44590  0.77613  0.81029  1.0000
  H   H19       1.0  0.05410  0.27613  0.31029  1.0000
  H   H20       1.0  0.55410  0.22387  0.18971  1.0000
  H   H21       1.0  0.87386  0.34127  0.52074  1.0000
  H   H22       1.0  0.37386  0.15873  0.97926  1.0000
  H   H23       1.0  0.12614  0.65873  0.47926  1.0000
  H   H24       1.0  0.62614  0.84127  0.02074  1.0000
  H   H25       1.0  0.95508  0.44664  0.56588  1.0000
  H   H26       1.0  0.45509  0.05336  0.93412  1.0000
  H   H27       1.0  0.04491  0.55336  0.43412  1.0000
  H   H28       1.0  0.54491  0.94664  0.06588  1.0000
  H   H29       1.0  0.84250  0.55305  0.02946  1.0000
  H   H30       1.0  0.34250  0.94695  0.47054  1.0000
  H   H31       1.0  0.15750  0.44695  0.97054  1.0000
  H   H32       1.0  0.65749  0.05306  0.52946  1.0000
  C   C1        1.0  0.94985  0.20544  0.84009  1.0000
  C   C2        1.0  0.44985  0.29457  0.65991  1.0000
  C   C3        1.0  0.05015  0.79456  0.15991  1.0000
  C   C4        1.0  0.55015  0.70544  0.34009  1.0000
  C   C5        1.0  0.99851  0.11069  0.79781  1.0000
  C   C6        1.0  0.49851  0.38931  0.70218  1.0000
  C   C7        1.0  0.00149  0.88931  0.20219  1.0000
  C   C8        1.0  0.50149  0.61069  0.29781  1.0000
  C   C9        1.0  0.08117  0.28847  0.88183  1.0000
  C   C10       1.0  0.58117  0.21153  0.61817  1.0000
  C   C11       1.0  0.91883  0.71153  0.11817  1.0000
  C   C12       1.0  0.41883  0.78847  0.38183  1.0000
  C   C13       1.0  0.89030  0.88590  0.73485  1.0000
  C   C14       1.0  0.39030  0.61410  0.76515  1.0000
  C   C15       1.0  0.10970  0.11410  0.26515  1.0000
  C   C16       1.0  0.60970  0.38590  0.23485  1.0000
  C   C17       1.0  0.75035  0.97138  0.73425  1.0000
  C   C18       1.0  0.25035  0.52863  0.76575  1.0000
  C   C19       1.0  0.24965  0.02863  0.26575  1.0000
  C   C20       1.0  0.74965  0.47138  0.23425  1.0000
  C   C21       1.0  0.56048  0.96385  0.69182  1.0000
  C   C22       1.0  0.06048  0.53615  0.80818  1.0000
  C   C23       1.0  0.43952  0.03615  0.30818  1.0000
  C   C24       1.0  0.93952  0.46385  0.19182  1.0000
  C   C25       1.0  0.60280  0.68572  0.59670  1.0000
  C   C26       1.0  0.10280  0.81428  0.90330  1.0000
  C   C27       1.0  0.39720  0.31428  0.40331  1.0000
  C   C28       1.0  0.89720  0.18572  0.09670  1.0000
  C   C29       1.0  0.65232  0.78404  0.64628  1.0000
  C   C30       1.0  0.15231  0.71596  0.85372  1.0000
  C   C31       1.0  0.34769  0.21596  0.35372  1.0000
  C   C32       1.0  0.84769  0.28404  0.14628  1.0000
  C   C33       1.0  0.51196  0.87001  0.64747  1.0000
  C   C34       1.0  0.01196  0.62999  0.85253  1.0000
  C   C35       1.0  0.48804  0.12999  0.35254  1.0000
  C   C36       1.0  0.98804  0.37001  0.14747  1.0000
  C   C37       1.0  0.83956  0.79183  0.69071  1.0000
  C   C38       1.0  0.33956  0.70817  0.80929  1.0000
  C   C39       1.0  0.16044  0.20817  0.30929  1.0000
  C   C40       1.0  0.66044  0.29183  0.19071  1.0000
  N   N1        1.0  0.63521  0.13432  0.80476  1.0000
  N   N2        1.0  0.13521  0.36568  0.69524  1.0000
  N   N3        1.0  0.36479  0.86568  0.19524  1.0000
  N   N4        1.0  0.86479  0.63432  0.30475  1.0000
  N   N5        1.0  0.80064  0.06932  0.77729  1.0000
  N   N6        1.0  0.30064  0.43068  0.72271  1.0000
  N   N7        1.0  0.19936  0.93068  0.22271  1.0000
  N   N8        1.0  0.69936  0.56932  0.27729  1.0000
  N   N9        1.0  0.72775  0.21566  0.84296  1.0000
  N   N10       1.0  0.22775  0.28434  0.65704  1.0000
  N   N11       1.0  0.27225  0.78434  0.15704  1.0000
  N   N12       1.0  0.77225  0.71566  0.34297  1.0000
  O   O1        1.0  0.97636  0.35286  0.92950  1.0000
  O   O2        1.0  0.47636  0.14714  0.57050  1.0000
  O   O3        1.0  0.02364  0.64714  0.07050  1.0000
  O   O4        1.0  0.52363  0.85287  0.42950  1.0000
  O   O5        1.0  0.70337  0.51354  0.02013  1.0000
  O   O6        1.0  0.20337  0.98646  0.47987  1.0000
  O   O7        1.0  0.29662  0.48646  0.97987  1.0000
  O   O8        1.0  0.79662  0.01355  0.52013  1.0000
  O   O9        1.0  0.62570  0.45348  0.85995  1.0000
  O   O10       1.0  0.12569  0.04652  0.64004  1.0000
  O   O11       1.0  0.37431  0.54652  0.14004  1.0000
  O   O12       1.0  0.87431  0.95348  0.35996  1.0000
  O   O13       1.0  0.28304  0.29492  0.86920  1.0000
  O   O14       1.0  0.78304  0.20508  0.63079  1.0000
  O   O15       1.0  0.71695  0.70508  0.13080  1.0000
  O   O16       1.0  0.21695  0.79492  0.36920  1.0000
  O   O17       1.0  0.53933  0.28804  0.00124  1.0000
  O   O18       1.0  0.03932  0.21197  0.49875  1.0000
  O   O19       1.0  0.46067  0.71197  0.99875  1.0000
  O   O20       1.0  0.96068  0.78803  0.50124  1.0000
  O   O21       1.0  0.29956  0.46513  0.56532  1.0000
  O   O22       1.0  0.79958  0.03486  0.93469  1.0000
  O   O23       1.0  0.70042  0.53486  0.43469  1.0000
  O   O24       1.0  0.20043  0.96513  0.06531  1.0000
  O   O25       1.0  0.70290  0.60011  0.60309  1.0000
  O   O26       1.0  0.20290  0.89989  0.89691  1.0000
  O   O27       1.0  0.29710  0.39989  0.39691  1.0000
  O   O28       1.0  0.79710  0.10011  0.10309  1.0000
  O   O29       1.0  0.45670  0.68487  0.54660  1.0000
  O   O30       1.0  0.95670  0.81512  0.95340  1.0000
  O   O31       1.0  0.54330  0.31512  0.45340  1.0000
  O   O32       1.0  0.04330  0.18487  0.04660  1.0000
  O   O33       1.0  0.82282  0.40798  0.54854  1.0000
  O   O34       1.0  0.32282  0.09202  0.95146  1.0000
  O   O35       1.0  0.17719  0.59202  0.45146  1.0000
  O   O36       1.0  0.67718  0.90797  0.04854  1.0000
