data_image0
_chemical_formula_structural       Er2Cu2H32C44S4N4O22
_chemical_formula_sum              "Er2 Cu2 H32 C44 S4 N4 O22"
_cell_length_a       9.45464
_cell_length_b       11.3068
_cell_length_c       12.282
_cell_angle_alpha    99.1343
_cell_angle_beta     100.356
_cell_angle_gamma    113.885

_space_group_name_H-M_alt    "P 1"
_space_group_IT_number       1

loop_
  _space_group_symop_operation_xyz
  'x, y, z'

loop_
  _atom_site_type_symbol
  _atom_site_label
  _atom_site_symmetry_multiplicity
  _atom_site_fract_x
  _atom_site_fract_y
  _atom_site_fract_z
  _atom_site_occupancy
  Er  Er1       1.0  0.30666  0.46487  0.09570  1.0000
  Er  Er2       1.0  0.69334  0.53513  0.90430  1.0000
  Cu  Cu1       1.0  0.25212  0.97477  0.59533  1.0000
  Cu  Cu2       1.0  0.74788  0.02523  0.40467  1.0000
  H   H1        1.0  0.74202  0.55091  0.41533  1.0000
  H   H2        1.0  0.25798  0.44909  0.58467  1.0000
  H   H3        1.0  0.90696  0.67590  0.29851  1.0000
  H   H4        1.0  0.09304  0.32410  0.70149  1.0000
  H   H5        1.0  0.28617  0.57750  0.43528  1.0000
  H   H6        1.0  0.71384  0.42250  0.56472  1.0000
  H   H7        1.0  0.45074  0.25190  0.23585  1.0000
  H   H8        1.0  0.54926  0.74810  0.76415  1.0000
  H   H9        1.0  0.50612  0.10930  0.35784  1.0000
  H   H10       1.0  0.49388  0.89070  0.64216  1.0000
  H   H11       1.0  0.93868  0.18956  0.27720  1.0000
  H   H12       1.0  0.06132  0.81044  0.72280  1.0000
  H   H13       1.0  0.90094  0.33470  0.15640  1.0000
  H   H14       1.0  0.09906  0.66530  0.84360  1.0000
  H   H15       1.0  0.57380  0.17819  0.86266  1.0000
  H   H16       1.0  0.42620  0.82180  0.13734  1.0000
  H   H17       1.0  0.76217  0.08028  0.90717  1.0000
  H   H18       1.0  0.23783  0.91972  0.09283  1.0000
  H   H19       1.0  0.16130  0.07297  0.99784  1.0000
  H   H20       1.0  0.83870  0.92703  0.00216  1.0000
  H   H21       1.0  0.40983  0.25566  0.62625  1.0000
  H   H22       1.0  0.59017  0.74433  0.37376  1.0000
  H   H23       1.0  0.43398  0.40781  0.49861  1.0000
  H   H24       1.0  0.56602  0.59219  0.50139  1.0000
  H   H25       1.0  0.08409  0.06654  0.22506  1.0000
  H   H26       1.0  0.91591  0.93346  0.77494  1.0000
  H   H27       1.0  0.07661  0.92531  0.36134  1.0000
  H   H28       1.0  0.92338  0.07469  0.63865  1.0000
  H   H29       1.0  0.97751  0.31820  0.92914  1.0000
  H   H30       1.0  0.02249  0.68180  0.07086  1.0000
  H   H31       1.0  0.94930  0.41166  0.02367  1.0000
  H   H32       1.0  0.05069  0.58834  0.97633  1.0000
  C   C1        1.0  0.86222  0.55908  0.42204  1.0000
  C   C2        1.0  0.13778  0.44093  0.57797  1.0000
  C   C3        1.0  0.95257  0.62772  0.35611  1.0000
  C   C4        1.0  0.04743  0.37228  0.64389  1.0000
  C   C5        1.0  0.10601  0.63354  0.36195  1.0000
  C   C6        1.0  0.89400  0.36647  0.63805  1.0000
  C   C7        1.0  0.16873  0.57376  0.43358  1.0000
  C   C8        1.0  0.83127  0.42625  0.56642  1.0000
  C   C9        1.0  0.92149  0.49605  0.49697  1.0000
  C   C10       1.0  0.07852  0.50395  0.50304  1.0000
  C   C11       1.0  0.56133  0.24232  0.24580  1.0000
  C   C12       1.0  0.43867  0.75768  0.75420  1.0000
  C   C13       1.0  0.59081  0.16273  0.31272  1.0000
  C   C14       1.0  0.40919  0.83728  0.68728  1.0000
  C   C15       1.0  0.83312  0.20751  0.26771  1.0000
  C   C16       1.0  0.16688  0.79249  0.73229  1.0000
  C   C17       1.0  0.81090  0.28897  0.20016  1.0000
  C   C18       1.0  0.18910  0.71103  0.79984  1.0000
  C   C19       1.0  0.50154  0.12132  0.91290  1.0000
  C   C20       1.0  0.49846  0.87868  0.08710  1.0000
  C   C21       1.0  0.54879  0.03679  0.96714  1.0000
  C   C22       1.0  0.45121  0.96321  0.03285  1.0000
  C   C23       1.0  0.68992  0.02388  0.95805  1.0000
  C   C24       1.0  0.31008  0.97611  0.04195  1.0000
  C   C25       1.0  0.26677  0.05959  0.98875  1.0000
  C   C26       1.0  0.73323  0.94040  0.01125  1.0000
  C   C27       1.0  0.36470  0.13233  0.92468  1.0000
  C   C28       1.0  0.63530  0.86767  0.07532  1.0000
  C   C29       1.0  0.34017  0.21797  0.53709  1.0000
  C   C30       1.0  0.65982  0.78202  0.46291  1.0000
  C   C31       1.0  0.35186  0.30202  0.46495  1.0000
  C   C32       1.0  0.64813  0.69798  0.53505  1.0000
  C   C33       1.0  0.25935  0.24933  0.35111  1.0000
  C   C34       1.0  0.74065  0.75067  0.64889  1.0000
  C   C35       1.0  0.15755  0.11192  0.31324  1.0000
  C   C36       1.0  0.84245  0.88808  0.68676  1.0000
  C   C37       1.0  0.15295  0.03255  0.38912  1.0000
  C   C38       1.0  0.84705  0.96745  0.61088  1.0000
  C   C39       1.0  0.67152  0.30669  0.18756  1.0000
  C   C40       1.0  0.32848  0.69331  0.81244  1.0000
  C   C41       1.0  0.63553  0.38705  0.10989  1.0000
  C   C42       1.0  0.36447  0.61296  0.89011  1.0000
  C   C43       1.0  0.27358  0.33578  0.26901  1.0000
  C   C44       1.0  0.72642  0.66422  0.73099  1.0000
  S   S1        1.0  0.30825  0.23702  0.85259  1.0000
  S   S2        1.0  0.69175  0.76298  0.14741  1.0000
  S   S3        1.0  0.21832  0.71450  0.27081  1.0000
  S   S4        1.0  0.78168  0.28550  0.72919  1.0000
  N   N1        1.0  0.24340  0.08461  0.49922  1.0000
  N   N2        1.0  0.75659  0.91539  0.50077  1.0000
  N   N3        1.0  0.72475  0.14399  0.32290  1.0000
  N   N4        1.0  0.27525  0.85600  0.67710  1.0000
  O   O1        1.0  0.18270  0.28058  0.16644  1.0000
  O   O2        1.0  0.81730  0.71942  0.83356  1.0000
  O   O3        1.0  0.37760  0.45784  0.29989  1.0000
  O   O4        1.0  0.62240  0.54217  0.70012  1.0000
  O   O5        1.0  0.22165  0.60292  0.18988  1.0000
  O   O6        1.0  0.77835  0.39708  0.81011  1.0000
  O   O7        1.0  0.23779  0.29987  0.92726  1.0000
  O   O8        1.0  0.76222  0.70013  0.07274  1.0000
  O   O9        1.0  0.12497  0.77207  0.20879  1.0000
  O   O10       1.0  0.87503  0.22793  0.79122  1.0000
  O   O11       1.0  0.37671  0.81288  0.34218  1.0000
  O   O12       1.0  0.62329  0.18713  0.65781  1.0000
  O   O13       1.0  0.51255  0.40663  0.10915  1.0000
  O   O14       1.0  0.48745  0.59338  0.89085  1.0000
  O   O15       1.0  0.45788  0.33545  0.83586  1.0000
  O   O16       1.0  0.54212  0.66455  0.16414  1.0000
  O   O17       1.0  0.19192  0.15083  0.74424  1.0000
  O   O18       1.0  0.80807  0.84917  0.25576  1.0000
  O   O19       1.0  0.72919  0.42809  0.04714  1.0000
  O   O20       1.0  0.27082  0.57192  0.95286  1.0000
  O   O21       1.0  0.02316  0.37396  0.00997  1.0000
  O   O22       1.0  0.97684  0.62604  0.99003  1.0000
