data_image0
_chemical_formula_structural       Cu2H14C10N4Cl2
_chemical_formula_sum              "Cu2 H14 C10 N4 Cl2"
_cell_length_a       6.3521
_cell_length_b       6.58777
_cell_length_c       8.23122
_cell_angle_alpha    79.0106
_cell_angle_beta     78.4873
_cell_angle_gamma    82.5734

_space_group_name_H-M_alt    "P 1"
_space_group_IT_number       1

loop_
  _space_group_symop_operation_xyz
  'x, y, z'

loop_
  _atom_site_type_symbol
  _atom_site_label
  _atom_site_symmetry_multiplicity
  _atom_site_fract_x
  _atom_site_fract_y
  _atom_site_fract_z
  _atom_site_occupancy
  Cu  Cu1       1.0  0.85244  0.88936  0.16648  1.0000
  Cu  Cu2       1.0  0.14756  0.11064  0.83351  1.0000
  H   H1        1.0  0.85068  0.35862  0.35062  1.0000
  H   H2        1.0  0.14931  0.64139  0.64939  1.0000
  H   H3        1.0  0.26829  0.77053  0.34630  1.0000
  H   H4        1.0  0.73170  0.22948  0.65370  1.0000
  H   H5        1.0  0.75310  0.63425  0.76497  1.0000
  H   H6        1.0  0.24691  0.36573  0.23504  1.0000
  H   H7        1.0  0.55263  0.85065  0.76289  1.0000
  H   H8        1.0  0.44737  0.14934  0.23711  1.0000
  H   H9        1.0  0.82146  0.88307  0.78544  1.0000
  H   H10       1.0  0.17855  0.11693  0.21456  1.0000
  H   H11       1.0  0.73700  0.55201  0.09465  1.0000
  H   H12       1.0  0.26299  0.44799  0.90535  1.0000
  H   H13       1.0  0.52191  0.72478  0.09754  1.0000
  H   H14       1.0  0.47809  0.27523  0.90246  1.0000
  C   C1        1.0  0.78578  0.85261  0.54384  1.0000
  C   C2        1.0  0.21421  0.14739  0.45616  1.0000
  C   C3        1.0  0.72535  0.80298  0.72408  1.0000
  C   C4        1.0  0.27466  0.19702  0.27589  1.0000
  C   C5        1.0  0.56942  0.57560  0.32845  1.0000
  C   C6        1.0  0.43056  0.42442  0.67155  1.0000
  C   C7        1.0  0.69678  0.42086  0.41616  1.0000
  C   C8        1.0  0.30324  0.57914  0.58383  1.0000
  C   C9        1.0  0.37146  0.65344  0.41386  1.0000
  C   C10       1.0  0.62854  0.34655  0.58616  1.0000
  N   N1        1.0  0.64897  0.66451  0.15808  1.0000
  N   N2        1.0  0.35103  0.33549  0.84192  1.0000
  N   N3        1.0  0.83568  0.89237  0.39785  1.0000
  N   N4        1.0  0.16433  0.10763  0.60215  1.0000
  Cl  Cl1       1.0  0.19155  0.78062  0.00508  1.0000
  Cl  Cl2       1.0  0.80844  0.21938  0.99492  1.0000
