data_image0
_chemical_formula_structural       Cd4H20C20N24Cl4O4
_chemical_formula_sum              "Cd4 H20 C20 N24 Cl4 O4"
_cell_length_a       7.56373
_cell_length_b       9.08173
_cell_length_c       13.9264
_cell_angle_alpha    89.9992
_cell_angle_beta     90.0002
_cell_angle_gamma    95.1237

_space_group_name_H-M_alt    "P 1"
_space_group_IT_number       1

loop_
  _space_group_symop_operation_xyz
  'x, y, z'

loop_
  _atom_site_type_symbol
  _atom_site_label
  _atom_site_symmetry_multiplicity
  _atom_site_fract_x
  _atom_site_fract_y
  _atom_site_fract_z
  _atom_site_occupancy
  Cd  Cd1       1.0  0.28901  0.56916  0.04410  1.0000
  Cd  Cd2       1.0  0.21100  0.93084  0.54410  1.0000
  Cd  Cd3       1.0  0.71100  0.43084  0.95590  1.0000
  Cd  Cd4       1.0  0.78900  0.06917  0.45589  1.0000
  H   H1        1.0  0.16719  0.85949  0.03162  1.0000
  H   H2        1.0  0.33281  0.64050  0.53163  1.0000
  H   H3        1.0  0.83281  0.14050  0.96838  1.0000
  H   H4        1.0  0.66719  0.35950  0.46838  1.0000
  H   H5        1.0  0.26387  0.85130  0.13561  1.0000
  H   H6        1.0  0.23612  0.64869  0.63561  1.0000
  H   H7        1.0  0.73613  0.14870  0.86439  1.0000
  H   H8        1.0  0.76388  0.35131  0.36439  1.0000
  H   H9        1.0  0.60902  0.62913  0.21803  1.0000
  H   H10       1.0  0.89100  0.87089  0.71802  1.0000
  H   H11       1.0  0.39098  0.37088  0.78198  1.0000
  H   H12       1.0  0.10900  0.12911  0.28198  1.0000
  H   H13       1.0  0.62504  0.63999  0.40052  1.0000
  H   H14       1.0  0.87497  0.86002  0.90052  1.0000
  H   H15       1.0  0.37495  0.36000  0.59948  1.0000
  H   H16       1.0  0.12503  0.13998  0.09948  1.0000
  H   H17       1.0  0.09040  0.48943  0.41558  1.0000
  H   H18       1.0  0.40963  0.01056  0.91559  1.0000
  H   H19       1.0  0.90960  0.51057  0.58442  1.0000
  H   H20       1.0  0.59038  0.98943  0.08441  1.0000
  C   C1        1.0  0.03480  0.46858  0.22011  1.0000
  C   C2        1.0  0.46523  0.03143  0.72010  1.0000
  C   C3        1.0  0.96520  0.53142  0.77989  1.0000
  C   C4        1.0  0.53477  0.96858  0.27989  1.0000
  C   C5        1.0  0.19855  0.51302  0.27136  1.0000
  C   C6        1.0  0.30147  0.98698  0.77136  1.0000
  C   C7        1.0  0.80145  0.48698  0.72864  1.0000
  C   C8        1.0  0.69853  0.01302  0.22864  1.0000
  C   C9        1.0  0.49440  0.59626  0.26292  1.0000
  C   C10       1.0  0.00562  0.90376  0.76292  1.0000
  C   C11       1.0  0.50560  0.40375  0.73708  1.0000
  C   C12       1.0  0.99437  0.09624  0.23708  1.0000
  C   C13       1.0  0.50266  0.60147  0.36309  1.0000
  C   C14       1.0  0.99736  0.89854  0.86309  1.0000
  C   C15       1.0  0.49734  0.39853  0.63691  1.0000
  C   C16       1.0  0.00265  0.10146  0.13691  1.0000
  C   C17       1.0  0.20755  0.51907  0.37175  1.0000
  C   C18       1.0  0.29247  0.98092  0.87175  1.0000
  C   C19       1.0  0.79245  0.48093  0.62825  1.0000
  C   C20       1.0  0.70753  0.01907  0.12824  1.0000
  N   N1        1.0  0.02369  0.46985  0.12390  1.0000
  N   N2        1.0  0.47633  0.03015  0.62389  1.0000
  N   N3        1.0  0.97631  0.53015  0.87610  1.0000
  N   N4        1.0  0.52367  0.96985  0.37610  1.0000
  N   N5        1.0  0.85506  0.42284  0.10449  1.0000
  N   N6        1.0  0.64496  0.07716  0.60449  1.0000
  N   N7        1.0  0.14494  0.57717  0.89551  1.0000
  N   N8        1.0  0.35504  0.92284  0.39551  1.0000
  N   N9        1.0  0.76610  0.39328  0.18509  1.0000
  N   N10       1.0  0.73392  0.10673  0.68508  1.0000
  N   N11       1.0  0.23390  0.60673  0.81491  1.0000
  N   N12       1.0  0.26608  0.89327  0.31492  1.0000
  N   N13       1.0  0.87659  0.42157  0.25918  1.0000
  N   N14       1.0  0.62343  0.07844  0.75918  1.0000
  N   N15       1.0  0.12341  0.57843  0.74082  1.0000
  N   N16       1.0  0.37656  0.92156  0.24082  1.0000
  N   N17       1.0  0.34312  0.55274  0.21758  1.0000
  N   N18       1.0  0.15689  0.94727  0.71757  1.0000
  N   N19       1.0  0.65687  0.44726  0.78243  1.0000
  N   N20       1.0  0.84310  0.05273  0.28242  1.0000
  N   N21       1.0  0.35851  0.56390  0.41685  1.0000
  N   N22       1.0  0.14152  0.93610  0.91684  1.0000
  N   N23       1.0  0.64149  0.43610  0.58316  1.0000
  N   N24       1.0  0.85849  0.06390  0.08316  1.0000
  Cl  Cl1       1.0  0.60271  0.69150  0.99978  1.0000
  Cl  Cl2       1.0  0.89730  0.80851  0.49978  1.0000
  Cl  Cl3       1.0  0.39730  0.30850  0.00023  1.0000
  Cl  Cl4       1.0  0.10270  0.19149  0.50022  1.0000
  O   O1        1.0  0.18669  0.79443  0.08791  1.0000
  O   O2        1.0  0.31330  0.70556  0.58791  1.0000
  O   O3        1.0  0.81331  0.20557  0.91209  1.0000
  O   O4        1.0  0.68670  0.29444  0.41209  1.0000
