data_image0
_chemical_formula_structural       Cd4H20C20Br4N24O4
_chemical_formula_sum              "Cd4 H20 C20 Br4 N24 O4"
_cell_length_a       7.70751
_cell_length_b       9.12726
_cell_length_c       13.9231
_cell_angle_alpha    90
_cell_angle_beta     89.9974
_cell_angle_gamma    94.6978

_space_group_name_H-M_alt    "P 1"
_space_group_IT_number       1

loop_
  _space_group_symop_operation_xyz
  'x, y, z'

loop_
  _atom_site_type_symbol
  _atom_site_label
  _atom_site_symmetry_multiplicity
  _atom_site_fract_x
  _atom_site_fract_y
  _atom_site_fract_z
  _atom_site_occupancy
  Cd  Cd1       1.0  0.71719  0.92862  0.45535  1.0000
  Cd  Cd2       1.0  0.78282  0.57139  0.95536  1.0000
  Cd  Cd3       1.0  0.28281  0.07139  0.54465  1.0000
  Cd  Cd4       1.0  0.21718  0.42861  0.04464  1.0000
  H   H1        1.0  0.83173  0.63992  0.46725  1.0000
  H   H2        1.0  0.66830  0.86010  0.96727  1.0000
  H   H3        1.0  0.16827  0.36008  0.53275  1.0000
  H   H4        1.0  0.33170  0.13990  0.03273  1.0000
  H   H5        1.0  0.73799  0.64823  0.36334  1.0000
  H   H6        1.0  0.76198  0.85176  0.86334  1.0000
  H   H7        1.0  0.26200  0.35177  0.63666  1.0000
  H   H8        1.0  0.23802  0.14824  0.13666  1.0000
  H   H9        1.0  0.40275  0.87665  0.28193  1.0000
  H   H10       1.0  0.09730  0.62337  0.78192  1.0000
  H   H11       1.0  0.59725  0.12335  0.71807  1.0000
  H   H12       1.0  0.90270  0.37662  0.21808  1.0000
  H   H13       1.0  0.38658  0.86708  0.09933  1.0000
  H   H14       1.0  0.11349  0.63295  0.59932  1.0000
  H   H15       1.0  0.61343  0.13292  0.90067  1.0000
  H   H16       1.0  0.88651  0.36704  0.40068  1.0000
  H   H17       1.0  0.91481  0.99858  0.08429  1.0000
  H   H18       1.0  0.58525  0.50146  0.58429  1.0000
  H   H19       1.0  0.08519  0.00142  0.91572  1.0000
  H   H20       1.0  0.41474  0.49855  0.41571  1.0000
  C   C1        1.0  0.96751  0.02765  0.27958  1.0000
  C   C2        1.0  0.53254  0.47237  0.77958  1.0000
  C   C3        1.0  0.03249  0.97235  0.72042  1.0000
  C   C4        1.0  0.46746  0.52763  0.22042  1.0000
  C   C5        1.0  0.80724  0.98321  0.22836  1.0000
  C   C6        1.0  0.69282  0.51682  0.72836  1.0000
  C   C7        1.0  0.19276  0.01679  0.77164  1.0000
  C   C8        1.0  0.30718  0.48318  0.27164  1.0000
  C   C9        1.0  0.51575  0.90650  0.23696  1.0000
  C   C10       1.0  0.98430  0.59352  0.73695  1.0000
  C   C11       1.0  0.48425  0.09350  0.76304  1.0000
  C   C12       1.0  0.01570  0.40647  0.26305  1.0000
  C   C13       1.0  0.50759  0.90117  0.13679  1.0000
  C   C14       1.0  0.99248  0.59886  0.63678  1.0000
  C   C15       1.0  0.49242  0.09883  0.86321  1.0000
  C   C16       1.0  0.00752  0.40114  0.36321  1.0000
  C   C17       1.0  0.79885  0.97443  0.12800  1.0000
  C   C18       1.0  0.70122  0.52561  0.62799  1.0000
  C   C19       1.0  0.20116  0.02558  0.87200  1.0000
  C   C20       1.0  0.29878  0.47440  0.37200  1.0000
  Br  Br1       1.0  0.60244  0.20283  0.49593  1.0000
  Br  Br2       1.0  0.89755  0.29718  0.99591  1.0000
  Br  Br3       1.0  0.39755  0.79718  0.50406  1.0000
  Br  Br4       1.0  0.10246  0.70282  0.00409  1.0000
  N   N1        1.0  0.97800  0.02655  0.37588  1.0000
  N   N2        1.0  0.52203  0.47346  0.87587  1.0000
  N   N3        1.0  0.02199  0.97345  0.62412  1.0000
  N   N4        1.0  0.47797  0.52654  0.12412  1.0000
  N   N5        1.0  0.14265  0.07442  0.39546  1.0000
  N   N6        1.0  0.35738  0.42558  0.89545  1.0000
  N   N7        1.0  0.85735  0.92558  0.60454  1.0000
  N   N8        1.0  0.64262  0.57441  0.10455  1.0000
  N   N9        1.0  0.22989  0.10432  0.31491  1.0000
  N   N10       1.0  0.27015  0.39570  0.81490  1.0000
  N   N11       1.0  0.77011  0.89568  0.68510  1.0000
  N   N12       1.0  0.72985  0.60430  0.18510  1.0000
  N   N13       1.0  0.12227  0.07542  0.24066  1.0000
  N   N14       1.0  0.37779  0.42460  0.74066  1.0000
  N   N15       1.0  0.87773  0.92458  0.75934  1.0000
  N   N16       1.0  0.62221  0.57540  0.25934  1.0000
  N   N17       1.0  0.66471  0.94722  0.28217  1.0000
  N   N18       1.0  0.83534  0.55281  0.78216  1.0000
  N   N19       1.0  0.33529  0.05278  0.71783  1.0000
  N   N20       1.0  0.16466  0.44719  0.21784  1.0000
  N   N21       1.0  0.64990  0.93335  0.08297  1.0000
  N   N22       1.0  0.85018  0.56668  0.58297  1.0000
  N   N23       1.0  0.35011  0.06664  0.91703  1.0000
  N   N24       1.0  0.14982  0.43332  0.41703  1.0000
  O   O1        1.0  0.81701  0.70372  0.40975  1.0000
  O   O2        1.0  0.68299  0.79628  0.90977  1.0000
  O   O3        1.0  0.18299  0.29628  0.59025  1.0000
  O   O4        1.0  0.31701  0.20372  0.09023  1.0000
