data_image0
_chemical_formula_structural       Cu4H28C28N8O4
_chemical_formula_sum              "Cu4 H28 C28 N8 O4"
_cell_length_a       9.02575
_cell_length_b       9.02569
_cell_length_c       9.92165
_cell_angle_alpha    104.381
_cell_angle_beta     104.381
_cell_angle_gamma    109.315

_space_group_name_H-M_alt    "P 1"
_space_group_IT_number       1

loop_
  _space_group_symop_operation_xyz
  'x, y, z'

loop_
  _atom_site_type_symbol
  _atom_site_label
  _atom_site_symmetry_multiplicity
  _atom_site_fract_x
  _atom_site_fract_y
  _atom_site_fract_z
  _atom_site_occupancy
  Cu  Cu1       1.0  0.04915  0.95085  0.25000  1.0000
  Cu  Cu2       1.0  0.95085  0.04915  0.75000  1.0000
  Cu  Cu3       1.0  0.88285  0.11714  0.25000  1.0000
  Cu  Cu4       1.0  0.11715  0.88285  0.75000  1.0000
  H   H1        1.0  0.36181  0.01419  0.43946  1.0000
  H   H2        1.0  0.98582  0.63820  0.06054  1.0000
  H   H3        1.0  0.63819  0.98581  0.56054  1.0000
  H   H4        1.0  0.01418  0.36180  0.93946  1.0000
  H   H5        1.0  0.54888  0.17690  0.70883  1.0000
  H   H6        1.0  0.82311  0.45112  0.79117  1.0000
  H   H7        1.0  0.45112  0.82310  0.29117  1.0000
  H   H8        1.0  0.17689  0.54888  0.20883  1.0000
  H   H9        1.0  0.46412  0.37990  0.86316  1.0000
  H   H10       1.0  0.62011  0.53588  0.63684  1.0000
  H   H11       1.0  0.53588  0.62010  0.13684  1.0000
  H   H12       1.0  0.37989  0.46412  0.36315  1.0000
  H   H13       1.0  0.19913  0.40178  0.74623  1.0000
  H   H14       1.0  0.59822  0.80086  0.75376  1.0000
  H   H15       1.0  0.80086  0.59822  0.25377  1.0000
  H   H16       1.0  0.40178  0.19914  0.24624  1.0000
  H   H17       1.0  0.65715  0.28602  0.50978  1.0000
  H   H18       1.0  0.71398  0.34285  0.99022  1.0000
  H   H19       1.0  0.34285  0.71398  0.49022  1.0000
  H   H20       1.0  0.28603  0.65716  0.00978  1.0000
  H   H21       1.0  0.68081  0.19666  0.33810  1.0000
  H   H22       1.0  0.80334  0.31919  0.16190  1.0000
  H   H23       1.0  0.31919  0.80334  0.66190  1.0000
  H   H24       1.0  0.19667  0.68082  0.83810  1.0000
  H   H25       1.0  0.79025  0.41724  0.44096  1.0000
  H   H26       1.0  0.58276  0.20974  0.05904  1.0000
  H   H27       1.0  0.20975  0.58277  0.55904  1.0000
  H   H28       1.0  0.41724  0.79026  0.94096  1.0000
  C   C1        1.0  0.33100  0.10037  0.51385  1.0000
  C   C2        1.0  0.89963  0.66900  0.98615  1.0000
  C   C3        1.0  0.66900  0.89963  0.48615  1.0000
  C   C4        1.0  0.10036  0.33100  0.01384  1.0000
  C   C5        1.0  0.43461  0.19229  0.66157  1.0000
  C   C6        1.0  0.80772  0.56539  0.83844  1.0000
  C   C7        1.0  0.56539  0.80771  0.33844  1.0000
  C   C8        1.0  0.19228  0.43461  0.16156  1.0000
  C   C9        1.0  0.38599  0.30301  0.74664  1.0000
  C   C10       1.0  0.69699  0.61400  0.75336  1.0000
  C   C11       1.0  0.61400  0.69698  0.25336  1.0000
  C   C12       1.0  0.30301  0.38600  0.24664  1.0000
  C   C13       1.0  0.23842  0.31611  0.68235  1.0000
  C   C14       1.0  0.68389  0.76159  0.81765  1.0000
  C   C15       1.0  0.76159  0.68389  0.31765  1.0000
  C   C16       1.0  0.31610  0.23841  0.18235  1.0000
  C   C17       1.0  0.13426  0.21419  0.53234  1.0000
  C   C18       1.0  0.78581  0.86575  0.96766  1.0000
  C   C19       1.0  0.86575  0.78581  0.46766  1.0000
  C   C20       1.0  0.21419  0.13425  0.03234  1.0000
  C   C21       1.0  0.89352  0.26868  0.53921  1.0000
  C   C22       1.0  0.73132  0.10648  0.96078  1.0000
  C   C23       1.0  0.10648  0.73132  0.46079  1.0000
  C   C24       1.0  0.26868  0.89352  0.03922  1.0000
  C   C25       1.0  0.74598  0.29281  0.45127  1.0000
  C   C26       1.0  0.70718  0.25401  0.04873  1.0000
  C   C27       1.0  0.25402  0.70719  0.54873  1.0000
  C   C28       1.0  0.29282  0.74599  0.95127  1.0000
  N   N1        1.0  0.18352  0.10761  0.44994  1.0000
  N   N2        1.0  0.89239  0.81648  0.05006  1.0000
  N   N3        1.0  0.81648  0.89239  0.55006  1.0000
  N   N4        1.0  0.10761  0.18352  0.94994  1.0000
  N   N5        1.0  0.98430  0.21971  0.45981  1.0000
  N   N6        1.0  0.78029  0.01570  0.04018  1.0000
  N   N7        1.0  0.01570  0.78029  0.54019  1.0000
  N   N8        1.0  0.21971  0.98430  0.95981  1.0000
  O   O1        1.0  0.92208  0.29074  0.67483  1.0000
  O   O2        1.0  0.70924  0.07792  0.82517  1.0000
  O   O3        1.0  0.07792  0.70925  0.32517  1.0000
  O   O4        1.0  0.29075  0.92208  0.17483  1.0000
