data_image0
_chemical_formula_structural       Cd4H20C20I4N24O4
_chemical_formula_sum              "Cd4 H20 C20 I4 N24 O4"
_cell_length_a       7.25804
_cell_length_b       10.1211
_cell_length_c       14.917
_cell_angle_alpha    89.9999
_cell_angle_beta     93.8937
_cell_angle_gamma    90

_space_group_name_H-M_alt    "P 1"
_space_group_IT_number       1

loop_
  _space_group_symop_operation_xyz
  'x, y, z'

loop_
  _atom_site_type_symbol
  _atom_site_label
  _atom_site_symmetry_multiplicity
  _atom_site_fract_x
  _atom_site_fract_y
  _atom_site_fract_z
  _atom_site_occupancy
  Cd  Cd1       1.0  0.90283  0.94661  0.14721  1.0000
  Cd  Cd2       1.0  0.59717  0.44661  0.35279  1.0000
  Cd  Cd3       1.0  0.09717  0.05339  0.85279  1.0000
  Cd  Cd4       1.0  0.40283  0.55339  0.64721  1.0000
  H   H1        1.0  0.00793  0.79483  0.34635  1.0000
  H   H2        1.0  0.49207  0.29483  0.15365  1.0000
  H   H3        1.0  0.99207  0.20517  0.65365  1.0000
  H   H4        1.0  0.50793  0.70516  0.84635  1.0000
  H   H5        1.0  0.24681  0.63724  0.41580  1.0000
  H   H6        1.0  0.25319  0.13724  0.08420  1.0000
  H   H7        1.0  0.75319  0.36276  0.58420  1.0000
  H   H8        1.0  0.74681  0.86276  0.91580  1.0000
  H   H9        1.0  0.50143  0.62104  0.17486  1.0000
  H   H10       1.0  0.99857  0.12104  0.32514  1.0000
  H   H11       1.0  0.49857  0.37896  0.82514  1.0000
  H   H12       1.0  0.00143  0.87896  0.67486  1.0000
  H   H13       1.0  0.81213  0.67119  0.11295  1.0000
  H   H14       1.0  0.68787  0.17119  0.38705  1.0000
  H   H15       1.0  0.18787  0.32881  0.88705  1.0000
  H   H16       1.0  0.31213  0.82881  0.61295  1.0000
  H   H17       1.0  0.65209  0.75415  0.06090  1.0000
  H   H18       1.0  0.84791  0.25415  0.43910  1.0000
  H   H19       1.0  0.34791  0.24585  0.93910  1.0000
  H   H20       1.0  0.15209  0.74585  0.56090  1.0000
  C   C1        1.0  0.28363  0.81146  0.08746  1.0000
  C   C2        1.0  0.21637  0.31146  0.41255  1.0000
  C   C3        1.0  0.71637  0.18854  0.91254  1.0000
  C   C4        1.0  0.78363  0.68854  0.58746  1.0000
  C   C5        1.0  0.26861  0.75689  0.17687  1.0000
  C   C6        1.0  0.23139  0.25689  0.32313  1.0000
  C   C7        1.0  0.73139  0.24311  0.82313  1.0000
  C   C8        1.0  0.76861  0.74311  0.67687  1.0000
  C   C9        1.0  0.12187  0.75925  0.30882  1.0000
  C   C10       1.0  0.37813  0.25925  0.19118  1.0000
  C   C11       1.0  0.87813  0.24075  0.69118  1.0000
  C   C12       1.0  0.62187  0.74075  0.80882  1.0000
  C   C13       1.0  0.25162  0.66979  0.34657  1.0000
  C   C14       1.0  0.24838  0.16979  0.15343  1.0000
  C   C15       1.0  0.74838  0.33021  0.65343  1.0000
  C   C16       1.0  0.75162  0.83021  0.84657  1.0000
  C   C17       1.0  0.39295  0.66258  0.21356  1.0000
  C   C18       1.0  0.10705  0.16258  0.28644  1.0000
  C   C19       1.0  0.60705  0.33742  0.78643  1.0000
  C   C20       1.0  0.89295  0.83742  0.71356  1.0000
  I   I1        1.0  0.66049  0.96141  0.28842  1.0000
  I   I2        1.0  0.83952  0.46141  0.21157  1.0000
  I   I3        1.0  0.33951  0.03859  0.71158  1.0000
  I   I4        1.0  0.16048  0.53859  0.78843  1.0000
  N   N1        1.0  0.15905  0.89458  0.04793  1.0000
  N   N2        1.0  0.34096  0.39458  0.45207  1.0000
  N   N3        1.0  0.84095  0.10542  0.95207  1.0000
  N   N4        1.0  0.65905  0.60542  0.54793  1.0000
  N   N5        1.0  0.22612  0.92354  0.96883  1.0000
  N   N6        1.0  0.27388  0.42354  0.53117  1.0000
  N   N7        1.0  0.77388  0.07646  0.03117  1.0000
  N   N8        1.0  0.72612  0.57646  0.46883  1.0000
  N   N9        1.0  0.38468  0.86165  0.96039  1.0000
  N   N10       1.0  0.11532  0.36165  0.53961  1.0000
  N   N11       1.0  0.61532  0.13835  0.03961  1.0000
  N   N12       1.0  0.88468  0.63835  0.46039  1.0000
  N   N13       1.0  0.42371  0.79010  0.03427  1.0000
  N   N14       1.0  0.07629  0.29010  0.46573  1.0000
  N   N15       1.0  0.57629  0.20990  0.96573  1.0000
  N   N16       1.0  0.92371  0.70990  0.53427  1.0000
  N   N17       1.0  0.13109  0.80256  0.22475  1.0000
  N   N18       1.0  0.36891  0.30257  0.27525  1.0000
  N   N19       1.0  0.86891  0.19743  0.77525  1.0000
  N   N20       1.0  0.63109  0.69743  0.72475  1.0000
  N   N21       1.0  0.38434  0.62032  0.29810  1.0000
  N   N22       1.0  0.11566  0.12032  0.20190  1.0000
  N   N23       1.0  0.61566  0.37968  0.70190  1.0000
  N   N24       1.0  0.88434  0.87968  0.79810  1.0000
  O   O1        1.0  0.78959  0.75060  0.07552  1.0000
  O   O2        1.0  0.71041  0.25060  0.42448  1.0000
  O   O3        1.0  0.21041  0.24940  0.92448  1.0000
  O   O4        1.0  0.28959  0.74940  0.57552  1.0000
