data_image0
_chemical_formula_structural       Cd2H22C28N2O12
_chemical_formula_sum              "Cd2 H22 C28 N2 O12"
_cell_length_a       8.35579
_cell_length_b       8.90879
_cell_length_c       10.1561
_cell_angle_alpha    70.4857
_cell_angle_beta     66.4416
_cell_angle_gamma    80.9168

_space_group_name_H-M_alt    "P 1"
_space_group_IT_number       1

loop_
  _space_group_symop_operation_xyz
  'x, y, z'

loop_
  _atom_site_type_symbol
  _atom_site_label
  _atom_site_symmetry_multiplicity
  _atom_site_fract_x
  _atom_site_fract_y
  _atom_site_fract_z
  _atom_site_occupancy
  Cd  Cd1       1.0  0.81821  0.57991  0.41308  1.0000
  Cd  Cd2       1.0  0.18179  0.42009  0.58692  1.0000
  H   H1        1.0  0.27512  0.14567  0.35604  1.0000
  H   H2        1.0  0.72488  0.85433  0.64396  1.0000
  H   H3        1.0  0.31669  0.93544  0.42068  1.0000
  H   H4        1.0  0.68331  0.06456  0.57932  1.0000
  H   H5        1.0  0.55418  0.20172  0.32737  1.0000
  H   H6        1.0  0.44582  0.79828  0.67263  1.0000
  H   H7        1.0  0.55370  0.18586  0.90862  1.0000
  H   H8        1.0  0.44630  0.81414  0.09138  1.0000
  H   H9        1.0  0.83876  0.54754  0.91246  1.0000
  H   H10       1.0  0.16124  0.45246  0.08754  1.0000
  H   H11       1.0  0.78862  0.90246  0.19310  1.0000
  H   H12       1.0  0.21138  0.09754  0.80689  1.0000
  H   H13       1.0  0.94596  0.16090  0.04375  1.0000
  H   H14       1.0  0.05404  0.83910  0.95625  1.0000
  H   H15       1.0  0.18294  0.21896  0.10554  1.0000
  H   H16       1.0  0.81706  0.78104  0.89446  1.0000
  H   H17       1.0  0.07868  0.77459  0.46564  1.0000
  H   H18       1.0  0.92132  0.22541  0.53436  1.0000
  H   H19       1.0  0.51424  0.68674  0.34485  1.0000
  H   H20       1.0  0.48577  0.31327  0.65515  1.0000
  H   H21       1.0  0.45077  0.68040  0.51115  1.0000
  H   H22       1.0  0.54923  0.31960  0.48885  1.0000
  C   C1        1.0  0.29645  0.03315  0.32809  1.0000
  C   C2        1.0  0.70354  0.96685  0.67191  1.0000
  C   C3        1.0  0.75572  0.46252  0.21275  1.0000
  C   C4        1.0  0.24429  0.53748  0.78725  1.0000
  C   C5        1.0  0.59249  0.25237  0.20591  1.0000
  C   C6        1.0  0.40751  0.74763  0.79409  1.0000
  C   C7        1.0  0.54363  0.18022  0.12520  1.0000
  C   C8        1.0  0.45636  0.81978  0.87480  1.0000
  C   C9        1.0  0.59553  0.24268  0.96886  1.0000
  C   C10       1.0  0.40446  0.75732  0.03114  1.0000
  C   C11       1.0  0.69740  0.38647  0.12899  1.0000
  C   C12       1.0  0.30260  0.61353  0.87101  1.0000
  C   C13       1.0  0.75303  0.44686  0.97252  1.0000
  C   C14       1.0  0.24698  0.55314  0.02748  1.0000
  C   C15       1.0  0.70068  0.37634  0.89263  1.0000
  C   C16       1.0  0.29932  0.62365  0.10737  1.0000
  C   C17       1.0  0.75098  0.44851  0.72669  1.0000
  C   C18       1.0  0.24902  0.55149  0.27331  1.0000
  C   C19       1.0  0.89080  0.93523  0.21867  1.0000
  C   C20       1.0  0.10920  0.06477  0.78132  1.0000
  C   C21       1.0  0.97775  0.07798  0.13679  1.0000
  C   C22       1.0  0.02226  0.92202  0.86321  1.0000
  C   C23       1.0  0.10872  0.11105  0.17350  1.0000
  C   C24       1.0  0.89129  0.88895  0.82650  1.0000
  C   C25       1.0  0.14703  0.00301  0.29427  1.0000
  C   C26       1.0  0.85297  0.99699  0.70573  1.0000
  C   C27       1.0  0.05348  0.86324  0.37121  1.0000
  C   C28       1.0  0.94652  0.13676  0.62879  1.0000
  N   N1        1.0  0.92964  0.82908  0.33254  1.0000
  N   N2        1.0  0.07036  0.17092  0.66746  1.0000
  O   O1        1.0  0.73710  0.38263  0.35042  1.0000
  O   O2        1.0  0.26291  0.61737  0.64959  1.0000
  O   O3        1.0  0.82029  0.59892  0.14994  1.0000
  O   O4        1.0  0.17971  0.40107  0.85006  1.0000
  O   O5        1.0  0.65708  0.42410  0.66350  1.0000
  O   O6        1.0  0.34292  0.57590  0.33649  1.0000
  O   O7        1.0  0.88559  0.53612  0.65068  1.0000
  O   O8        1.0  0.11441  0.46388  0.34932  1.0000
  O   O9        1.0  0.45033  0.04297  0.19221  1.0000
  O   O10       1.0  0.54966  0.95703  0.80779  1.0000
  O   O11       1.0  0.55115  0.71689  0.41309  1.0000
  O   O12       1.0  0.44885  0.28311  0.58691  1.0000
