data_image0
_chemical_formula_structural       Hg4H36C40N4Cl8O4
_chemical_formula_sum              "Hg4 H36 C40 N4 Cl8 O4"
_cell_length_a       3.91142
_cell_length_b       10.7198
_cell_length_c       26.106
_cell_angle_alpha    89.9996
_cell_angle_beta     90.0006
_cell_angle_gamma    91.0611

_space_group_name_H-M_alt    "P 1"
_space_group_IT_number       1

loop_
  _space_group_symop_operation_xyz
  'x, y, z'

loop_
  _atom_site_type_symbol
  _atom_site_label
  _atom_site_symmetry_multiplicity
  _atom_site_fract_x
  _atom_site_fract_y
  _atom_site_fract_z
  _atom_site_occupancy
  Hg  Hg1       1.0  0.22074  0.67255  0.03047  1.0000
  Hg  Hg2       1.0  0.77925  0.82745  0.53047  1.0000
  Hg  Hg3       1.0  0.77926  0.32745  0.96953  1.0000
  Hg  Hg4       1.0  0.22077  0.17255  0.46953  1.0000
  H   H1        1.0  0.85571  0.09277  0.19282  1.0000
  H   H2        1.0  0.14435  0.40724  0.69282  1.0000
  H   H3        1.0  0.14431  0.90723  0.80718  1.0000
  H   H4        1.0  0.85561  0.59276  0.30718  1.0000
  H   H5        1.0  0.47624  0.65067  0.13593  1.0000
  H   H6        1.0  0.52376  0.84933  0.63593  1.0000
  H   H7        1.0  0.52377  0.34933  0.86407  1.0000
  H   H8        1.0  0.47625  0.15067  0.36407  1.0000
  H   H9        1.0  0.94181  0.94982  0.03944  1.0000
  H   H10       1.0  0.05818  0.55020  0.53944  1.0000
  H   H11       1.0  0.05819  0.05019  0.96056  1.0000
  H   H12       1.0  0.94182  0.44980  0.46056  1.0000
  H   H13       1.0  0.09230  0.96433  0.26437  1.0000
  H   H14       1.0  0.90772  0.53567  0.76437  1.0000
  H   H15       1.0  0.90773  0.03566  0.73563  1.0000
  H   H16       1.0  0.09225  0.46433  0.23563  1.0000
  H   H17       1.0  0.59292  0.61991  0.22856  1.0000
  H   H18       1.0  0.40707  0.88009  0.72856  1.0000
  H   H19       1.0  0.40708  0.38008  0.77143  1.0000
  H   H20       1.0  0.59294  0.11992  0.27144  1.0000
  H   H21       1.0  0.75734  0.11732  0.09870  1.0000
  H   H22       1.0  0.24271  0.38270  0.59870  1.0000
  H   H23       1.0  0.24266  0.88268  0.90130  1.0000
  H   H24       1.0  0.75728  0.61730  0.40130  1.0000
  H   H25       1.0  0.36857  0.80075  0.37760  1.0000
  H   H26       1.0  0.63142  0.69924  0.87760  1.0000
  H   H27       1.0  0.63144  0.19924  0.62240  1.0000
  H   H28       1.0  0.36858  0.30076  0.12240  1.0000
  H   H29       1.0  0.01085  0.84322  0.33890  1.0000
  H   H30       1.0  0.98915  0.65677  0.83890  1.0000
  H   H31       1.0  0.98917  0.15677  0.66110  1.0000
  H   H32       1.0  0.01085  0.34323  0.16110  1.0000
  H   H33       1.0  0.39749  0.93620  0.33760  1.0000
  H   H34       1.0  0.60250  0.56379  0.83760  1.0000
  H   H35       1.0  0.60252  0.06379  0.66240  1.0000
  H   H36       1.0  0.39749  0.43621  0.16240  1.0000
  C   C1        1.0  0.94130  0.02219  0.16595  1.0000
  C   C2        1.0  0.05873  0.47781  0.66595  1.0000
  C   C3        1.0  0.05872  0.97781  0.83405  1.0000
  C   C4        1.0  0.94123  0.52219  0.33405  1.0000
  C   C5        1.0  0.21259  0.82463  0.14706  1.0000
  C   C6        1.0  0.78741  0.67537  0.64706  1.0000
  C   C7        1.0  0.78742  0.17537  0.85294  1.0000
  C   C8        1.0  0.21257  0.32463  0.35294  1.0000
  C   C9        1.0  0.38838  0.71793  0.16416  1.0000
  C   C10       1.0  0.61161  0.78207  0.66416  1.0000
  C   C11       1.0  0.61163  0.28207  0.83584  1.0000
  C   C12       1.0  0.38837  0.21793  0.33584  1.0000
  C   C13       1.0  0.34595  0.78935  0.25228  1.0000
  C   C14       1.0  0.65405  0.71065  0.75228  1.0000
  C   C15       1.0  0.65405  0.21065  0.74772  1.0000
  C   C16       1.0  0.34593  0.28936  0.24772  1.0000
  C   C17       1.0  0.99216  0.94236  0.08040  1.0000
  C   C18       1.0  0.00786  0.55764  0.58040  1.0000
  C   C19       1.0  0.00785  0.05764  0.91960  1.0000
  C   C20       1.0  0.99213  0.44236  0.41960  1.0000
  C   C21       1.0  0.17618  0.89509  0.23681  1.0000
  C   C22       1.0  0.82381  0.60491  0.73681  1.0000
  C   C23       1.0  0.82382  0.10490  0.76319  1.0000
  C   C24       1.0  0.17615  0.39509  0.26319  1.0000
  C   C25       1.0  0.45429  0.70107  0.21533  1.0000
  C   C26       1.0  0.54571  0.79894  0.71533  1.0000
  C   C27       1.0  0.54572  0.29893  0.78467  1.0000
  C   C28       1.0  0.45428  0.20107  0.28467  1.0000
  C   C29       1.0  0.10931  0.91505  0.18410  1.0000
  C   C30       1.0  0.89069  0.58496  0.68410  1.0000
  C   C31       1.0  0.89070  0.08495  0.81590  1.0000
  C   C32       1.0  0.10928  0.41504  0.31590  1.0000
  C   C33       1.0  0.88643  0.03651  0.11422  1.0000
  C   C34       1.0  0.11358  0.46350  0.61422  1.0000
  C   C35       1.0  0.11357  0.96349  0.88578  1.0000
  C   C36       1.0  0.88639  0.53650  0.38578  1.0000
  C   C37       1.0  0.29120  0.84085  0.34095  1.0000
  C   C38       1.0  0.70880  0.65914  0.84095  1.0000
  C   C39       1.0  0.70881  0.15914  0.65905  1.0000
  C   C40       1.0  0.29119  0.34086  0.15905  1.0000
  N   N1        1.0  0.14695  0.84001  0.09605  1.0000
  N   N2        1.0  0.85304  0.65999  0.59605  1.0000
  N   N3        1.0  0.85305  0.15999  0.90395  1.0000
  N   N4        1.0  0.14694  0.34001  0.40395  1.0000
  Cl  Cl1       1.0  0.84068  0.51899  0.06899  1.0000
  Cl  Cl2       1.0  0.15933  0.98101  0.56899  1.0000
  Cl  Cl3       1.0  0.15934  0.48101  0.93101  1.0000
  Cl  Cl4       1.0  0.84068  0.01899  0.43101  1.0000
  Cl  Cl5       1.0  0.62603  0.78151  0.97613  1.0000
  Cl  Cl6       1.0  0.37396  0.71849  0.47613  1.0000
  Cl  Cl7       1.0  0.37398  0.21849  0.02387  1.0000
  Cl  Cl8       1.0  0.62605  0.28151  0.52387  1.0000
  O   O1        1.0  0.42388  0.76094  0.30174  1.0000
  O   O2        1.0  0.57612  0.73906  0.80174  1.0000
  O   O3        1.0  0.57614  0.23905  0.69826  1.0000
  O   O4        1.0  0.42388  0.26095  0.19826  1.0000
