data_image0
_chemical_formula_structural       Tb4H32C32N4O36
_chemical_formula_sum              "Tb4 H32 C32 N4 O36"
_cell_length_a       10.0055
_cell_length_b       10.1274
_cell_length_c       12.3591
_cell_angle_alpha    90
_cell_angle_beta     90
_cell_angle_gamma    94.0913

_space_group_name_H-M_alt    "P 1"
_space_group_IT_number       1

loop_
  _space_group_symop_operation_xyz
  'x, y, z'

loop_
  _atom_site_type_symbol
  _atom_site_label
  _atom_site_symmetry_multiplicity
  _atom_site_fract_x
  _atom_site_fract_y
  _atom_site_fract_z
  _atom_site_occupancy
  Tb  Tb1       1.0  0.98828  0.12548  0.35250  1.0000
  Tb  Tb2       1.0  0.51172  0.87452  0.85250  1.0000
  Tb  Tb3       1.0  0.01173  0.87452  0.64750  1.0000
  Tb  Tb4       1.0  0.48828  0.12548  0.14750  1.0000
  H   H1        1.0  0.78230  0.92617  0.43768  1.0000
  H   H2        1.0  0.71770  0.07383  0.93768  1.0000
  H   H3        1.0  0.21770  0.07383  0.56232  1.0000
  H   H4        1.0  0.28230  0.92617  0.06232  1.0000
  H   H5        1.0  0.73449  0.95178  0.31406  1.0000
  H   H6        1.0  0.76551  0.04822  0.81406  1.0000
  H   H7        1.0  0.26551  0.04822  0.68594  1.0000
  H   H8        1.0  0.23449  0.95178  0.18594  1.0000
  H   H9        1.0  0.83777  0.10901  0.13007  1.0000
  H   H10       1.0  0.66223  0.89099  0.63008  1.0000
  H   H11       1.0  0.16224  0.89099  0.86993  1.0000
  H   H12       1.0  0.33777  0.10901  0.36993  1.0000
  H   H13       1.0  0.99425  0.10839  0.13107  1.0000
  H   H14       1.0  0.50575  0.89161  0.63107  1.0000
  H   H15       1.0  0.00575  0.89161  0.86893  1.0000
  H   H16       1.0  0.49425  0.10839  0.36893  1.0000
  H   H17       1.0  0.43301  0.22449  0.54485  1.0000
  H   H18       1.0  0.06699  0.77551  0.04485  1.0000
  H   H19       1.0  0.56699  0.77550  0.45515  1.0000
  H   H20       1.0  0.93302  0.22450  0.95515  1.0000
  H   H21       1.0  0.14328  0.52009  0.55636  1.0000
  H   H22       1.0  0.35672  0.47991  0.05636  1.0000
  H   H23       1.0  0.85672  0.47991  0.44364  1.0000
  H   H24       1.0  0.64328  0.52009  0.94364  1.0000
  H   H25       1.0  0.58702  0.36486  0.66128  1.0000
  H   H26       1.0  0.91297  0.63513  0.16128  1.0000
  H   H27       1.0  0.41298  0.63513  0.33872  1.0000
  H   H28       1.0  0.08703  0.36487  0.83872  1.0000
  H   H29       1.0  0.51868  0.58299  0.72641  1.0000
  H   H30       1.0  0.98132  0.41700  0.22641  1.0000
  H   H31       1.0  0.48132  0.41701  0.27359  1.0000
  H   H32       1.0  0.01868  0.58300  0.77359  1.0000
  C   C1        1.0  0.18447  0.28241  0.47296  1.0000
  C   C2        1.0  0.31552  0.71759  0.97296  1.0000
  C   C3        1.0  0.81552  0.71759  0.52704  1.0000
  C   C4        1.0  0.68448  0.28241  0.02703  1.0000
  C   C5        1.0  0.27870  0.36392  0.54253  1.0000
  C   C6        1.0  0.22130  0.63608  0.04253  1.0000
  C   C7        1.0  0.72130  0.63608  0.45747  1.0000
  C   C8        1.0  0.77870  0.36393  0.95747  1.0000
  C   C9        1.0  0.40359  0.32041  0.57264  1.0000
  C   C10       1.0  0.09641  0.67959  0.07264  1.0000
  C   C11       1.0  0.59641  0.67959  0.42736  1.0000
  C   C12       1.0  0.90360  0.32041  0.92735  1.0000
  C   C13       1.0  0.24028  0.48630  0.57946  1.0000
  C   C14       1.0  0.25972  0.51370  0.07946  1.0000
  C   C15       1.0  0.75972  0.51370  0.42054  1.0000
  C   C16       1.0  0.74028  0.48630  0.92053  1.0000
  C   C17       1.0  0.49005  0.39901  0.63839  1.0000
  C   C18       1.0  0.00994  0.60099  0.13839  1.0000
  C   C19       1.0  0.50995  0.60099  0.36161  1.0000
  C   C20       1.0  0.99006  0.39902  0.86161  1.0000
  C   C21       1.0  0.32708  0.56510  0.64516  1.0000
  C   C22       1.0  0.17292  0.43490  0.14516  1.0000
  C   C23       1.0  0.67292  0.43490  0.35484  1.0000
  C   C24       1.0  0.82708  0.56510  0.85484  1.0000
  C   C25       1.0  0.45220  0.52137  0.67437  1.0000
  C   C26       1.0  0.04780  0.47863  0.17437  1.0000
  C   C27       1.0  0.54780  0.47863  0.32562  1.0000
  C   C28       1.0  0.95220  0.52138  0.82563  1.0000
  C   C29       1.0  0.28643  0.69682  0.68201  1.0000
  C   C30       1.0  0.21357  0.30318  0.18201  1.0000
  C   C31       1.0  0.71357  0.30318  0.31799  1.0000
  C   C32       1.0  0.78644  0.69682  0.81799  1.0000
  N   N1        1.0  0.12487  0.86645  0.37105  1.0000
  N   N2        1.0  0.37512  0.13355  0.87105  1.0000
  N   N3        1.0  0.87512  0.13354  0.62895  1.0000
  N   N4        1.0  0.62487  0.86646  0.12895  1.0000
  O   O1        1.0  0.79668  0.98309  0.37244  1.0000
  O   O2        1.0  0.70332  0.01691  0.87244  1.0000
  O   O3        1.0  0.20333  0.01691  0.62756  1.0000
  O   O4        1.0  0.29668  0.98309  0.12756  1.0000
  O   O5        1.0  0.91382  0.06843  0.16643  1.0000
  O   O6        1.0  0.58618  0.93157  0.66643  1.0000
  O   O7        1.0  0.08618  0.93156  0.83357  1.0000
  O   O8        1.0  0.41382  0.06844  0.33357  1.0000
  O   O9        1.0  0.83479  0.27723  0.33027  1.0000
  O   O10       1.0  0.66522  0.72277  0.83027  1.0000
  O   O11       1.0  0.16521  0.72277  0.66973  1.0000
  O   O12       1.0  0.33479  0.27724  0.16973  1.0000
  O   O13       1.0  0.05615  0.90891  0.45072  1.0000
  O   O14       1.0  0.44384  0.09108  0.95072  1.0000
  O   O15       1.0  0.94385  0.09108  0.54928  1.0000
  O   O16       1.0  0.55615  0.90892  0.04928  1.0000
  O   O17       1.0  0.11599  0.93647  0.28436  1.0000
  O   O18       1.0  0.38401  0.06352  0.78436  1.0000
  O   O19       1.0  0.88401  0.06352  0.71564  1.0000
  O   O20       1.0  0.61599  0.93648  0.21564  1.0000
  O   O21       1.0  0.21082  0.16142  0.44749  1.0000
  O   O22       1.0  0.28918  0.83858  0.94749  1.0000
  O   O23       1.0  0.78918  0.83858  0.55251  1.0000
  O   O24       1.0  0.71082  0.16142  0.05251  1.0000
  O   O25       1.0  0.07687  0.32634  0.44013  1.0000
  O   O26       1.0  0.42313  0.67366  0.94013  1.0000
  O   O27       1.0  0.92313  0.67366  0.55988  1.0000
  O   O28       1.0  0.57687  0.32634  0.05987  1.0000
  O   O29       1.0  0.12446  0.22168  0.22294  1.0000
  O   O30       1.0  0.37554  0.77832  0.72294  1.0000
  O   O31       1.0  0.87554  0.77832  0.77706  1.0000
  O   O32       1.0  0.62446  0.22168  0.27706  1.0000
  O   O33       1.0  0.19155  0.77032  0.37722  1.0000
  O   O34       1.0  0.30844  0.22967  0.87722  1.0000
  O   O35       1.0  0.80844  0.22966  0.62277  1.0000
  O   O36       1.0  0.69155  0.77033  0.12277  1.0000
