data_image0
_chemical_formula_structural       Ag2H14C14N4O4
_chemical_formula_sum              "Ag2 H14 C14 N4 O4"
_cell_length_a       7.41013
_cell_length_b       7.69178
_cell_length_c       7.69171
_cell_angle_alpha    61.7042
_cell_angle_beta     79.123
_cell_angle_gamma    79.123

_space_group_name_H-M_alt    "P 1"
_space_group_IT_number       1

loop_
  _space_group_symop_operation_xyz
  'x, y, z'

loop_
  _atom_site_type_symbol
  _atom_site_label
  _atom_site_symmetry_multiplicity
  _atom_site_fract_x
  _atom_site_fract_y
  _atom_site_fract_z
  _atom_site_occupancy
  Ag  Ag1       1.0  0.49996  0.00000  0.49999  1.0000
  Ag  Ag2       1.0  0.00004  0.50000  0.00000  1.0000
  H   H1        1.0  0.15968  0.04673  0.44656  1.0000
  H   H2        1.0  0.34030  0.55345  0.95327  1.0000
  H   H3        1.0  0.84028  0.95331  0.55343  1.0000
  H   H4        1.0  0.65970  0.44659  0.04667  1.0000
  H   H5        1.0  0.22078  0.79751  0.54024  1.0000
  H   H6        1.0  0.27921  0.45978  0.20247  1.0000
  H   H7        1.0  0.77923  0.20241  0.45979  1.0000
  H   H8        1.0  0.72079  0.54021  0.79756  1.0000
  H   H9        1.0  0.25000  0.62251  0.37749  1.0000
  H   H10       1.0  0.75000  0.37746  0.62253  1.0000
  H   H11       1.0  0.27656  0.25361  0.06314  1.0000
  H   H12       1.0  0.22344  0.93687  0.74638  1.0000
  H   H13       1.0  0.72344  0.74639  0.93687  1.0000
  H   H14       1.0  0.77656  0.06314  0.25360  1.0000
  C   C1        1.0  0.24999  0.76070  0.23931  1.0000
  C   C2        1.0  0.75001  0.23929  0.76071  1.0000
  C   C3        1.0  0.25861  0.11637  0.06382  1.0000
  C   C4        1.0  0.24139  0.93619  0.88363  1.0000
  C   C5        1.0  0.74142  0.88364  0.93617  1.0000
  C   C6        1.0  0.75859  0.06388  0.11634  1.0000
  C   C7        1.0  0.24999  0.11645  0.88355  1.0000
  C   C8        1.0  0.75000  0.88364  0.11638  1.0000
  C   C9        1.0  0.25000  0.30942  0.69058  1.0000
  C   C10       1.0  0.75000  0.69070  0.30930  1.0000
  C   C11       1.0  0.25071  0.94030  0.24113  1.0000
  C   C12       1.0  0.24929  0.75885  0.05971  1.0000
  C   C13       1.0  0.74921  0.05971  0.75889  1.0000
  C   C14       1.0  0.75077  0.24112  0.94026  1.0000
  N   N1        1.0  0.24980  0.93578  0.42954  1.0000
  N   N2        1.0  0.25020  0.57044  0.06421  1.0000
  N   N3        1.0  0.75031  0.06422  0.57055  1.0000
  N   N4        1.0  0.74971  0.42945  0.93577  1.0000
  O   O1        1.0  0.25823  0.29596  0.53000  1.0000
  O   O2        1.0  0.24177  0.47000  0.70404  1.0000
  O   O3        1.0  0.74179  0.70392  0.47001  1.0000
  O   O4        1.0  0.75824  0.53000  0.29610  1.0000
