data_image0
_chemical_formula_structural       Cu8H48C72S8N8
_chemical_formula_sum              "Cu8 H48 C72 S8 N8"
_cell_length_a       7.89998
_cell_length_b       10.8417
_cell_length_c       18.949
_cell_angle_alpha    90
_cell_angle_beta     90
_cell_angle_gamma    110.128

_space_group_name_H-M_alt    "P 1"
_space_group_IT_number       1

loop_
  _space_group_symop_operation_xyz
  'x, y, z'

loop_
  _atom_site_type_symbol
  _atom_site_label
  _atom_site_symmetry_multiplicity
  _atom_site_fract_x
  _atom_site_fract_y
  _atom_site_fract_z
  _atom_site_occupancy
  Cu  Cu1       1.0  0.62340  0.51842  0.44891  1.0000
  Cu  Cu2       1.0  0.37660  0.98158  0.94891  1.0000
  Cu  Cu3       1.0  0.37659  0.48158  0.55109  1.0000
  Cu  Cu4       1.0  0.62340  0.01842  0.05109  1.0000
  Cu  Cu5       1.0  0.84650  0.41057  0.50960  1.0000
  Cu  Cu6       1.0  0.15350  0.08944  0.00960  1.0000
  Cu  Cu7       1.0  0.15350  0.58944  0.49040  1.0000
  Cu  Cu8       1.0  0.84650  0.91056  0.99040  1.0000
  H   H1        1.0  0.18135  0.53141  0.32876  1.0000
  H   H2        1.0  0.81865  0.96858  0.82875  1.0000
  H   H3        1.0  0.81865  0.46859  0.67124  1.0000
  H   H4        1.0  0.18135  0.03141  0.17125  1.0000
  H   H5        1.0  0.14652  0.38563  0.22441  1.0000
  H   H6        1.0  0.85349  0.11437  0.72440  1.0000
  H   H7        1.0  0.85349  0.61437  0.77559  1.0000
  H   H8        1.0  0.14651  0.88562  0.27560  1.0000
  H   H9        1.0  0.84159  0.24457  0.18357  1.0000
  H   H10       1.0  0.15842  0.25544  0.68357  1.0000
  H   H11       1.0  0.15841  0.75544  0.81643  1.0000
  H   H12       1.0  0.84158  0.74456  0.31643  1.0000
  H   H13       1.0  0.50704  0.16878  0.20006  1.0000
  H   H14       1.0  0.49297  0.33123  0.70006  1.0000
  H   H15       1.0  0.49296  0.83123  0.79994  1.0000
  H   H16       1.0  0.50704  0.66877  0.29994  1.0000
  H   H17       1.0  0.24126  0.18869  0.26655  1.0000
  H   H18       1.0  0.75875  0.31131  0.76655  1.0000
  H   H19       1.0  0.75874  0.81132  0.73345  1.0000
  H   H20       1.0  0.24126  0.68868  0.23345  1.0000
  H   H21       1.0  0.29820  0.34890  0.36650  1.0000
  H   H22       1.0  0.70180  0.15109  0.86650  1.0000
  H   H23       1.0  0.70179  0.65110  0.63350  1.0000
  H   H24       1.0  0.29820  0.84890  0.13350  1.0000
  H   H25       1.0  0.19076  0.18590  0.51661  1.0000
  H   H26       1.0  0.80924  0.31410  0.01661  1.0000
  H   H27       1.0  0.80924  0.81410  0.48339  1.0000
  H   H28       1.0  0.19076  0.68590  0.98339  1.0000
  H   H29       1.0  0.06942  0.97986  0.44617  1.0000
  H   H30       1.0  0.93058  0.52014  0.94617  1.0000
  H   H31       1.0  0.93058  0.02014  0.55383  1.0000
  H   H32       1.0  0.06942  0.47986  0.05383  1.0000
  H   H33       1.0  0.27734  0.89215  0.38134  1.0000
  H   H34       1.0  0.72267  0.60785  0.88135  1.0000
  H   H35       1.0  0.72267  0.10785  0.61866  1.0000
  H   H36       1.0  0.27733  0.39215  0.11866  1.0000
  H   H37       1.0  0.58980  0.92535  0.33982  1.0000
  H   H38       1.0  0.41020  0.57464  0.83982  1.0000
  H   H39       1.0  0.41020  0.07465  0.66018  1.0000
  H   H40       1.0  0.58980  0.42535  0.16018  1.0000
  H   H41       1.0  0.91912  0.05881  0.34257  1.0000
  H   H42       1.0  0.08089  0.44119  0.84257  1.0000
  H   H43       1.0  0.08089  0.94120  0.65743  1.0000
  H   H44       1.0  0.91911  0.55880  0.15743  1.0000
  H   H45       1.0  0.02248  0.26094  0.41889  1.0000
  H   H46       1.0  0.97752  0.23905  0.91889  1.0000
  H   H47       1.0  0.97752  0.73906  0.58111  1.0000
  H   H48       1.0  0.02248  0.76094  0.08111  1.0000
  C   C1        1.0  0.89866  0.48349  0.34567  1.0000
  C   C2        1.0  0.10134  0.01651  0.84567  1.0000
  C   C3        1.0  0.10134  0.51651  0.65433  1.0000
  C   C4        1.0  0.89866  0.98349  0.15433  1.0000
  C   C5        1.0  0.04703  0.47352  0.30978  1.0000
  C   C6        1.0  0.95297  0.02647  0.80978  1.0000
  C   C7        1.0  0.95297  0.52648  0.69022  1.0000
  C   C8        1.0  0.04703  0.97352  0.19022  1.0000
  C   C9        1.0  0.02640  0.38922  0.25134  1.0000
  C   C10       1.0  0.97360  0.11078  0.75134  1.0000
  C   C11       1.0  0.97360  0.61077  0.74866  1.0000
  C   C12       1.0  0.02640  0.88922  0.24866  1.0000
  C   C13       1.0  0.85739  0.31091  0.22843  1.0000
  C   C14       1.0  0.14262  0.18909  0.72842  1.0000
  C   C15       1.0  0.14261  0.68908  0.77158  1.0000
  C   C16       1.0  0.85738  0.81091  0.27158  1.0000
  C   C17       1.0  0.70213  0.31626  0.26401  1.0000
  C   C18       1.0  0.29787  0.18374  0.76402  1.0000
  C   C19       1.0  0.29787  0.68374  0.73598  1.0000
  C   C20       1.0  0.70213  0.81626  0.23598  1.0000
  C   C21       1.0  0.52473  0.23646  0.24443  1.0000
  C   C22       1.0  0.47527  0.26354  0.74443  1.0000
  C   C23       1.0  0.47527  0.76354  0.75556  1.0000
  C   C24       1.0  0.52472  0.73646  0.25556  1.0000
  C   C25       1.0  0.37911  0.24813  0.28035  1.0000
  C   C26       1.0  0.62090  0.25187  0.78035  1.0000
  C   C27       1.0  0.62089  0.75188  0.71965  1.0000
  C   C28       1.0  0.37911  0.74812  0.21965  1.0000
  C   C29       1.0  0.41019  0.33794  0.33661  1.0000
  C   C30       1.0  0.58981  0.16206  0.83661  1.0000
  C   C31       1.0  0.58981  0.66206  0.66339  1.0000
  C   C32       1.0  0.41019  0.83794  0.16339  1.0000
  C   C33       1.0  0.72191  0.40482  0.32219  1.0000
  C   C34       1.0  0.27810  0.09518  0.82219  1.0000
  C   C35       1.0  0.27809  0.59519  0.67781  1.0000
  C   C36       1.0  0.72190  0.90481  0.17781  1.0000
  C   C37       1.0  0.46619  0.21755  0.49200  1.0000
  C   C38       1.0  0.53381  0.28245  0.99200  1.0000
  C   C39       1.0  0.53380  0.78245  0.50800  1.0000
  C   C40       1.0  0.46619  0.71755  0.00800  1.0000
  C   C41       1.0  0.28227  0.14867  0.48746  1.0000
  C   C42       1.0  0.71773  0.35133  0.98746  1.0000
  C   C43       1.0  0.71773  0.85133  0.51254  1.0000
  C   C44       1.0  0.28227  0.64867  0.01254  1.0000
  C   C45       1.0  0.21437  0.03239  0.44744  1.0000
  C   C46       1.0  0.78563  0.46761  0.94744  1.0000
  C   C47       1.0  0.78563  0.96761  0.55256  1.0000
  C   C48       1.0  0.21437  0.53239  0.05256  1.0000
  C   C49       1.0  0.32886  0.98434  0.41049  1.0000
  C   C50       1.0  0.67114  0.51566  0.91049  1.0000
  C   C51       1.0  0.67115  0.01566  0.58951  1.0000
  C   C52       1.0  0.32886  0.48434  0.08951  1.0000
  C   C53       1.0  0.51693  0.05467  0.41098  1.0000
  C   C54       1.0  0.48307  0.44533  0.91098  1.0000
  C   C55       1.0  0.48307  0.94533  0.58902  1.0000
  C   C56       1.0  0.51693  0.55467  0.08902  1.0000
  C   C57       1.0  0.64063  0.01447  0.37137  1.0000
  C   C58       1.0  0.35937  0.48553  0.87137  1.0000
  C   C59       1.0  0.35938  0.98554  0.62863  1.0000
  C   C60       1.0  0.64062  0.51447  0.12864  1.0000
  C   C61       1.0  0.82192  0.08756  0.37307  1.0000
  C   C62       1.0  0.17809  0.41244  0.87307  1.0000
  C   C63       1.0  0.17808  0.91244  0.62693  1.0000
  C   C64       1.0  0.82191  0.58756  0.12693  1.0000
  C   C65       1.0  0.88015  0.20071  0.41550  1.0000
  C   C66       1.0  0.11986  0.29929  0.91550  1.0000
  C   C67       1.0  0.11985  0.79929  0.58450  1.0000
  C   C68       1.0  0.88015  0.70071  0.08450  1.0000
  C   C69       1.0  0.58719  0.17180  0.45224  1.0000
  C   C70       1.0  0.41281  0.32820  0.95224  1.0000
  C   C71       1.0  0.41280  0.82820  0.54776  1.0000
  C   C72       1.0  0.58719  0.67180  0.04776  1.0000
  S   S1        1.0  0.92442  0.58712  0.41960  1.0000
  S   S2        1.0  0.07558  0.91289  0.91960  1.0000
  S   S3        1.0  0.07557  0.41289  0.58040  1.0000
  S   S4        1.0  0.92443  0.08711  0.08040  1.0000
  S   S5        1.0  0.55299  0.35815  0.54545  1.0000
  S   S6        1.0  0.44701  0.14184  0.04545  1.0000
  S   S7        1.0  0.44700  0.64185  0.45455  1.0000
  S   S8        1.0  0.55300  0.85815  0.95455  1.0000
  N   N1        1.0  0.57455  0.41268  0.35749  1.0000
  N   N2        1.0  0.42545  0.08732  0.85750  1.0000
  N   N3        1.0  0.42544  0.58733  0.64250  1.0000
  N   N4        1.0  0.57455  0.91267  0.14250  1.0000
  N   N5        1.0  0.76803  0.24190  0.45341  1.0000
  N   N6        1.0  0.23197  0.25810  0.95341  1.0000
  N   N7        1.0  0.23197  0.75810  0.54659  1.0000
  N   N8        1.0  0.76803  0.74190  0.04659  1.0000
