data_image0
_chemical_formula_structural       Cu2H28C52N8O8
_chemical_formula_sum              "Cu2 H28 C52 N8 O8"
_cell_length_a       9.83096
_cell_length_b       10.3542
_cell_length_c       11.2578
_cell_angle_alpha    115.057
_cell_angle_beta     96.055
_cell_angle_gamma    104.084

_space_group_name_H-M_alt    "P 1"
_space_group_IT_number       1

loop_
  _space_group_symop_operation_xyz
  'x, y, z'

loop_
  _atom_site_type_symbol
  _atom_site_label
  _atom_site_symmetry_multiplicity
  _atom_site_fract_x
  _atom_site_fract_y
  _atom_site_fract_z
  _atom_site_occupancy
  Cu  Cu1       1.0  0.51015  0.53364  0.66053  1.0000
  Cu  Cu2       1.0  0.48985  0.46637  0.33947  1.0000
  H   H1        1.0  0.13050  0.12750  0.88246  1.0000
  H   H2        1.0  0.86950  0.87250  0.11755  1.0000
  H   H3        1.0  0.11109  0.07129  0.23734  1.0000
  H   H4        1.0  0.88891  0.92871  0.76267  1.0000
  H   H5        1.0  0.46925  0.19071  0.53900  1.0000
  H   H6        1.0  0.53075  0.80929  0.46100  1.0000
  H   H7        1.0  0.06193  0.01707  0.62327  1.0000
  H   H8        1.0  0.93807  0.98293  0.37673  1.0000
  H   H9        1.0  0.85202  0.66405  0.59967  1.0000
  H   H10       1.0  0.14798  0.33594  0.40032  1.0000
  H   H11       1.0  0.67012  0.98580  0.71602  1.0000
  H   H12       1.0  0.32988  0.01421  0.28398  1.0000
  H   H13       1.0  0.89895  0.22529  0.42149  1.0000
  H   H14       1.0  0.10106  0.77470  0.57850  1.0000
  H   H15       1.0  0.06970  0.75275  0.92077  1.0000
  H   H16       1.0  0.93030  0.24725  0.07923  1.0000
  H   H17       1.0  0.27689  0.97044  0.52805  1.0000
  H   H18       1.0  0.72311  0.02956  0.47195  1.0000
  H   H19       1.0  0.28822  0.94110  0.92293  1.0000
  H   H20       1.0  0.71178  0.05890  0.07707  1.0000
  H   H21       1.0  0.48045  0.84869  0.81452  1.0000
  H   H22       1.0  0.51955  0.15132  0.18548  1.0000
  H   H23       1.0  0.68658  0.52508  0.95010  1.0000
  H   H24       1.0  0.31342  0.47492  0.04990  1.0000
  H   H25       1.0  0.46092  0.05323  0.80382  1.0000
  H   H26       1.0  0.53907  0.94676  0.19619  1.0000
  H   H27       1.0  0.47163  0.31821  0.92699  1.0000
  H   H28       1.0  0.52836  0.68179  0.07301  1.0000
  C   C1        1.0  0.86073  0.43815  0.51129  1.0000
  C   C2        1.0  0.13927  0.56185  0.48870  1.0000
  C   C3        1.0  0.02118  0.44646  0.80623  1.0000
  C   C4        1.0  0.97882  0.55353  0.19377  1.0000
  C   C5        1.0  0.25375  0.37007  0.69047  1.0000
  C   C6        1.0  0.74625  0.62993  0.30953  1.0000
  C   C7        1.0  0.79629  0.21755  0.78165  1.0000
  C   C8        1.0  0.20371  0.78245  0.21836  1.0000
  C   C9        1.0  0.07205  0.06986  0.93223  1.0000
  C   C10       1.0  0.92795  0.93014  0.06777  1.0000
  C   C11       1.0  0.27841  0.23259  0.13294  1.0000
  C   C12       1.0  0.72159  0.76742  0.86707  1.0000
  C   C13       1.0  0.13490  0.11106  0.06612  1.0000
  C   C14       1.0  0.86511  0.88893  0.93388  1.0000
  C   C15       1.0  0.71238  0.37161  0.52494  1.0000
  C   C16       1.0  0.28763  0.62839  0.47505  1.0000
  C   C17       1.0  0.93820  0.95941  0.86612  1.0000
  C   C18       1.0  0.06181  0.04059  0.13389  1.0000
  C   C19       1.0  0.25605  0.52453  0.75508  1.0000
  C   C20       1.0  0.74395  0.47546  0.24493  1.0000
  C   C21       1.0  0.01923  0.29236  0.74259  1.0000
  C   C22       1.0  0.98077  0.70764  0.25741  1.0000
  C   C23       1.0  0.37368  0.20368  0.57854  1.0000
  C   C24       1.0  0.62632  0.79632  0.42146  1.0000
  C   C25       1.0  0.14867  0.10807  0.62675  1.0000
  C   C26       1.0  0.85133  0.89193  0.37325  1.0000
  C   C27       1.0  0.91769  0.59338  0.55546  1.0000
  C   C28       1.0  0.08232  0.40661  0.44453  1.0000
  C   C29       1.0  0.13985  0.25481  0.68650  1.0000
  C   C30       1.0  0.86015  0.74519  0.31349  1.0000
  C   C31       1.0  0.67231  0.10256  0.76724  1.0000
  C   C32       1.0  0.32769  0.89744  0.23276  1.0000
  C   C33       1.0  0.79975  0.37229  0.84800  1.0000
  C   C34       1.0  0.20025  0.62772  0.15200  1.0000
  C   C35       1.0  0.94442  0.34573  0.45591  1.0000
  C   C36       1.0  0.05558  0.65426  0.54407  1.0000
  C   C37       1.0  0.15518  0.71797  0.87483  1.0000
  C   C38       1.0  0.84482  0.28203  0.12517  1.0000
  C   C39       1.0  0.26608  0.08264  0.57330  1.0000
  C   C40       1.0  0.73392  0.91736  0.42670  1.0000
  C   C41       1.0  0.27619  0.82168  0.87614  1.0000
  C   C42       1.0  0.72381  0.17832  0.12386  1.0000
  C   C43       1.0  0.14349  0.56484  0.81361  1.0000
  C   C44       1.0  0.85651  0.43516  0.18639  1.0000
  C   C45       1.0  0.38344  0.77210  0.81602  1.0000
  C   C46       1.0  0.61656  0.22790  0.18398  1.0000
  C   C47       1.0  0.68146  0.40732  0.90128  1.0000
  C   C48       1.0  0.31854  0.59269  0.09873  1.0000
  C   C49       1.0  0.55805  0.14072  0.81720  1.0000
  C   C50       1.0  0.44195  0.85928  0.18280  1.0000
  C   C51       1.0  0.56286  0.29329  0.88562  1.0000
  C   C52       1.0  0.43713  0.70671  0.11439  1.0000
  N   N1        1.0  0.36714  0.34393  0.63605  1.0000
  N   N2        1.0  0.63287  0.65608  0.36395  1.0000
  N   N3        1.0  0.37261  0.62670  0.75664  1.0000
  N   N4        1.0  0.62739  0.37329  0.24337  1.0000
  N   N5        1.0  0.91350  0.48444  0.85917  1.0000
  N   N6        1.0  0.08650  0.51556  0.14083  1.0000
  N   N7        1.0  0.90838  0.18100  0.73155  1.0000
  N   N8        1.0  0.09162  0.81900  0.26844  1.0000
  O   O1        1.0  0.62760  0.45336  0.53505  1.0000
  O   O2        1.0  0.37241  0.54665  0.46495  1.0000
  O   O3        1.0  0.32875  0.27355  0.25954  1.0000
  O   O4        1.0  0.67124  0.72646  0.74047  1.0000
  O   O5        1.0  0.67956  0.24675  0.52383  1.0000
  O   O6        1.0  0.32044  0.75325  0.47616  1.0000
  O   O7        1.0  0.34084  0.28794  0.06597  1.0000
  O   O8        1.0  0.65916  0.71206  0.93404  1.0000
