data_image0
_chemical_formula_structural       La2Ag2H22C30N4O24
_chemical_formula_sum              "La2 Ag2 H22 C30 N4 O24"
_cell_length_a       7.74057
_cell_length_b       8.29385
_cell_length_c       14.181
_cell_angle_alpha    96.8017
_cell_angle_beta     101.529
_cell_angle_gamma    92.9345

_space_group_name_H-M_alt    "P 1"
_space_group_IT_number       1

loop_
  _space_group_symop_operation_xyz
  'x, y, z'

loop_
  _atom_site_type_symbol
  _atom_site_label
  _atom_site_symmetry_multiplicity
  _atom_site_fract_x
  _atom_site_fract_y
  _atom_site_fract_z
  _atom_site_occupancy
  La  La1       1.0  0.68551  0.20269  0.91458  1.0000
  La  La2       1.0  0.31449  0.79731  0.08541  1.0000
  Ag  Ag1       1.0  0.32532  0.07624  0.46716  1.0000
  Ag  Ag2       1.0  0.67468  0.92377  0.53284  1.0000
  H   H1        1.0  0.97497  0.78649  0.75664  1.0000
  H   H2        1.0  0.02503  0.21351  0.24336  1.0000
  H   H3        1.0  0.16956  0.19175  0.63333  1.0000
  H   H4        1.0  0.83044  0.80825  0.36667  1.0000
  H   H5        1.0  0.22079  0.72268  0.50747  1.0000
  H   H6        1.0  0.77921  0.27732  0.49252  1.0000
  H   H7        1.0  0.53037  0.48864  0.18005  1.0000
  H   H8        1.0  0.46963  0.51136  0.81995  1.0000
  H   H9        1.0  0.33476  0.44465  0.44115  1.0000
  H   H10       1.0  0.66525  0.55536  0.55885  1.0000
  H   H11       1.0  0.46310  0.02737  0.28505  1.0000
  H   H12       1.0  0.53690  0.97263  0.71495  1.0000
  H   H13       1.0  0.03529  0.40106  0.72804  1.0000
  H   H14       1.0  0.96472  0.59894  0.27196  1.0000
  H   H15       1.0  0.71617  0.94615  0.04658  1.0000
  H   H16       1.0  0.28383  0.05384  0.95342  1.0000
  H   H17       1.0  0.85668  0.86774  0.98708  1.0000
  H   H18       1.0  0.14332  0.13226  0.01292  1.0000
  H   H19       1.0  0.35836  0.38704  0.97454  1.0000
  H   H20       1.0  0.64164  0.61296  0.02546  1.0000
  H   H21       1.0  0.28240  0.30865  0.86639  1.0000
  H   H22       1.0  0.71761  0.69135  0.13361  1.0000
  C   C1        1.0  0.09170  0.55112  0.63726  1.0000
  C   C2        1.0  0.90830  0.44888  0.36274  1.0000
  C   C3        1.0  0.09571  0.73060  0.63249  1.0000
  C   C4        1.0  0.90429  0.26941  0.36751  1.0000
  C   C5        1.0  0.03611  0.83468  0.70202  1.0000
  C   C6        1.0  0.96389  0.16532  0.29798  1.0000
  C   C7        1.0  0.06128  0.00261  0.70313  1.0000
  C   C8        1.0  0.93873  0.99739  0.29687  1.0000
  C   C9        1.0  0.14540  0.06125  0.63444  1.0000
  C   C10       1.0  0.85460  0.93875  0.36556  1.0000
  C   C11       1.0  0.17250  0.79823  0.56348  1.0000
  C   C12       1.0  0.82750  0.20177  0.43651  1.0000
  C   C13       1.0  0.00043  0.11783  0.77735  1.0000
  C   C14       1.0  0.99957  0.88218  0.22264  1.0000
  C   C15       1.0  0.57530  0.16525  0.13924  1.0000
  C   C16       1.0  0.42470  0.83475  0.86076  1.0000
  C   C17       1.0  0.50558  0.24859  0.22196  1.0000
  C   C18       1.0  0.49442  0.75141  0.77804  1.0000
  C   C19       1.0  0.49095  0.41651  0.23267  1.0000
  C   C20       1.0  0.50905  0.58349  0.76733  1.0000
  C   C21       1.0  0.42798  0.49016  0.31153  1.0000
  C   C22       1.0  0.57202  0.50984  0.68847  1.0000
  C   C23       1.0  0.38311  0.39219  0.37805  1.0000
  C   C24       1.0  0.61690  0.60781  0.62196  1.0000
  C   C25       1.0  0.45428  0.15883  0.29026  1.0000
  C   C26       1.0  0.54572  0.84117  0.70974  1.0000
  C   C27       1.0  0.40923  0.67163  0.32452  1.0000
  C   C28       1.0  0.59077  0.32836  0.67548  1.0000
  C   C29       1.0  0.06624  0.43731  0.01770  1.0000
  C   C30       1.0  0.93376  0.56269  0.98229  1.0000
  N   N1        1.0  0.19719  0.96073  0.56496  1.0000
  N   N2        1.0  0.80281  0.03927  0.43504  1.0000
  N   N3        1.0  0.39511  0.22932  0.36706  1.0000
  N   N4        1.0  0.60490  0.77068  0.63295  1.0000
  O   O1        1.0  0.01324  0.51352  0.70803  1.0000
  O   O2        1.0  0.98676  0.48648  0.29197  1.0000
  O   O3        1.0  0.15888  0.45449  0.58502  1.0000
  O   O4        1.0  0.84111  0.54551  0.41498  1.0000
  O   O5        1.0  0.88600  0.06125  0.81949  1.0000
  O   O6        1.0  0.11400  0.93876  0.18051  1.0000
  O   O7        1.0  0.06835  0.26491  0.79408  1.0000
  O   O8        1.0  0.93165  0.73509  0.20592  1.0000
  O   O9        1.0  0.63589  0.25254  0.08424  1.0000
  O   O10       1.0  0.36411  0.74745  0.91576  1.0000
  O   O11       1.0  0.57094  0.00905  0.12926  1.0000
  O   O12       1.0  0.42906  0.99095  0.87074  1.0000
  O   O13       1.0  0.41696  0.74459  0.25015  1.0000
  O   O14       1.0  0.58303  0.25540  0.74985  1.0000
  O   O15       1.0  0.38911  0.73935  0.40523  1.0000
  O   O16       1.0  0.61089  0.26065  0.59477  1.0000
  O   O17       1.0  0.00523  0.29082  0.00916  1.0000
  O   O18       1.0  0.99476  0.70918  0.99084  1.0000
  O   O19       1.0  0.22582  0.49157  0.05131  1.0000
  O   O20       1.0  0.77418  0.50843  0.94868  1.0000
  O   O21       1.0  0.77785  0.95764  0.99271  1.0000
  O   O22       1.0  0.22214  0.04235  0.00728  1.0000
  O   O23       1.0  0.39382  0.33543  0.91570  1.0000
  O   O24       1.0  0.60619  0.66457  0.08430  1.0000
