data_image0
_chemical_formula_structural       CuH28C46N12O8
_chemical_formula_sum              "Cu1 H28 C46 N12 O8"
_cell_length_a       7.42299
_cell_length_b       10.9229
_cell_length_c       12.8511
_cell_angle_alpha    110.556
_cell_angle_beta     91.0752
_cell_angle_gamma    96.9412

_space_group_name_H-M_alt    "P 1"
_space_group_IT_number       1

loop_
  _space_group_symop_operation_xyz
  'x, y, z'

loop_
  _atom_site_type_symbol
  _atom_site_label
  _atom_site_symmetry_multiplicity
  _atom_site_fract_x
  _atom_site_fract_y
  _atom_site_fract_z
  _atom_site_occupancy
  Cu  Cu1       1.0  0.00000  0.50000  0.50000  1.0000
  H   H1        1.0  0.73774  0.82336  0.45684  1.0000
  H   H2        1.0  0.26226  0.17664  0.54316  1.0000
  H   H3        1.0  0.37476  0.65881  0.53860  1.0000
  H   H4        1.0  0.62525  0.34119  0.46139  1.0000
  H   H5        1.0  0.66604  0.67281  0.64708  1.0000
  H   H6        1.0  0.33396  0.32718  0.35292  1.0000
  H   H7        1.0  0.67136  0.53838  0.77222  1.0000
  H   H8        1.0  0.32864  0.46162  0.22778  1.0000
  H   H9        1.0  0.10814  0.39349  0.66717  1.0000
  H   H10       1.0  0.89185  0.60651  0.33283  1.0000
  H   H11       1.0  0.12442  0.01678  0.92541  1.0000
  H   H12       1.0  0.87557  0.98322  0.07459  1.0000
  H   H13       1.0  0.82553  0.86742  0.89020  1.0000
  H   H14       1.0  0.17447  0.13258  0.10980  1.0000
  H   H15       1.0  0.57483  0.90574  0.77366  1.0000
  H   H16       1.0  0.42517  0.09426  0.22634  1.0000
  H   H17       1.0  0.89617  0.21904  0.73216  1.0000
  H   H18       1.0  0.10383  0.78097  0.26785  1.0000
  H   H19       1.0  0.49865  0.15915  0.06288  1.0000
  H   H20       1.0  0.50135  0.84085  0.93712  1.0000
  H   H21       1.0  0.75675  0.18056  0.20334  1.0000
  H   H22       1.0  0.24325  0.81943  0.79665  1.0000
  H   H23       1.0  0.03673  0.33210  0.21173  1.0000
  H   H24       1.0  0.96327  0.66790  0.78827  1.0000
  H   H25       1.0  0.83137  0.44342  0.96056  1.0000
  H   H26       1.0  0.16863  0.55658  0.03943  1.0000
  H   H27       1.0  0.57277  0.07338  0.67933  1.0000
  H   H28       1.0  0.42723  0.92663  0.32067  1.0000
  C   C1        1.0  0.01319  0.76250  0.55374  1.0000
  C   C2        1.0  0.98682  0.23750  0.44626  1.0000
  C   C3        1.0  0.01320  0.88787  0.52920  1.0000
  C   C4        1.0  0.98680  0.11213  0.47080  1.0000
  C   C5        1.0  0.85407  0.90044  0.47637  1.0000
  C   C6        1.0  0.14593  0.09956  0.52364  1.0000
  C   C7        1.0  0.16081  0.98946  0.55340  1.0000
  C   C8        1.0  0.83919  0.01055  0.44660  1.0000
  C   C9        1.0  0.32817  0.98417  0.61676  1.0000
  C   C10       1.0  0.67183  0.01583  0.38324  1.0000
  C   C11       1.0  0.38452  0.60157  0.59229  1.0000
  C   C12       1.0  0.61549  0.39843  0.40771  1.0000
  C   C13       1.0  0.54467  0.61011  0.65454  1.0000
  C   C14       1.0  0.45533  0.38989  0.34545  1.0000
  C   C15       1.0  0.54850  0.53587  0.72311  1.0000
  C   C16       1.0  0.45150  0.46413  0.27689  1.0000
  C   C17       1.0  0.38906  0.45652  0.72889  1.0000
  C   C18       1.0  0.61094  0.54348  0.27112  1.0000
  C   C19       1.0  0.23388  0.45409  0.66433  1.0000
  C   C20       1.0  0.76612  0.54591  0.33567  1.0000
  C   C21       1.0  0.37513  0.37414  0.79898  1.0000
  C   C22       1.0  0.62487  0.62586  0.20103  1.0000
  C   C23       1.0  0.49357  0.29776  0.92480  1.0000
  C   C24       1.0  0.50643  0.70224  0.07520  1.0000
  C   C25       1.0  0.20436  0.21979  0.84935  1.0000
  C   C26       1.0  0.79564  0.78021  0.15066  1.0000
  C   C27       1.0  0.03193  0.13064  0.83359  1.0000
  C   C28       1.0  0.96807  0.86937  0.16641  1.0000
  C   C29       1.0  0.01038  0.03032  0.87810  1.0000
  C   C30       1.0  0.98962  0.96967  0.12190  1.0000
  C   C31       1.0  0.84556  0.94803  0.85851  1.0000
  C   C32       1.0  0.15444  0.05197  0.14149  1.0000
  C   C33       1.0  0.70668  0.96763  0.79445  1.0000
  C   C34       1.0  0.29332  0.03237  0.20555  1.0000
  C   C35       1.0  0.88507  0.14317  0.76952  1.0000
  C   C36       1.0  0.11492  0.85683  0.23048  1.0000
  C   C37       1.0  0.64453  0.30101  0.00266  1.0000
  C   C38       1.0  0.35547  0.69899  0.99734  1.0000
  C   C39       1.0  0.62547  0.22407  0.07023  1.0000
  C   C40       1.0  0.37453  0.77593  0.92976  1.0000
  C   C41       1.0  0.76759  0.23451  0.14613  1.0000
  C   C42       1.0  0.23241  0.76549  0.85387  1.0000
  C   C43       1.0  0.92556  0.32058  0.15071  1.0000
  C   C44       1.0  0.07444  0.67941  0.84929  1.0000
  C   C45       1.0  0.81046  0.38303  0.01265  1.0000
  C   C46       1.0  0.18954  0.61697  0.98735  1.0000
  N   N1        1.0  0.23174  0.52291  0.59601  1.0000
  N   N2        1.0  0.76826  0.47709  0.40399  1.0000
  N   N3        1.0  0.21465  0.29908  0.78994  1.0000
  N   N4        1.0  0.78534  0.70092  0.21006  1.0000
  N   N5        1.0  0.33939  0.21545  0.91863  1.0000
  N   N6        1.0  0.66060  0.78455  0.08138  1.0000
  N   N7        1.0  0.51914  0.37750  0.86503  1.0000
  N   N8        1.0  0.48086  0.62250  0.13497  1.0000
  N   N9        1.0  0.72731  0.06342  0.75097  1.0000
  N   N10       1.0  0.27269  0.93658  0.24903  1.0000
  N   N11       1.0  0.94913  0.39267  0.08478  1.0000
  N   N12       1.0  0.05087  0.60732  0.91522  1.0000
  O   O1        1.0  0.08377  0.67026  0.47861  1.0000
  O   O2        1.0  0.91623  0.32974  0.52139  1.0000
  O   O3        1.0  0.93090  0.74682  0.63287  1.0000
  O   O4        1.0  0.06910  0.25318  0.36712  1.0000
  O   O5        1.0  0.46033  0.08209  0.62938  1.0000
  O   O6        1.0  0.53966  0.91792  0.37063  1.0000
  O   O7        1.0  0.33629  0.89653  0.65655  1.0000
  O   O8        1.0  0.66370  0.10347  0.34345  1.0000
