data_image0
_chemical_formula_structural       Cu3H36C66N12O24
_chemical_formula_sum              "Cu3 H36 C66 N12 O24"
_cell_length_a       7.47032
_cell_length_b       13.2459
_cell_length_c       15.96
_cell_angle_alpha    79.3004
_cell_angle_beta     82.7876
_cell_angle_gamma    87.3933

_space_group_name_H-M_alt    "P 1"
_space_group_IT_number       1

loop_
  _space_group_symop_operation_xyz
  'x, y, z'

loop_
  _atom_site_type_symbol
  _atom_site_label
  _atom_site_symmetry_multiplicity
  _atom_site_fract_x
  _atom_site_fract_y
  _atom_site_fract_z
  _atom_site_occupancy
  Cu  Cu1       1.0  1.00000  1.00000  0.50000  1.0000
  Cu  Cu2       1.0  0.51688  0.76007  0.80500  1.0000
  Cu  Cu3       1.0  0.48312  0.23993  0.19501  1.0000
  H   H1        1.0  0.99716  0.17096  0.34633  1.0000
  H   H2        1.0  0.00284  0.82904  0.65367  1.0000
  H   H3        1.0  0.04906  0.35944  0.31762  1.0000
  H   H4        1.0  0.95094  0.64056  0.68238  1.0000
  H   H5        1.0  0.14487  0.44171  0.43420  1.0000
  H   H6        1.0  0.85513  0.55829  0.56580  1.0000
  H   H7        1.0  0.11982  0.14170  0.59635  1.0000
  H   H8        1.0  0.88019  0.85830  0.40365  1.0000
  H   H9        1.0  0.34207  0.60562  0.50498  1.0000
  H   H10       1.0  0.65793  0.39439  0.49501  1.0000
  H   H11       1.0  0.43795  0.79076  0.49184  1.0000
  H   H12       1.0  0.56205  0.20925  0.50815  1.0000
  H   H13       1.0  0.51663  0.84826  0.62183  1.0000
  H   H14       1.0  0.48337  0.15174  0.37817  1.0000
  H   H15       1.0  0.43118  0.55869  0.77098  1.0000
  H   H16       1.0  0.56882  0.44131  0.22902  1.0000
  H   H17       1.0  0.24759  0.36189  0.89732  1.0000
  H   H18       1.0  0.75240  0.63811  0.10268  1.0000
  H   H19       1.0  0.18351  0.07301  0.04860  1.0000
  H   H20       1.0  0.81649  0.92699  0.95140  1.0000
  H   H21       1.0  0.16987  0.98940  0.91951  1.0000
  H   H22       1.0  0.83013  0.01061  0.08049  1.0000
  H   H23       1.0  0.18529  0.10467  0.77347  1.0000
  H   H24       1.0  0.81471  0.89533  0.22653  1.0000
  H   H25       1.0  0.40027  0.94756  0.07637  1.0000
  H   H26       1.0  0.59973  0.05243  0.92363  1.0000
  H   H27       1.0  0.22548  0.74878  0.36712  1.0000
  H   H28       1.0  0.77453  0.25122  0.63288  1.0000
  H   H29       1.0  0.32564  0.51941  0.00728  1.0000
  H   H30       1.0  0.67436  0.48059  0.99272  1.0000
  H   H31       1.0  0.22833  0.24905  0.03168  1.0000
  H   H32       1.0  0.77166  0.75095  0.96832  1.0000
  H   H33       1.0  0.39970  0.68355  0.98529  1.0000
  H   H34       1.0  0.60030  0.31645  0.01472  1.0000
  H   H35       1.0  0.17296  0.51960  0.19502  1.0000
  H   H36       1.0  0.82704  0.48040  0.80498  1.0000
  C   C1        1.0  0.03495  0.20936  0.39603  1.0000
  C   C2        1.0  0.96504  0.79064  0.60397  1.0000
  C   C3        1.0  0.06407  0.31470  0.38084  1.0000
  C   C4        1.0  0.93593  0.68530  0.61916  1.0000
  C   C5        1.0  0.11741  0.35990  0.44554  1.0000
  C   C6        1.0  0.88259  0.64010  0.55446  1.0000
  C   C7        1.0  0.13927  0.29723  0.52480  1.0000
  C   C8        1.0  0.86073  0.70277  0.47520  1.0000
  C   C9        1.0  0.10588  0.19237  0.53553  1.0000
  C   C10       1.0  0.89413  0.80763  0.46447  1.0000
  C   C11       1.0  0.19798  0.33642  0.59738  1.0000
  C   C12       1.0  0.80203  0.66358  0.40262  1.0000
  C   C13       1.0  0.23491  0.31103  0.73884  1.0000
  C   C14       1.0  0.76509  0.68897  0.26116  1.0000
  C   C15       1.0  0.30906  0.46345  0.65283  1.0000
  C   C16       1.0  0.69094  0.53655  0.34717  1.0000
  C   C17       1.0  0.37599  0.56909  0.63972  1.0000
  C   C18       1.0  0.62401  0.43092  0.36027  1.0000
  C   C19       1.0  0.38151  0.63453  0.55948  1.0000
  C   C20       1.0  0.61849  0.36547  0.44052  1.0000
  C   C21       1.0  0.43430  0.73547  0.55189  1.0000
  C   C22       1.0  0.56570  0.26453  0.44811  1.0000
  C   C23       1.0  0.47818  0.76920  0.62429  1.0000
  C   C24       1.0  0.52181  0.23080  0.37571  1.0000
  C   C25       1.0  0.42847  0.60770  0.70843  1.0000
  C   C26       1.0  0.57153  0.39230  0.29156  1.0000
  C   C27       1.0  0.21805  0.24189  0.82380  1.0000
  C   C28       1.0  0.78195  0.75811  0.17620  1.0000
  C   C29       1.0  0.22798  0.28090  0.89823  1.0000
  C   C30       1.0  0.77202  0.71911  0.10177  1.0000
  C   C31       1.0  0.19218  0.11633  0.98339  1.0000
  C   C32       1.0  0.80782  0.88367  0.01661  1.0000
  C   C33       1.0  0.18244  0.07234  0.91178  1.0000
  C   C34       1.0  0.81757  0.92766  0.08822  1.0000
  C   C35       1.0  0.19362  0.13593  0.83135  1.0000
  C   C36       1.0  0.80639  0.86407  0.16865  1.0000
  C   C37       1.0  0.25313  0.94759  0.37287  1.0000
  C   C38       1.0  0.74687  0.05241  0.62713  1.0000
  C   C39       1.0  0.29255  0.89918  0.29356  1.0000
  C   C40       1.0  0.70745  0.10082  0.70644  1.0000
  C   C41       1.0  0.34996  0.95321  0.21073  1.0000
  C   C42       1.0  0.65005  0.04679  0.78927  1.0000
  C   C43       1.0  0.35684  0.90394  0.14002  1.0000
  C   C44       1.0  0.64316  0.09606  0.85998  1.0000
  C   C45       1.0  0.30931  0.80137  0.14923  1.0000
  C   C46       1.0  0.69068  0.19863  0.85077  1.0000
  C   C47       1.0  0.26862  0.74460  0.23296  1.0000
  C   C48       1.0  0.73138  0.25540  0.76704  1.0000
  C   C49       1.0  0.26173  0.79430  0.30342  1.0000
  C   C50       1.0  0.73828  0.20569  0.69658  1.0000
  C   C51       1.0  0.40721  0.06145  0.19654  1.0000
  C   C52       1.0  0.59280  0.93855  0.80346  1.0000
  C   C53       1.0  0.29294  0.76432  0.06699  1.0000
  C   C54       1.0  0.70705  0.23567  0.93302  1.0000
  C   C55       1.0  0.22658  0.63264  0.25225  1.0000
  C   C56       1.0  0.77343  0.36735  0.74775  1.0000
  C   C57       1.0  0.20050  0.65640  0.87659  1.0000
  C   C58       1.0  0.79951  0.34359  0.12341  1.0000
  C   C59       1.0  0.09776  0.57578  0.94048  1.0000
  C   C60       1.0  0.90224  0.42421  0.05953  1.0000
  C   C61       1.0  0.18245  0.51102  0.00405  1.0000
  C   C62       1.0  0.81755  0.48898  0.99595  1.0000
  C   C63       1.0  0.91340  0.56400  0.93645  1.0000
  C   C64       1.0  0.08660  0.43600  0.06355  1.0000
  C   C65       1.0  0.80991  0.62747  0.86974  1.0000
  C   C66       1.0  0.19009  0.37253  0.13027  1.0000
  N   N1        1.0  0.05388  0.14966  0.47287  1.0000
  N   N2        1.0  0.94612  0.85034  0.52713  1.0000
  N   N3        1.0  0.25967  0.43228  0.58362  1.0000
  N   N4        1.0  0.74033  0.56772  0.41638  1.0000
  N   N5        1.0  0.29705  0.40601  0.73249  1.0000
  N   N6        1.0  0.70295  0.59399  0.26751  1.0000
  N   N7        1.0  0.18528  0.27224  0.67378  1.0000
  N   N8        1.0  0.81472  0.72776  0.32622  1.0000
  N   N9        1.0  0.47568  0.70577  0.70092  1.0000
  N   N10       1.0  0.52432  0.29423  0.29908  1.0000
  N   N11       1.0  0.21523  0.21791  0.97474  1.0000
  N   N12       1.0  0.78477  0.78209  0.02526  1.0000
  O   O1        1.0  0.08906  0.98466  0.38114  1.0000
  O   O2        1.0  0.91093  0.01534  0.61886  1.0000
  O   O3        1.0  0.36318  0.94086  0.42599  1.0000
  O   O4        1.0  0.63681  0.05915  0.57402  1.0000
  O   O5        1.0  0.37357  0.11214  0.25873  1.0000
  O   O6        1.0  0.62643  0.88786  0.74127  1.0000
  O   O7        1.0  0.49045  0.10417  0.12541  1.0000
  O   O8        1.0  0.50956  0.89583  0.87459  1.0000
  O   O9        1.0  0.41870  0.69645  0.04457  1.0000
  O   O10       1.0  0.58129  0.30355  0.95543  1.0000
  O   O11       1.0  0.17571  0.80160  0.02219  1.0000
  O   O12       1.0  0.82428  0.19839  0.97782  1.0000
  O   O13       1.0  0.24844  0.57861  0.32222  1.0000
  O   O14       1.0  0.75157  0.42139  0.67778  1.0000
  O   O15       1.0  0.16332  0.60033  0.18806  1.0000
  O   O16       1.0  0.83668  0.39967  0.81194  1.0000
  O   O17       1.0  0.36983  0.66430  0.88970  1.0000
  O   O18       1.0  0.63017  0.33570  0.11030  1.0000
  O   O19       1.0  0.12844  0.70766  0.81629  1.0000
  O   O20       1.0  0.87156  0.29234  0.18372  1.0000
  O   O21       1.0  0.78065  0.58912  0.80602  1.0000
  O   O22       1.0  0.21935  0.41087  0.19398  1.0000
  O   O23       1.0  0.73822  0.71250  0.88547  1.0000
  O   O24       1.0  0.26178  0.28750  0.11453  1.0000
