data_image0
_chemical_formula_structural       Zn2H52C40N8O12
_chemical_formula_sum              "Zn2 H52 C40 N8 O12"
_cell_length_a       8.9747
_cell_length_b       9.71084
_cell_length_c       12.363
_cell_angle_alpha    90
_cell_angle_beta     90
_cell_angle_gamma    97.0573

_space_group_name_H-M_alt    "P 1"
_space_group_IT_number       1

loop_
  _space_group_symop_operation_xyz
  'x, y, z'

loop_
  _atom_site_type_symbol
  _atom_site_label
  _atom_site_symmetry_multiplicity
  _atom_site_fract_x
  _atom_site_fract_y
  _atom_site_fract_z
  _atom_site_occupancy
  Zn  Zn1       1.0  1.00000  0.00000  0.00000  1.0000
  Zn  Zn2       1.0  0.50000  0.00000  0.50000  1.0000
  H   H1        1.0  0.91472  0.09763  0.18104  1.0000
  H   H2        1.0  0.58528  0.90237  0.68104  1.0000
  H   H3        1.0  0.08528  0.90237  0.81896  1.0000
  H   H4        1.0  0.41472  0.09763  0.31896  1.0000
  H   H5        1.0  0.08735  0.09417  0.21964  1.0000
  H   H6        1.0  0.41265  0.90583  0.71964  1.0000
  H   H7        1.0  0.91265  0.90583  0.78036  1.0000
  H   H8        1.0  0.58735  0.09417  0.28036  1.0000
  H   H9        1.0  0.85697  0.70711  0.98198  1.0000
  H   H10       1.0  0.64303  0.29289  0.48198  1.0000
  H   H11       1.0  0.14303  0.29289  0.01801  1.0000
  H   H12       1.0  0.35697  0.70711  0.51801  1.0000
  H   H13       1.0  0.84096  0.48991  0.09305  1.0000
  H   H14       1.0  0.65904  0.51009  0.59305  1.0000
  H   H15       1.0  0.15904  0.51009  0.90695  1.0000
  H   H16       1.0  0.34096  0.48991  0.40695  1.0000
  H   H17       1.0  0.19987  0.69166  0.29004  1.0000
  H   H18       1.0  0.30013  0.30834  0.79004  1.0000
  H   H19       1.0  0.80012  0.30834  0.70996  1.0000
  H   H20       1.0  0.69988  0.69166  0.20996  1.0000
  H   H21       1.0  0.20242  0.89970  0.16994  1.0000
  H   H22       1.0  0.29758  0.10030  0.66994  1.0000
  H   H23       1.0  0.79758  0.10030  0.83006  1.0000
  H   H24       1.0  0.70243  0.89970  0.33006  1.0000
  H   H25       1.0  0.89713  0.38698  0.26371  1.0000
  H   H26       1.0  0.60287  0.61302  0.76371  1.0000
  H   H27       1.0  0.10287  0.61301  0.73629  1.0000
  H   H28       1.0  0.39713  0.38699  0.23629  1.0000
  H   H29       1.0  0.09229  0.38108  0.25306  1.0000
  H   H30       1.0  0.40771  0.61892  0.75306  1.0000
  H   H31       1.0  0.90771  0.61892  0.74694  1.0000
  H   H32       1.0  0.59229  0.38108  0.24694  1.0000
  H   H33       1.0  0.13268  0.31573  0.42837  1.0000
  H   H34       1.0  0.36731  0.68427  0.92837  1.0000
  H   H35       1.0  0.86732  0.68427  0.57163  1.0000
  H   H36       1.0  0.63268  0.31573  0.07163  1.0000
  H   H37       1.0  0.93756  0.30239  0.45875  1.0000
  H   H38       1.0  0.56244  0.69761  0.95875  1.0000
  H   H39       1.0  0.06244  0.69761  0.54125  1.0000
  H   H40       1.0  0.43756  0.30239  0.04125  1.0000
  H   H41       1.0  0.80658  0.51587  0.42432  1.0000
  H   H42       1.0  0.69342  0.48413  0.92432  1.0000
  H   H43       1.0  0.19342  0.48413  0.57568  1.0000
  H   H44       1.0  0.30658  0.51587  0.07568  1.0000
  H   H45       1.0  0.91751  0.66688  0.37432  1.0000
  H   H46       1.0  0.58249  0.33312  0.87432  1.0000
  H   H47       1.0  0.08249  0.33312  0.62568  1.0000
  H   H48       1.0  0.41751  0.66688  0.12568  1.0000
  H   H49       1.0  0.55861  0.95691  0.88970  1.0000
  H   H50       1.0  0.94140  0.04309  0.38970  1.0000
  H   H51       1.0  0.44139  0.04309  0.11030  1.0000
  H   H52       1.0  0.05861  0.95691  0.61030  1.0000
  C   C1        1.0  0.93269  0.69721  0.04969  1.0000
  C   C2        1.0  0.56731  0.30279  0.54969  1.0000
  C   C3        1.0  0.06731  0.30279  0.95031  1.0000
  C   C4        1.0  0.43269  0.69721  0.45031  1.0000
  C   C5        1.0  0.92537  0.57711  0.11163  1.0000
  C   C6        1.0  0.57462  0.42289  0.61163  1.0000
  C   C7        1.0  0.07462  0.42289  0.88837  1.0000
  C   C8        1.0  0.42537  0.57711  0.38837  1.0000
  C   C9        1.0  0.02060  0.57305  0.20062  1.0000
  C   C10       1.0  0.47940  0.42695  0.70062  1.0000
  C   C11       1.0  0.97940  0.42695  0.79938  1.0000
  C   C12       1.0  0.52060  0.57305  0.29938  1.0000
  C   C13       1.0  0.12462  0.68997  0.22084  1.0000
  C   C14       1.0  0.37537  0.31003  0.72084  1.0000
  C   C15       1.0  0.87537  0.31003  0.77916  1.0000
  C   C16       1.0  0.62463  0.68997  0.27916  1.0000
  C   C17       1.0  0.12595  0.80563  0.15488  1.0000
  C   C18       1.0  0.37405  0.19437  0.65488  1.0000
  C   C19       1.0  0.87405  0.19437  0.84512  1.0000
  C   C20       1.0  0.62595  0.80563  0.34512  1.0000
  C   C21       1.0  0.00815  0.44996  0.27546  1.0000
  C   C22       1.0  0.49185  0.55004  0.77546  1.0000
  C   C23       1.0  0.99184  0.55004  0.72454  1.0000
  C   C24       1.0  0.50815  0.44996  0.22454  1.0000
  C   C25       1.0  0.04383  0.37454  0.45840  1.0000
  C   C26       1.0  0.45616  0.62545  0.95840  1.0000
  C   C27       1.0  0.95617  0.62546  0.54160  1.0000
  C   C28       1.0  0.54384  0.37454  0.04160  1.0000
  C   C29       1.0  0.92035  0.57618  0.42691  1.0000
  C   C30       1.0  0.57965  0.42383  0.92691  1.0000
  C   C31       1.0  0.07965  0.42383  0.57309  1.0000
  C   C32       1.0  0.42035  0.57617  0.07308  1.0000
  C   C33       1.0  0.31946  0.98905  0.91350  1.0000
  C   C34       1.0  0.18054  0.01095  0.41350  1.0000
  C   C35       1.0  0.68054  0.01095  0.08650  1.0000
  C   C36       1.0  0.81946  0.98905  0.58651  1.0000
  C   C37       1.0  0.47811  0.98689  0.94873  1.0000
  C   C38       1.0  0.02190  0.01311  0.44873  1.0000
  C   C39       1.0  0.52189  0.01311  0.05127  1.0000
  C   C40       1.0  0.97811  0.98689  0.55127  1.0000
  N   N1        1.0  0.02979  0.81029  0.07182  1.0000
  N   N2        1.0  0.47021  0.18971  0.57182  1.0000
  N   N3        1.0  0.97021  0.18971  0.92818  1.0000
  N   N4        1.0  0.52979  0.81029  0.42818  1.0000
  N   N5        1.0  0.03412  0.49298  0.38732  1.0000
  N   N6        1.0  0.46588  0.50702  0.88732  1.0000
  N   N7        1.0  0.96588  0.50702  0.61268  1.0000
  N   N8        1.0  0.53412  0.49298  0.11268  1.0000
  O   O1        1.0  0.23353  0.04410  0.97801  1.0000
  O   O2        1.0  0.26648  0.95590  0.47801  1.0000
  O   O3        1.0  0.76647  0.95590  0.02199  1.0000
  O   O4        1.0  0.73353  0.04410  0.52199  1.0000
  O   O5        1.0  0.28046  0.93259  0.82250  1.0000
  O   O6        1.0  0.21955  0.06741  0.32250  1.0000
  O   O7        1.0  0.71954  0.06741  0.17750  1.0000
  O   O8        1.0  0.78046  0.93259  0.67750  1.0000
  O   O9        1.0  0.02208  0.11393  0.15785  1.0000
  O   O10       1.0  0.47792  0.88607  0.65785  1.0000
  O   O11       1.0  0.97792  0.88607  0.84215  1.0000
  O   O12       1.0  0.52208  0.11393  0.34215  1.0000
