data_image0
_chemical_formula_structural       CuH30C34N12O16
_chemical_formula_sum              "Cu1 H30 C34 N12 O16"
_cell_length_a       9.50589
_cell_length_b       10.1365
_cell_length_c       10.887
_cell_angle_alpha    116.913
_cell_angle_beta     93.4804
_cell_angle_gamma    101.375

_space_group_name_H-M_alt    "P 1"
_space_group_IT_number       1

loop_
  _space_group_symop_operation_xyz
  'x, y, z'

loop_
  _atom_site_type_symbol
  _atom_site_label
  _atom_site_symmetry_multiplicity
  _atom_site_fract_x
  _atom_site_fract_y
  _atom_site_fract_z
  _atom_site_occupancy
  Cu  Cu1       1.0  0.50000  0.50000  0.50000  1.0000
  H   H1        1.0  0.45398  0.45990  0.11584  1.0000
  H   H2        1.0  0.54602  0.54010  0.88416  1.0000
  H   H3        1.0  0.12061  0.91568  0.37331  1.0000
  H   H4        1.0  0.87939  0.08432  0.62669  1.0000
  H   H5        1.0  0.60992  0.12250  0.90764  1.0000
  H   H6        1.0  0.39008  0.87750  0.09236  1.0000
  H   H7        1.0  0.85839  0.54047  0.53748  1.0000
  H   H8        1.0  0.14161  0.45953  0.46252  1.0000
  H   H9        1.0  0.51574  0.17111  0.24723  1.0000
  H   H10       1.0  0.48426  0.82889  0.75277  1.0000
  H   H11       1.0  0.86894  0.06483  0.15951  1.0000
  H   H12       1.0  0.13106  0.93517  0.84049  1.0000
  H   H13       1.0  0.67580  0.98743  0.11765  1.0000
  H   H14       1.0  0.32420  0.01257  0.88235  1.0000
  H   H15       1.0  0.79265  0.84971  0.21265  1.0000
  H   H16       1.0  0.20735  0.15029  0.78735  1.0000
  H   H17       1.0  0.88604  0.02226  0.36271  1.0000
  H   H18       1.0  0.11396  0.97775  0.63729  1.0000
  H   H19       1.0  0.65006  0.06770  0.44082  1.0000
  H   H20       1.0  0.34994  0.93230  0.55918  1.0000
  H   H21       1.0  0.55210  0.89875  0.28572  1.0000
  H   H22       1.0  0.44790  0.10125  0.71428  1.0000
  H   H23       1.0  0.79826  0.79530  0.66343  1.0000
  H   H24       1.0  0.20174  0.20470  0.33657  1.0000
  H   H25       1.0  0.46897  0.68019  0.32778  1.0000
  H   H26       1.0  0.53103  0.31981  0.67222  1.0000
  H   H27       1.0  0.83446  0.60399  0.20222  1.0000
  H   H28       1.0  0.16554  0.39601  0.79778  1.0000
  H   H29       1.0  0.07031  0.17826  0.02011  1.0000
  H   H30       1.0  0.92969  0.82174  0.97989  1.0000
  C   C1        1.0  0.79809  0.42970  0.45399  1.0000
  C   C2        1.0  0.20191  0.57030  0.54600  1.0000
  C   C3        1.0  0.62208  0.24397  0.30777  1.0000
  C   C4        1.0  0.37793  0.75603  0.69223  1.0000
  C   C5        1.0  0.76957  0.05029  0.20312  1.0000
  C   C6        1.0  0.23043  0.94971  0.79688  1.0000
  C   C7        1.0  0.78447  0.96484  0.28628  1.0000
  C   C8        1.0  0.21553  0.03516  0.71372  1.0000
  C   C9        1.0  0.65482  0.95408  0.36040  1.0000
  C   C10       1.0  0.34518  0.04592  0.63960  1.0000
  C   C11       1.0  0.73694  0.79352  0.57500  1.0000
  C   C12       1.0  0.26306  0.20648  0.42500  1.0000
  C   C13       1.0  0.56735  0.73272  0.40520  1.0000
  C   C14       1.0  0.43265  0.26728  0.59480  1.0000
  C   C15       1.0  0.10536  0.42066  0.14854  1.0000
  C   C16       1.0  0.89465  0.57934  0.85145  1.0000
  C   C17       1.0  0.03912  0.54329  0.19813  1.0000
  C   C18       1.0  0.96088  0.45671  0.80187  1.0000
  C   C19       1.0  0.88835  0.51140  0.16203  1.0000
  C   C20       1.0  0.11165  0.48860  0.83797  1.0000
  C   C21       1.0  0.80055  0.36357  0.07500  1.0000
  C   C22       1.0  0.19945  0.63643  0.92500  1.0000
  C   C23       1.0  0.86962  0.24147  0.01734  1.0000
  C   C24       1.0  0.13039  0.75853  0.98265  1.0000
  C   C25       1.0  0.02010  0.27397  0.05941  1.0000
  C   C26       1.0  0.97990  0.72603  0.94059  1.0000
  C   C27       1.0  0.26487  0.43484  0.18325  1.0000
  C   C28       1.0  0.73514  0.56515  0.81674  1.0000
  C   C29       1.0  0.12802  0.70325  0.28729  1.0000
  C   C30       1.0  0.87198  0.29675  0.71271  1.0000
  C   C31       1.0  0.63931  0.35443  0.05795  1.0000
  C   C32       1.0  0.36069  0.64557  0.94205  1.0000
  C   C33       1.0  0.80385  0.07366  0.91234  1.0000
  C   C34       1.0  0.19616  0.92634  0.08766  1.0000
  N   N1        1.0  0.74806  0.20197  0.29069  1.0000
  N   N2        1.0  0.25194  0.79803  0.70931  1.0000
  N   N3        1.0  0.86130  0.31866  0.38334  1.0000
  N   N4        1.0  0.13870  0.68134  0.61666  1.0000
  N   N5        1.0  0.65045  0.38798  0.41127  1.0000
  N   N6        1.0  0.34956  0.61202  0.58873  1.0000
  N   N7        1.0  0.66199  0.86207  0.43051  1.0000
  N   N8        1.0  0.33801  0.13793  0.56949  1.0000
  N   N9        1.0  0.77090  0.90272  0.53820  1.0000
  N   N10       1.0  0.22909  0.09728  0.46180  1.0000
  N   N11       1.0  0.61152  0.68677  0.49519  1.0000
  N   N12       1.0  0.38848  0.31323  0.50481  1.0000
  O   O1        1.0  0.31166  0.41106  0.27825  1.0000
  O   O2        1.0  0.68834  0.58893  0.72175  1.0000
  O   O3        1.0  0.34068  0.46175  0.09702  1.0000
  O   O4        1.0  0.65932  0.53825  0.90298  1.0000
  O   O5        1.0  0.26023  0.73482  0.32861  1.0000
  O   O6        1.0  0.73977  0.26518  0.67139  1.0000
  O   O7        1.0  0.05238  0.80868  0.31739  1.0000
  O   O8        1.0  0.94762  0.19132  0.68261  1.0000
  O   O9        1.0  0.60110  0.47149  0.14164  1.0000
  O   O10       1.0  0.39890  0.52851  0.85836  1.0000
  O   O11       1.0  0.54723  0.23337  0.96500  1.0000
  O   O12       1.0  0.45278  0.76663  0.03500  1.0000
  O   O13       1.0  0.66306  0.02668  0.86325  1.0000
  O   O14       1.0  0.33694  0.97332  0.13675  1.0000
  O   O15       1.0  0.88375  0.98490  0.87418  1.0000
  O   O16       1.0  0.11625  0.01510  0.12582  1.0000
