data_image0
_chemical_formula_structural       Cd2H14C14N10O10
_chemical_formula_sum              "Cd2 H14 C14 N10 O10"
_cell_length_a       5.44224
_cell_length_b       10.5633
_cell_length_c       10.1244
_cell_angle_alpha    101.732
_cell_angle_beta     104.23
_cell_angle_gamma    99.211

_space_group_name_H-M_alt    "P 1"
_space_group_IT_number       1

loop_
  _space_group_symop_operation_xyz
  'x, y, z'

loop_
  _atom_site_type_symbol
  _atom_site_label
  _atom_site_symmetry_multiplicity
  _atom_site_fract_x
  _atom_site_fract_y
  _atom_site_fract_z
  _atom_site_occupancy
  Cd  Cd1       1.0  0.30406  0.27500  0.61388  1.0000
  Cd  Cd2       1.0  0.69593  0.72499  0.38614  1.0000
  H   H1        1.0  0.67526  0.08538  0.71331  1.0000
  H   H2        1.0  0.32472  0.91459  0.28669  1.0000
  H   H3        1.0  0.00410  0.02855  0.13662  1.0000
  H   H4        1.0  0.99588  0.97143  0.86337  1.0000
  H   H5        1.0  0.89926  0.13217  0.26132  1.0000
  H   H6        1.0  0.10079  0.86783  0.73868  1.0000
  H   H7        1.0  0.48570  0.25792  0.26504  1.0000
  H   H8        1.0  0.51433  0.74210  0.73497  1.0000
  H   H9        1.0  0.18912  0.39680  0.16564  1.0000
  H   H10       1.0  0.81093  0.60323  0.83436  1.0000
  H   H11       1.0  0.99197  0.43912  0.70573  1.0000
  H   H12       1.0  0.00796  0.56087  0.29426  1.0000
  H   H13       1.0  0.19051  0.41384  0.83943  1.0000
  H   H14       1.0  0.80944  0.58616  0.16056  1.0000
  C   C1        1.0  0.10930  0.98149  0.46672  1.0000
  C   C2        1.0  0.89066  0.01850  0.53324  1.0000
  C   C3        1.0  0.63531  0.51513  0.55640  1.0000
  C   C4        1.0  0.36466  0.48487  0.44362  1.0000
  C   C5        1.0  0.64528  0.12498  0.81469  1.0000
  C   C6        1.0  0.35472  0.87500  0.18531  1.0000
  C   C7        1.0  0.44993  0.25362  0.94343  1.0000
  C   C8        1.0  0.55011  0.74639  0.05658  1.0000
  C   C9        1.0  0.56232  0.21125  0.06284  1.0000
  C   C10       1.0  0.43771  0.78875  0.93717  1.0000
  C   C11       1.0  0.73807  0.12697  0.05323  1.0000
  C   C12       1.0  0.26193  0.87303  0.94677  1.0000
  C   C13       1.0  0.29626  0.34121  0.10693  1.0000
  C   C14       1.0  0.70378  0.65881  0.89307  1.0000
  N   N1        1.0  0.76683  0.08253  0.92321  1.0000
  N   N2        1.0  0.23316  0.91746  0.07679  1.0000
  N   N3        1.0  0.49270  0.21274  0.81702  1.0000
  N   N4        1.0  0.50733  0.78726  0.18298  1.0000
  N   N5        1.0  0.87418  0.08535  0.15952  1.0000
  N   N6        1.0  0.12583  0.91464  0.84049  1.0000
  N   N7        1.0  0.45663  0.26817  0.16513  1.0000
  N   N8        1.0  0.54340  0.73184  0.83488  1.0000
  N   N9        1.0  0.28815  0.33567  0.97363  1.0000
  N   N10       1.0  0.71191  0.66435  0.02638  1.0000
  O   O1        1.0  0.27581  0.07607  0.45761  1.0000
  O   O2        1.0  0.72418  0.92395  0.54236  1.0000
  O   O3        1.0  0.10462  0.85954  0.42457  1.0000
  O   O4        1.0  0.89533  0.14048  0.57539  1.0000
  O   O5        1.0  0.67849  0.42690  0.62278  1.0000
  O   O6        1.0  0.32146  0.57310  0.37728  1.0000
  O   O7        1.0  0.79167  0.62403  0.57670  1.0000
  O   O8        1.0  0.20831  0.37594  0.42330  1.0000
  O   O9        1.0  0.17962  0.44446  0.75099  1.0000
  O   O10       1.0  0.82032  0.55553  0.24899  1.0000
