data_image0
_chemical_formula_structural       Zn2H32C32N36
_chemical_formula_sum              "Zn2 H32 C32 N36"
_cell_length_a       8.35956
_cell_length_b       8.51085
_cell_length_c       15.403
_cell_angle_alpha    92.4601
_cell_angle_beta     90
_cell_angle_gamma    90

_space_group_name_H-M_alt    "P 1"
_space_group_IT_number       1

loop_
  _space_group_symop_operation_xyz
  'x, y, z'

loop_
  _atom_site_type_symbol
  _atom_site_label
  _atom_site_symmetry_multiplicity
  _atom_site_fract_x
  _atom_site_fract_y
  _atom_site_fract_z
  _atom_site_occupancy
  Zn  Zn1       1.0  0.00000  0.50000  0.50000  1.0000
  Zn  Zn2       1.0  0.50000  0.00000  0.00000  1.0000
  H   H1        1.0  0.61802  0.56590  0.42795  1.0000
  H   H2        1.0  0.88198  0.06591  0.92796  1.0000
  H   H3        1.0  0.38198  0.43409  0.57205  1.0000
  H   H4        1.0  0.11802  0.93409  0.07204  1.0000
  H   H5        1.0  0.84411  0.77783  0.64769  1.0000
  H   H6        1.0  0.65590  0.27783  0.14769  1.0000
  H   H7        1.0  0.15589  0.22217  0.35231  1.0000
  H   H8        1.0  0.34410  0.72217  0.85231  1.0000
  H   H9        1.0  0.05975  0.88108  0.45262  1.0000
  H   H10       1.0  0.44025  0.38108  0.95263  1.0000
  H   H11       1.0  0.94025  0.11892  0.54738  1.0000
  H   H12       1.0  0.55975  0.61892  0.04738  1.0000
  H   H13       1.0  0.25927  0.63177  0.65641  1.0000
  H   H14       1.0  0.24073  0.13177  0.15642  1.0000
  H   H15       1.0  0.74073  0.36823  0.34359  1.0000
  H   H16       1.0  0.75927  0.86823  0.84359  1.0000
  H   H17       1.0  0.54319  0.05203  0.58071  1.0000
  H   H18       1.0  0.95681  0.55203  0.08071  1.0000
  H   H19       1.0  0.45681  0.94797  0.41929  1.0000
  H   H20       1.0  0.04319  0.44797  0.91929  1.0000
  H   H21       1.0  0.65104  0.00143  0.67533  1.0000
  H   H22       1.0  0.84896  0.50144  0.17533  1.0000
  H   H23       1.0  0.34896  0.99857  0.32467  1.0000
  H   H24       1.0  0.15104  0.49856  0.82467  1.0000
  H   H25       1.0  0.42105  0.84427  0.72593  1.0000
  H   H26       1.0  0.07895  0.34427  0.22593  1.0000
  H   H27       1.0  0.57895  0.15573  0.27407  1.0000
  H   H28       1.0  0.92105  0.65573  0.77407  1.0000
  H   H29       1.0  0.36201  0.04223  0.70737  1.0000
  H   H30       1.0  0.13799  0.54223  0.20737  1.0000
  H   H31       1.0  0.63799  0.95777  0.29263  1.0000
  H   H32       1.0  0.86201  0.45777  0.79263  1.0000
  C   C1        1.0  0.64394  0.64103  0.48487  1.0000
  C   C2        1.0  0.85606  0.14103  0.98487  1.0000
  C   C3        1.0  0.35606  0.35897  0.51513  1.0000
  C   C4        1.0  0.14394  0.85897  0.01513  1.0000
  C   C5        1.0  0.76093  0.74415  0.59594  1.0000
  C   C6        1.0  0.73907  0.24416  0.09595  1.0000
  C   C7        1.0  0.23907  0.25584  0.40406  1.0000
  C   C8        1.0  0.26093  0.75584  0.90405  1.0000
  C   C9        1.0  0.12916  0.85158  0.50902  1.0000
  C   C10       1.0  0.37084  0.35158  0.00902  1.0000
  C   C11       1.0  0.87084  0.14842  0.49098  1.0000
  C   C12       1.0  0.62916  0.64842  0.99098  1.0000
  C   C13       1.0  0.22524  0.72124  0.61170  1.0000
  C   C14       1.0  0.27476  0.22124  0.11170  1.0000
  C   C15       1.0  0.77476  0.27876  0.38830  1.0000
  C   C16       1.0  0.72524  0.77876  0.88830  1.0000
  C   C17       1.0  0.55994  0.96080  0.62828  1.0000
  C   C18       1.0  0.94006  0.46081  0.12828  1.0000
  C   C19       1.0  0.44006  0.03920  0.37172  1.0000
  C   C20       1.0  0.05994  0.53919  0.87172  1.0000
  C   C21       1.0  0.40360  0.93127  0.67643  1.0000
  C   C22       1.0  0.09640  0.43127  0.17643  1.0000
  C   C23       1.0  0.59640  0.06873  0.32357  1.0000
  C   C24       1.0  0.90360  0.56873  0.82357  1.0000
  C   C25       1.0  0.94711  0.69222  0.32389  1.0000
  C   C26       1.0  0.55289  0.19222  0.82389  1.0000
  C   C27       1.0  0.05289  0.30777  0.67611  1.0000
  C   C28       1.0  0.44710  0.80778  0.17611  1.0000
  C   C29       1.0  0.99208  0.92537  0.25862  1.0000
  C   C30       1.0  0.50791  0.42537  0.75862  1.0000
  C   C31       1.0  0.00791  0.07463  0.74139  1.0000
  C   C32       1.0  0.49209  0.57463  0.24139  1.0000
  N   N1        1.0  0.62253  0.82033  0.58283  1.0000
  N   N2        1.0  0.87747  0.32034  0.08283  1.0000
  N   N3        1.0  0.37747  0.17967  0.41717  1.0000
  N   N4        1.0  0.12254  0.67967  0.91717  1.0000
  N   N5        1.0  0.54609  0.75586  0.51165  1.0000
  N   N6        1.0  0.95391  0.25587  0.01165  1.0000
  N   N7        1.0  0.45391  0.24414  0.48835  1.0000
  N   N8        1.0  0.04609  0.74413  0.98835  1.0000
  N   N9        1.0  0.77813  0.62919  0.53473  1.0000
  N   N10       1.0  0.72186  0.12919  0.03473  1.0000
  N   N11       1.0  0.22187  0.37081  0.46527  1.0000
  N   N12       1.0  0.27814  0.87081  0.96527  1.0000
  N   N13       1.0  0.27956  0.86969  0.61829  1.0000
  N   N14       1.0  0.22044  0.36969  0.11829  1.0000
  N   N15       1.0  0.72044  0.13031  0.38171  1.0000
  N   N16       1.0  0.77956  0.63031  0.88171  1.0000
  N   N17       1.0  0.21918  0.95555  0.55331  1.0000
  N   N18       1.0  0.28082  0.45555  0.05331  1.0000
  N   N19       1.0  0.78081  0.04445  0.44669  1.0000
  N   N20       1.0  0.71918  0.54445  0.94669  1.0000
  N   N21       1.0  0.12880  0.70593  0.54274  1.0000
  N   N22       1.0  0.37120  0.20593  0.04274  1.0000
  N   N23       1.0  0.87120  0.29407  0.45726  1.0000
  N   N24       1.0  0.62880  0.79407  0.95726  1.0000
  N   N25       1.0  0.97023  0.58762  0.37035  1.0000
  N   N26       1.0  0.52977  0.08763  0.87035  1.0000
  N   N27       1.0  0.02977  0.41237  0.62965  1.0000
  N   N28       1.0  0.47022  0.91237  0.12965  1.0000
  N   N29       1.0  0.91159  0.79649  0.26847  1.0000
  N   N30       1.0  0.58842  0.29649  0.76847  1.0000
  N   N31       1.0  0.08841  0.20351  0.73153  1.0000
  N   N32       1.0  0.41158  0.70351  0.23153  1.0000
  N   N33       1.0  0.05590  0.04589  0.24503  1.0000
  N   N34       1.0  0.44410  0.54589  0.74503  1.0000
  N   N35       1.0  0.94410  0.95411  0.75497  1.0000
  N   N36       1.0  0.55591  0.45411  0.25497  1.0000
