data_image0
_chemical_formula_structural       Zn6P6H42C18N6O18
_chemical_formula_sum              "Zn6 P6 H42 C18 N6 O18"
_cell_length_a       10.1585
_cell_length_b       10.1586
_cell_length_c       13.2604
_cell_angle_alpha    89.9823
_cell_angle_beta     90.0177
_cell_angle_gamma    120.02

_space_group_name_H-M_alt    "P 1"
_space_group_IT_number       1

loop_
  _space_group_symop_operation_xyz
  'x, y, z'

loop_
  _atom_site_type_symbol
  _atom_site_label
  _atom_site_symmetry_multiplicity
  _atom_site_fract_x
  _atom_site_fract_y
  _atom_site_fract_z
  _atom_site_occupancy
  Zn  Zn1       1.0  0.22840  0.58976  0.40914  1.0000
  Zn  Zn2       1.0  0.41028  0.63861  0.07575  1.0000
  Zn  Zn3       1.0  0.36146  0.77167  0.74255  1.0000
  Zn  Zn4       1.0  0.58976  0.22840  0.59086  1.0000
  Zn  Zn5       1.0  0.63861  0.41027  0.92425  1.0000
  Zn  Zn6       1.0  0.77167  0.36147  0.25745  1.0000
  P   P1        1.0  0.10980  0.46839  0.17918  1.0000
  P   P2        1.0  0.53176  0.64149  0.84580  1.0000
  P   P3        1.0  0.35856  0.89009  0.51260  1.0000
  P   P4        1.0  0.46839  0.10980  0.82081  1.0000
  P   P5        1.0  0.64149  0.53177  0.15421  1.0000
  P   P6        1.0  0.89010  0.35856  0.48740  1.0000
  H   H1        1.0  0.07308  0.31401  0.18524  1.0000
  H   H2        1.0  0.68610  0.75937  0.85177  1.0000
  H   H3        1.0  0.24076  0.92659  0.51860  1.0000
  H   H4        1.0  0.31401  0.07309  0.81476  1.0000
  H   H5        1.0  0.75937  0.68610  0.14823  1.0000
  H   H6        1.0  0.92660  0.24077  0.48140  1.0000
  H   H7        1.0  0.52168  0.68259  0.53060  1.0000
  H   H8        1.0  0.31734  0.83895  0.19712  1.0000
  H   H9        1.0  0.16091  0.47846  0.86424  1.0000
  H   H10       1.0  0.68259  0.52167  0.46939  1.0000
  H   H11       1.0  0.83895  0.31733  0.80288  1.0000
  H   H12       1.0  0.47846  0.16091  0.13576  1.0000
  H   H13       1.0  0.55723  0.64397  0.40492  1.0000
  H   H14       1.0  0.35616  0.91318  0.07141  1.0000
  H   H15       1.0  0.08670  0.44266  0.73852  1.0000
  H   H16       1.0  0.64397  0.55723  0.59508  1.0000
  H   H17       1.0  0.91318  0.35616  0.92859  1.0000
  H   H18       1.0  0.44266  0.08670  0.26148  1.0000
  H   H19       1.0  0.15967  0.33426  0.55486  1.0000
  H   H20       1.0  0.66549  0.82529  0.22179  1.0000
  H   H21       1.0  0.17477  0.84039  0.88817  1.0000
  H   H22       1.0  0.33425  0.15967  0.44514  1.0000
  H   H23       1.0  0.82529  0.66549  0.77821  1.0000
  H   H24       1.0  0.84039  0.17477  0.11184  1.0000
  H   H25       1.0  0.29745  0.50329  0.61661  1.0000
  H   H26       1.0  0.49641  0.79406  0.28334  1.0000
  H   H27       1.0  0.20587  0.70258  0.94998  1.0000
  H   H28       1.0  0.50328  0.29744  0.38339  1.0000
  H   H29       1.0  0.79406  0.49640  0.71666  1.0000
  H   H30       1.0  0.70258  0.20587  0.05003  1.0000
  H   H31       1.0  0.37505  0.41657  0.32063  1.0000
  H   H32       1.0  0.58362  0.95852  0.98732  1.0000
  H   H33       1.0  0.04151  0.62483  0.65392  1.0000
  H   H34       1.0  0.41657  0.37505  0.67937  1.0000
  H   H35       1.0  0.95851  0.58361  0.01268  1.0000
  H   H36       1.0  0.62483  0.04151  0.34608  1.0000
  H   H37       1.0  0.20664  0.28349  0.38459  1.0000
  H   H38       1.0  0.71662  0.92321  0.05140  1.0000
  H   H39       1.0  0.07684  0.79322  0.71785  1.0000
  H   H40       1.0  0.28349  0.20664  0.61541  1.0000
  H   H41       1.0  0.92321  0.71662  0.94860  1.0000
  H   H42       1.0  0.79322  0.07684  0.28215  1.0000
  C   C1        1.0  0.51148  0.59366  0.47896  1.0000
  C   C2        1.0  0.40637  0.91773  0.14551  1.0000
  C   C3        1.0  0.08216  0.48854  0.81251  1.0000
  C   C4        1.0  0.59366  0.51147  0.52103  1.0000
  C   C5        1.0  0.91773  0.40637  0.85450  1.0000
  C   C6        1.0  0.48854  0.08216  0.18749  1.0000
  C   C7        1.0  0.28182  0.41224  0.56526  1.0000
  C   C8        1.0  0.58759  0.86953  0.23204  1.0000
  C   C9        1.0  0.13048  0.71823  0.89856  1.0000
  C   C10       1.0  0.41223  0.28182  0.43475  1.0000
  C   C11       1.0  0.86953  0.58759  0.76796  1.0000
  C   C12       1.0  0.71823  0.13048  0.10144  1.0000
  C   C13       1.0  0.32898  0.36296  0.39385  1.0000
  C   C14       1.0  0.63716  0.96605  0.06058  1.0000
  C   C15       1.0  0.03395  0.67088  0.72712  1.0000
  C   C16       1.0  0.36296  0.32899  0.60615  1.0000
  C   C17       1.0  0.96605  0.63716  0.93942  1.0000
  C   C18       1.0  0.67088  0.03396  0.27288  1.0000
  N   N1        1.0  0.34604  0.48346  0.46562  1.0000
  N   N2        1.0  0.51655  0.86253  0.13231  1.0000
  N   N3        1.0  0.13744  0.65394  0.79898  1.0000
  N   N4        1.0  0.48346  0.34604  0.53438  1.0000
  N   N5        1.0  0.86252  0.51655  0.86769  1.0000
  N   N6        1.0  0.65395  0.13744  0.20102  1.0000
  O   O1        1.0  0.22079  0.55163  0.26546  1.0000
  O   O2        1.0  0.44847  0.66904  0.93209  1.0000
  O   O3        1.0  0.33092  0.77907  0.59883  1.0000
  O   O4        1.0  0.55163  0.22080  0.73454  1.0000
  O   O5        1.0  0.66903  0.44848  0.06791  1.0000
  O   O6        1.0  0.77907  0.33091  0.40116  1.0000
  O   O7        1.0  0.95997  0.46964  0.18318  1.0000
  O   O8        1.0  0.53077  0.49054  0.84981  1.0000
  O   O9        1.0  0.50961  0.04003  0.51673  1.0000
  O   O10       1.0  0.46965  0.95997  0.81681  1.0000
  O   O11       1.0  0.49055  0.53079  0.15020  1.0000
  O   O12       1.0  0.04003  0.50961  0.48327  1.0000
  O   O13       1.0  0.18823  0.52898  0.07679  1.0000
  O   O14       1.0  0.47102  0.65924  0.74343  1.0000
  O   O15       1.0  0.34082  0.81178  0.41019  1.0000
  O   O16       1.0  0.52899  0.18823  0.92321  1.0000
  O   O17       1.0  0.65924  0.47102  0.25657  1.0000
  O   O18       1.0  0.81178  0.34082  0.58981  1.0000
