data_image0
_chemical_formula_structural       Cu4H36C32N20O20
_chemical_formula_sum              "Cu4 H36 C32 N20 O20"
_cell_length_a       7.80003
_cell_length_b       8.07573
_cell_length_c       20.759
_cell_angle_alpha    90
_cell_angle_beta     90
_cell_angle_gamma    116.096

_space_group_name_H-M_alt    "P 1"
_space_group_IT_number       1

loop_
  _space_group_symop_operation_xyz
  'x, y, z'

loop_
  _atom_site_type_symbol
  _atom_site_label
  _atom_site_symmetry_multiplicity
  _atom_site_fract_x
  _atom_site_fract_y
  _atom_site_fract_z
  _atom_site_occupancy
  Cu  Cu1       1.0  0.33013  0.00830  0.16428  1.0000
  Cu  Cu2       1.0  0.66986  0.49170  0.66429  1.0000
  Cu  Cu3       1.0  0.66984  0.99170  0.83571  1.0000
  Cu  Cu4       1.0  0.33015  0.50830  0.33571  1.0000
  H   H1        1.0  0.60362  0.61889  0.94303  1.0000
  H   H2        1.0  0.39638  0.88112  0.44303  1.0000
  H   H3        1.0  0.39637  0.38111  0.05696  1.0000
  H   H4        1.0  0.60363  0.11888  0.55697  1.0000
  H   H5        1.0  0.75575  0.51518  0.87449  1.0000
  H   H6        1.0  0.24426  0.98482  0.37449  1.0000
  H   H7        1.0  0.24426  0.48481  0.12550  1.0000
  H   H8        1.0  0.75575  0.01519  0.62551  1.0000
  H   H9        1.0  0.95121  0.48027  0.90547  1.0000
  H   H10       1.0  0.04879  0.01974  0.40546  1.0000
  H   H11       1.0  0.04880  0.51974  0.09453  1.0000
  H   H12       1.0  0.95121  0.98026  0.59454  1.0000
  H   H13       1.0  0.99414  0.68590  0.86115  1.0000
  H   H14       1.0  0.00586  0.81410  0.36115  1.0000
  H   H15       1.0  0.00587  0.31410  0.13885  1.0000
  H   H16       1.0  0.99414  0.18590  0.63885  1.0000
  H   H17       1.0  0.68635  0.86206  0.14209  1.0000
  H   H18       1.0  0.31365  0.63794  0.64209  1.0000
  H   H19       1.0  0.31364  0.13792  0.85791  1.0000
  H   H20       1.0  0.68636  0.36206  0.35792  1.0000
  H   H21       1.0  0.93338  0.95612  0.15983  1.0000
  H   H22       1.0  0.06662  0.54388  0.65983  1.0000
  H   H23       1.0  0.06660  0.04387  0.84017  1.0000
  H   H24       1.0  0.93339  0.45612  0.34018  1.0000
  H   H25       1.0  0.46110  0.86943  0.04802  1.0000
  H   H26       1.0  0.53890  0.63056  0.54802  1.0000
  H   H27       1.0  0.53890  0.13057  0.95198  1.0000
  H   H28       1.0  0.46110  0.36942  0.45198  1.0000
  H   H29       1.0  0.66615  0.26765  0.08104  1.0000
  H   H30       1.0  0.33385  0.23234  0.58105  1.0000
  H   H31       1.0  0.33385  0.73235  0.91896  1.0000
  H   H32       1.0  0.66615  0.76765  0.41896  1.0000
  H   H33       1.0  0.67052  0.32726  0.15418  1.0000
  H   H34       1.0  0.32948  0.17273  0.65418  1.0000
  H   H35       1.0  0.32947  0.67275  0.84582  1.0000
  H   H36       1.0  0.67054  0.82726  0.34582  1.0000
  C   C1        1.0  0.38669  0.73383  0.22991  1.0000
  C   C2        1.0  0.61330  0.76617  0.72990  1.0000
  C   C3        1.0  0.61330  0.26616  0.77009  1.0000
  C   C4        1.0  0.38670  0.23384  0.27009  1.0000
  C   C5        1.0  0.20132  0.71639  0.26325  1.0000
  C   C6        1.0  0.79866  0.78360  0.76325  1.0000
  C   C7        1.0  0.79867  0.28360  0.73675  1.0000
  C   C8        1.0  0.20133  0.21640  0.23675  1.0000
  C   C9        1.0  0.72447  0.67560  0.97617  1.0000
  C   C10       1.0  0.27553  0.82441  0.47617  1.0000
  C   C11       1.0  0.27552  0.32440  0.02382  1.0000
  C   C12       1.0  0.72448  0.17560  0.52383  1.0000
  C   C13       1.0  0.89885  0.58307  0.89521  1.0000
  C   C14       1.0  0.10115  0.91694  0.39521  1.0000
  C   C15       1.0  0.10115  0.41694  0.10479  1.0000
  C   C16       1.0  0.89886  0.08307  0.60479  1.0000
  C   C17       1.0  0.04258  0.75015  0.99520  1.0000
  C   C18       1.0  0.95742  0.74986  0.49521  1.0000
  C   C19       1.0  0.95742  0.24986  0.00479  1.0000
  C   C20       1.0  0.04259  0.25015  0.50480  1.0000
  C   C21       1.0  0.03239  0.82916  0.05465  1.0000
  C   C22       1.0  0.96762  0.67087  0.55466  1.0000
  C   C23       1.0  0.96760  0.17085  0.94534  1.0000
  C   C24       1.0  0.03240  0.32915  0.44535  1.0000
  C   C25       1.0  0.85394  0.82171  0.07377  1.0000
  C   C26       1.0  0.14607  0.67831  0.57377  1.0000
  C   C27       1.0  0.14605  0.17829  0.92622  1.0000
  C   C28       1.0  0.85394  0.32170  0.42623  1.0000
  C   C29       1.0  0.31427  0.84466  0.03968  1.0000
  C   C30       1.0  0.68573  0.65535  0.53968  1.0000
  C   C31       1.0  0.68572  0.15535  0.96032  1.0000
  C   C32       1.0  0.31428  0.34464  0.46031  1.0000
  N   N1        1.0  0.70415  0.74411  0.03152  1.0000
  N   N2        1.0  0.29585  0.75590  0.53153  1.0000
  N   N3        1.0  0.29584  0.25589  0.96847  1.0000
  N   N4        1.0  0.70416  0.24410  0.46848  1.0000
  N   N5        1.0  0.88761  0.67208  0.95528  1.0000
  N   N6        1.0  0.11239  0.82794  0.45528  1.0000
  N   N7        1.0  0.11239  0.32794  0.04472  1.0000
  N   N8        1.0  0.88762  0.17207  0.54473  1.0000
  N   N9        1.0  0.82163  0.88332  0.12958  1.0000
  N   N10       1.0  0.17837  0.61669  0.62958  1.0000
  N   N11       1.0  0.17835  0.11667  0.87042  1.0000
  N   N12       1.0  0.82164  0.38332  0.37042  1.0000
  N   N13       1.0  0.21189  0.89000  0.08248  1.0000
  N   N14       1.0  0.78811  0.61001  0.58248  1.0000
  N   N15       1.0  0.78811  0.11000  0.91752  1.0000
  N   N16       1.0  0.21189  0.39000  0.41752  1.0000
  N   N17       1.0  0.21818  0.75942  0.98571  1.0000
  N   N18       1.0  0.78183  0.74059  0.48571  1.0000
  N   N19       1.0  0.78182  0.24060  0.01429  1.0000
  N   N20       1.0  0.21818  0.25941  0.51429  1.0000
  O   O1        1.0  0.44950  0.83384  0.18001  1.0000
  O   O2        1.0  0.55049  0.66615  0.68001  1.0000
  O   O3        1.0  0.55047  0.16613  0.81998  1.0000
  O   O4        1.0  0.44952  0.33387  0.31998  1.0000
  O   O5        1.0  0.46524  0.64042  0.25438  1.0000
  O   O6        1.0  0.53474  0.85956  0.75438  1.0000
  O   O7        1.0  0.53474  0.35956  0.74561  1.0000
  O   O8        1.0  0.46526  0.14045  0.24561  1.0000
  O   O9        1.0  0.16966  0.63610  0.31872  1.0000
  O   O10       1.0  0.83033  0.86389  0.81872  1.0000
  O   O11       1.0  0.83036  0.36390  0.68128  1.0000
  O   O12       1.0  0.16964  0.13610  0.18128  1.0000
  O   O13       1.0  0.09693  0.77565  0.23667  1.0000
  O   O14       1.0  0.90305  0.72434  0.73667  1.0000
  O   O15       1.0  0.90305  0.22433  0.76333  1.0000
  O   O16       1.0  0.09694  0.27566  0.26333  1.0000
  O   O17       1.0  0.58506  0.27503  0.11779  1.0000
  O   O18       1.0  0.41495  0.22496  0.61779  1.0000
  O   O19       1.0  0.41494  0.72496  0.88221  1.0000
  O   O20       1.0  0.58506  0.77503  0.38220  1.0000
