data_image0
_chemical_formula_structural       Zn12P8H32C56O40
_chemical_formula_sum              "Zn12 P8 H32 C56 O40"
_cell_length_a       8.71058
_cell_length_b       10.3114
_cell_length_c       18.634
_cell_angle_alpha    90
_cell_angle_beta     90
_cell_angle_gamma    90

_space_group_name_H-M_alt    "P 1"
_space_group_IT_number       1

loop_
  _space_group_symop_operation_xyz
  'x, y, z'

loop_
  _atom_site_type_symbol
  _atom_site_label
  _atom_site_symmetry_multiplicity
  _atom_site_fract_x
  _atom_site_fract_y
  _atom_site_fract_z
  _atom_site_occupancy
  Zn  Zn1       1.0  0.67877  0.12224  0.39952  1.0000
  Zn  Zn2       1.0  0.32123  0.87776  0.89952  1.0000
  Zn  Zn3       1.0  0.32123  0.62224  0.39952  1.0000
  Zn  Zn4       1.0  0.67877  0.37776  0.89952  1.0000
  Zn  Zn5       1.0  0.85731  0.86281  0.42289  1.0000
  Zn  Zn6       1.0  0.14270  0.13719  0.92289  1.0000
  Zn  Zn7       1.0  0.14270  0.36281  0.42289  1.0000
  Zn  Zn8       1.0  0.85731  0.63719  0.92289  1.0000
  Zn  Zn9       1.0  0.69335  0.02783  0.94024  1.0000
  Zn  Zn10      1.0  0.30666  0.97217  0.44024  1.0000
  Zn  Zn11      1.0  0.30665  0.52783  0.94024  1.0000
  Zn  Zn12      1.0  0.69335  0.47217  0.44024  1.0000
  P   P1        1.0  0.98794  0.37437  0.99440  1.0000
  P   P2        1.0  0.01206  0.62563  0.49440  1.0000
  P   P3        1.0  0.01207  0.87437  0.99441  1.0000
  P   P4        1.0  0.98793  0.12563  0.49440  1.0000
  P   P5        1.0  0.53601  0.75302  0.98922  1.0000
  P   P6        1.0  0.46398  0.24698  0.48922  1.0000
  P   P7        1.0  0.46399  0.25302  0.98922  1.0000
  P   P8        1.0  0.53601  0.74698  0.48922  1.0000
  H   H1        1.0  0.49745  0.02647  0.20685  1.0000
  H   H2        1.0  0.50255  0.97353  0.70685  1.0000
  H   H3        1.0  0.50255  0.52647  0.20685  1.0000
  H   H4        1.0  0.49745  0.47353  0.70685  1.0000
  H   H5        1.0  0.42918  0.96570  0.08108  1.0000
  H   H6        1.0  0.57082  0.03430  0.58108  1.0000
  H   H7        1.0  0.57082  0.46570  0.08108  1.0000
  H   H8        1.0  0.42918  0.53430  0.58108  1.0000
  H   H9        1.0  0.73548  0.63774  0.09410  1.0000
  H   H10       1.0  0.26451  0.36225  0.59410  1.0000
  H   H11       1.0  0.26452  0.13774  0.09410  1.0000
  H   H12       1.0  0.73548  0.86226  0.59410  1.0000
  H   H13       1.0  0.80387  0.70077  0.21945  1.0000
  H   H14       1.0  0.19613  0.29922  0.71945  1.0000
  H   H15       1.0  0.19614  0.20078  0.21945  1.0000
  H   H16       1.0  0.80387  0.79922  0.71945  1.0000
  H   H17       1.0  0.72456  0.18074  0.20264  1.0000
  H   H18       1.0  0.27544  0.81925  0.70264  1.0000
  H   H19       1.0  0.27544  0.68075  0.20264  1.0000
  H   H20       1.0  0.72456  0.31925  0.70264  1.0000
  H   H21       1.0  0.80498  0.19063  0.07413  1.0000
  H   H22       1.0  0.19502  0.80937  0.57413  1.0000
  H   H23       1.0  0.19502  0.69063  0.07413  1.0000
  H   H24       1.0  0.80499  0.30938  0.57413  1.0000
  H   H25       1.0  0.03871  0.55057  0.11527  1.0000
  H   H26       1.0  0.96129  0.44942  0.61527  1.0000
  H   H27       1.0  0.96129  0.05057  0.11527  1.0000
  H   H28       1.0  0.03871  0.94943  0.61527  1.0000
  H   H29       1.0  0.95492  0.54153  0.24334  1.0000
  H   H30       1.0  0.04508  0.45847  0.74334  1.0000
  H   H31       1.0  0.04507  0.04153  0.24334  1.0000
  H   H32       1.0  0.95493  0.95847  0.74334  1.0000
  C   C1        1.0  0.70058  0.90431  0.29397  1.0000
  C   C2        1.0  0.29941  0.09569  0.79397  1.0000
  C   C3        1.0  0.29941  0.40431  0.29397  1.0000
  C   C4        1.0  0.70059  0.59568  0.79397  1.0000
  C   C5        1.0  0.65440  0.86628  0.22010  1.0000
  C   C6        1.0  0.34560  0.13372  0.72010  1.0000
  C   C7        1.0  0.34560  0.36628  0.22010  1.0000
  C   C8        1.0  0.65440  0.63372  0.72010  1.0000
  C   C9        1.0  0.54824  0.94132  0.18164  1.0000
  C   C10       1.0  0.45176  0.05869  0.68164  1.0000
  C   C11       1.0  0.45176  0.44132  0.18164  1.0000
  C   C12       1.0  0.54825  0.55869  0.68164  1.0000
  C   C13       1.0  0.50983  0.90678  0.11177  1.0000
  C   C14       1.0  0.49017  0.09322  0.61177  1.0000
  C   C15       1.0  0.49017  0.40679  0.11177  1.0000
  C   C16       1.0  0.50983  0.59322  0.61177  1.0000
  C   C17       1.0  0.57580  0.79633  0.08050  1.0000
  C   C18       1.0  0.42420  0.20367  0.58050  1.0000
  C   C19       1.0  0.42420  0.29633  0.08050  1.0000
  C   C20       1.0  0.57580  0.70367  0.58050  1.0000
  C   C21       1.0  0.68160  0.72156  0.11924  1.0000
  C   C22       1.0  0.31839  0.27844  0.61924  1.0000
  C   C23       1.0  0.31840  0.22156  0.11924  1.0000
  C   C24       1.0  0.68160  0.77844  0.61924  1.0000
  C   C25       1.0  0.72092  0.75663  0.18873  1.0000
  C   C26       1.0  0.27907  0.24338  0.68873  1.0000
  C   C27       1.0  0.27908  0.25663  0.18873  1.0000
  C   C28       1.0  0.72093  0.74337  0.68873  1.0000
  C   C29       1.0  0.77380  0.35570  0.30505  1.0000
  C   C30       1.0  0.22620  0.64429  0.80505  1.0000
  C   C31       1.0  0.22619  0.85571  0.30505  1.0000
  C   C32       1.0  0.77381  0.14430  0.80505  1.0000
  C   C33       1.0  0.83239  0.36176  0.22995  1.0000
  C   C34       1.0  0.16761  0.63823  0.72995  1.0000
  C   C35       1.0  0.16760  0.86176  0.22995  1.0000
  C   C36       1.0  0.83240  0.13824  0.72995  1.0000
  C   C37       1.0  0.79334  0.26133  0.18279  1.0000
  C   C38       1.0  0.20666  0.73867  0.68279  1.0000
  C   C39       1.0  0.20665  0.76133  0.18280  1.0000
  C   C40       1.0  0.79335  0.23867  0.68279  1.0000
  C   C41       1.0  0.83867  0.26651  0.11143  1.0000
  C   C42       1.0  0.16133  0.73349  0.61143  1.0000
  C   C43       1.0  0.16133  0.76651  0.11143  1.0000
  C   C44       1.0  0.83867  0.23350  0.61143  1.0000
  C   C45       1.0  0.92575  0.37146  0.08654  1.0000
  C   C46       1.0  0.07425  0.62853  0.58654  1.0000
  C   C47       1.0  0.07425  0.87147  0.08654  1.0000
  C   C48       1.0  0.92575  0.12854  0.58654  1.0000
  C   C49       1.0  0.96814  0.47055  0.13421  1.0000
  C   C50       1.0  0.03185  0.52945  0.63421  1.0000
  C   C51       1.0  0.03185  0.97055  0.13421  1.0000
  C   C52       1.0  0.96815  0.02945  0.63421  1.0000
  C   C53       1.0  0.92136  0.46590  0.20560  1.0000
  C   C54       1.0  0.07864  0.53409  0.70560  1.0000
  C   C55       1.0  0.07864  0.96590  0.20560  1.0000
  C   C56       1.0  0.92136  0.03410  0.70559  1.0000
  O   O1        1.0  0.81957  0.84804  0.32020  1.0000
  O   O2        1.0  0.18043  0.15196  0.82020  1.0000
  O   O3        1.0  0.18043  0.34804  0.32019  1.0000
  O   O4        1.0  0.81957  0.65196  0.82020  1.0000
  O   O5        1.0  0.62020  0.98966  0.32556  1.0000
  O   O6        1.0  0.37980  0.01034  0.82556  1.0000
  O   O7        1.0  0.37980  0.48966  0.32556  1.0000
  O   O8        1.0  0.62020  0.51034  0.82556  1.0000
  O   O9        1.0  0.53318  0.88399  0.94554  1.0000
  O   O10       1.0  0.46682  0.11601  0.44554  1.0000
  O   O11       1.0  0.46683  0.38399  0.94554  1.0000
  O   O12       1.0  0.53318  0.61601  0.44554  1.0000
  O   O13       1.0  0.37104  0.69799  0.97994  1.0000
  O   O14       1.0  0.62896  0.30202  0.47994  1.0000
  O   O15       1.0  0.62896  0.19798  0.97994  1.0000
  O   O16       1.0  0.37104  0.80201  0.47994  1.0000
  O   O17       1.0  0.65487  0.65505  0.96602  1.0000
  O   O18       1.0  0.34513  0.34495  0.46602  1.0000
  O   O19       1.0  0.34513  0.15505  0.96602  1.0000
  O   O20       1.0  0.65487  0.84495  0.46602  1.0000
  O   O21       1.0  0.78365  0.45774  0.34374  1.0000
  O   O22       1.0  0.21635  0.54226  0.84374  1.0000
  O   O23       1.0  0.21635  0.95774  0.34374  1.0000
  O   O24       1.0  0.78365  0.04226  0.84374  1.0000
  O   O25       1.0  0.71384  0.24889  0.32385  1.0000
  O   O26       1.0  0.28616  0.75111  0.82385  1.0000
  O   O27       1.0  0.28615  0.74889  0.32386  1.0000
  O   O28       1.0  0.71385  0.25111  0.82385  1.0000
  O   O29       1.0  0.98604  0.23363  0.96822  1.0000
  O   O30       1.0  0.01396  0.76637  0.46822  1.0000
  O   O31       1.0  0.01396  0.73363  0.96822  1.0000
  O   O32       1.0  0.98603  0.26637  0.46821  1.0000
  O   O33       1.0  0.86372  0.44861  0.94843  1.0000
  O   O34       1.0  0.13628  0.55139  0.44843  1.0000
  O   O35       1.0  0.13628  0.94861  0.94843  1.0000
  O   O36       1.0  0.86372  0.05139  0.44843  1.0000
  O   O37       1.0  0.14073  0.44506  0.99362  1.0000
  O   O38       1.0  0.85927  0.55494  0.49362  1.0000
  O   O39       1.0  0.85927  0.94506  0.99362  1.0000
  O   O40       1.0  0.14073  0.05494  0.49362  1.0000
