data_image0
_chemical_formula_structural       Cu4H64C56N4O16
_chemical_formula_sum              "Cu4 H64 C56 N4 O16"
_cell_length_a       11.1262
_cell_length_b       12.0093
_cell_length_c       12.0626
_cell_angle_alpha    71.3767
_cell_angle_beta     63.0853
_cell_angle_gamma    63.2076

_space_group_name_H-M_alt    "P 1"
_space_group_IT_number       1

loop_
  _space_group_symop_operation_xyz
  'x, y, z'

loop_
  _atom_site_type_symbol
  _atom_site_label
  _atom_site_symmetry_multiplicity
  _atom_site_fract_x
  _atom_site_fract_y
  _atom_site_fract_z
  _atom_site_occupancy
  Cu  Cu1       1.0  0.75020  0.61561  0.38393  1.0000
  Cu  Cu2       1.0  0.24980  0.38443  0.61603  1.0000
  Cu  Cu3       1.0  0.75028  0.80123  0.19920  1.0000
  Cu  Cu4       1.0  0.24972  0.19874  0.80081  1.0000
  H   H1        1.0  0.61703  0.41065  0.50314  1.0000
  H   H2        1.0  0.88325  0.49773  0.58804  1.0000
  H   H3        1.0  0.38295  0.58938  0.49687  1.0000
  H   H4        1.0  0.11678  0.50227  0.41196  1.0000
  H   H5        1.0  0.60849  0.23322  0.68090  1.0000
  H   H6        1.0  0.89117  0.32027  0.76569  1.0000
  H   H7        1.0  0.39151  0.76680  0.31911  1.0000
  H   H8        1.0  0.10884  0.67972  0.23430  1.0000
  H   H9        1.0  0.96974  0.91227  0.98548  1.0000
  H   H10       1.0  0.53004  0.01432  0.08855  1.0000
  H   H11       1.0  0.03024  0.08777  0.01453  1.0000
  H   H12       1.0  0.46995  0.98567  0.91140  1.0000
  H   H13       1.0  0.97990  0.08985  0.80843  1.0000
  H   H14       1.0  0.52005  0.19075  0.91046  1.0000
  H   H15       1.0  0.02007  0.91019  0.19157  1.0000
  H   H16       1.0  0.47997  0.80925  0.08950  1.0000
  H   H17       1.0  0.36865  0.95514  0.56080  1.0000
  H   H18       1.0  0.13115  0.43861  0.04501  1.0000
  H   H19       1.0  0.63141  0.04480  0.43916  1.0000
  H   H20       1.0  0.86879  0.56142  0.95505  1.0000
  H   H21       1.0  0.27340  0.89205  0.53271  1.0000
  H   H22       1.0  0.22686  0.46705  0.10712  1.0000
  H   H23       1.0  0.72659  0.10795  0.46725  1.0000
  H   H24       1.0  0.77316  0.53297  0.89288  1.0000
  H   H25       1.0  0.06910  0.22583  0.47232  1.0000
  H   H26       1.0  0.43089  0.52811  0.77437  1.0000
  H   H27       1.0  0.93096  0.77421  0.52765  1.0000
  H   H28       1.0  0.56906  0.47190  0.22560  1.0000
  H   H29       1.0  0.07891  0.08396  0.58135  1.0000
  H   H30       1.0  0.42081  0.41833  0.91551  1.0000
  H   H31       1.0  0.92103  0.91610  0.41859  1.0000
  H   H32       1.0  0.57925  0.58171  0.08445  1.0000
  H   H33       1.0  0.39342  0.19123  0.39562  1.0000
  H   H34       1.0  0.10623  0.60393  0.80989  1.0000
  H   H35       1.0  0.60657  0.80876  0.60441  1.0000
  H   H36       1.0  0.89379  0.39603  0.19011  1.0000
  H   H37       1.0  0.48154  0.08656  0.28419  1.0000
  H   H38       1.0  0.01819  0.71592  0.91401  1.0000
  H   H39       1.0  0.51847  0.91344  0.71583  1.0000
  H   H40       1.0  0.98180  0.28404  0.08599  1.0000
  H   H41       1.0  0.13152  0.04013  0.36281  1.0000
  H   H42       1.0  0.36833  0.63808  0.95915  1.0000
  H   H43       1.0  0.86847  0.95989  0.63719  1.0000
  H   H44       1.0  0.63168  0.36190  0.04084  1.0000
  H   H45       1.0  0.31645  0.98734  0.26502  1.0000
  H   H46       1.0  0.18343  0.73589  0.01202  1.0000
  H   H47       1.0  0.68353  0.01267  0.73498  1.0000
  H   H48       1.0  0.81658  0.26410  0.98797  1.0000
  H   H49       1.0  0.38106  0.27326  0.15972  1.0000
  H   H50       1.0  0.11906  0.84067  0.72727  1.0000
  H   H51       1.0  0.61895  0.72673  0.84031  1.0000
  H   H52       1.0  0.88092  0.15931  0.27277  1.0000
  H   H53       1.0  0.22960  0.33626  0.29101  1.0000
  H   H54       1.0  0.27033  0.70878  0.66480  1.0000
  H   H55       1.0  0.77042  0.66375  0.70901  1.0000
  H   H56       1.0  0.72965  0.29121  0.33520  1.0000
  H   H57       1.0  0.24711  0.18031  0.13431  1.0000
  H   H58       1.0  0.25298  0.86693  0.81924  1.0000
  H   H59       1.0  0.75287  0.81973  0.86572  1.0000
  H   H60       1.0  0.74707  0.13304  0.18073  1.0000
  H   H61       1.0  0.09736  0.25458  0.25878  1.0000
  H   H62       1.0  0.40259  0.74192  0.74538  1.0000
  H   H63       1.0  0.90262  0.74546  0.74125  1.0000
  H   H64       1.0  0.59743  0.25802  0.25460  1.0000
  C   C1        1.0  0.67577  0.38794  0.56404  1.0000
  C   C2        1.0  0.82449  0.43632  0.61122  1.0000
  C   C3        1.0  0.32423  0.61209  0.43595  1.0000
  C   C4        1.0  0.17552  0.56369  0.38877  1.0000
  C   C5        1.0  0.67184  0.28880  0.66288  1.0000
  C   C6        1.0  0.82806  0.33764  0.71049  1.0000
  C   C7        1.0  0.32816  0.71123  0.33712  1.0000
  C   C8        1.0  0.17195  0.66237  0.28950  1.0000
  C   C9        1.0  0.74994  0.26140  0.73846  1.0000
  C   C10       1.0  0.25005  0.73862  0.26153  1.0000
  C   C11       1.0  0.87235  0.97792  0.96650  1.0000
  C   C12       1.0  0.62748  0.03340  0.02260  1.0000
  C   C13       1.0  0.12763  0.02211  0.03350  1.0000
  C   C14       1.0  0.37252  0.96659  0.97737  1.0000
  C   C15       1.0  0.87724  0.07662  0.86719  1.0000
  C   C16       1.0  0.62266  0.13237  0.92359  1.0000
  C   C17       1.0  0.12274  0.92341  0.13281  1.0000
  C   C18       1.0  0.37734  0.86763  0.07638  1.0000
  C   C19       1.0  0.74994  0.15621  0.84363  1.0000
  C   C20       1.0  0.25005  0.84381  0.15636  1.0000
  C   C21       1.0  0.49147  0.85055  0.40961  1.0000
  C   C22       1.0  0.00885  0.59040  0.14922  1.0000
  C   C23       1.0  0.50854  0.14944  0.59035  1.0000
  C   C24       1.0  0.99114  0.40963  0.85081  1.0000
  C   C25       1.0  0.34904  0.94279  0.48454  1.0000
  C   C26       1.0  0.15103  0.51522  0.05697  1.0000
  C   C27       1.0  0.65096  0.05719  0.51543  1.0000
  C   C28       1.0  0.84896  0.48479  0.94304  1.0000
  C   C29       1.0  0.27752  0.07163  0.41731  1.0000
  C   C30       1.0  0.22235  0.58279  0.92837  1.0000
  C   C31       1.0  0.72248  0.92837  0.58269  1.0000
  C   C32       1.0  0.77765  0.41720  0.07163  1.0000
  C   C33       1.0  0.13846  0.14661  0.51871  1.0000
  C   C34       1.0  0.36139  0.48134  0.85324  1.0000
  C   C35       1.0  0.86154  0.85340  0.48129  1.0000
  C   C36       1.0  0.63861  0.51864  0.14675  1.0000
  C   C37       1.0  0.17108  0.19979  0.59605  1.0000
  C   C38       1.0  0.32866  0.40396  0.80005  1.0000
  C   C39       1.0  0.82891  0.80017  0.40400  1.0000
  C   C40       1.0  0.67136  0.59598  0.19998  1.0000
  C   C41       1.0  0.37580  0.14932  0.33839  1.0000
  C   C42       1.0  0.12392  0.66159  0.85136  1.0000
  C   C43       1.0  0.62420  0.85067  0.66163  1.0000
  C   C44       1.0  0.87609  0.33838  0.14865  1.0000
  C   C45       1.0  0.22992  0.06337  0.31890  1.0000
  C   C46       1.0  0.26995  0.68184  0.93622  1.0000
  C   C47       1.0  0.77007  0.93665  0.68111  1.0000
  C   C48       1.0  0.73005  0.31813  0.06377  1.0000
  C   C49       1.0  0.30129  0.24892  0.24953  1.0000
  C   C50       1.0  0.19863  0.75071  0.75168  1.0000
  C   C51       1.0  0.69871  0.75109  0.75049  1.0000
  C   C52       1.0  0.80137  0.24926  0.24832  1.0000
  C   C53       1.0  0.21131  0.19154  0.23253  1.0000
  C   C54       1.0  0.28862  0.76828  0.80837  1.0000
  C   C55       1.0  0.78867  0.80848  0.76750  1.0000
  C   C56       1.0  0.71140  0.23169  0.19161  1.0000
  N   N1        1.0  0.75026  0.46130  0.53832  1.0000
  N   N2        1.0  0.24974  0.53871  0.46168  1.0000
  N   N3        1.0  0.74989  0.95645  0.04400  1.0000
  N   N4        1.0  0.25010  0.04356  0.95598  1.0000
  O   O1        1.0  0.54577  0.88210  0.29064  1.0000
  O   O2        1.0  0.95477  0.70979  0.11799  1.0000
  O   O3        1.0  0.45426  0.11794  0.70933  1.0000
  O   O4        1.0  0.04519  0.29023  0.88197  1.0000
  O   O5        1.0  0.54750  0.74773  0.47145  1.0000
  O   O6        1.0  0.95281  0.52825  0.25185  1.0000
  O   O7        1.0  0.45250  0.25224  0.52850  1.0000
  O   O8        1.0  0.04723  0.47180  0.74822  1.0000
  O   O9        1.0  0.20372  0.12924  0.69008  1.0000
  O   O10       1.0  0.29589  0.30946  0.87027  1.0000
  O   O11       1.0  0.79631  0.87070  0.30993  1.0000
  O   O12       1.0  0.70407  0.69052  0.12979  1.0000
  O   O13       1.0  0.16640  0.31356  0.55683  1.0000
  O   O14       1.0  0.33330  0.44361  0.68677  1.0000
  O   O15       1.0  0.83354  0.68642  0.44326  1.0000
  O   O16       1.0  0.66679  0.55628  0.31324  1.0000
