data_image0
_chemical_formula_structural       Cu4H64C52N4O16
_chemical_formula_sum              "Cu4 H64 C52 N4 O16"
_cell_length_a       11.3315
_cell_length_b       11.9805
_cell_length_c       12.1957
_cell_angle_alpha    70.921
_cell_angle_beta     62.2132
_cell_angle_gamma    62.1761

_space_group_name_H-M_alt    "P 1"
_space_group_IT_number       1

loop_
  _space_group_symop_operation_xyz
  'x, y, z'

loop_
  _atom_site_type_symbol
  _atom_site_label
  _atom_site_symmetry_multiplicity
  _atom_site_fract_x
  _atom_site_fract_y
  _atom_site_fract_z
  _atom_site_occupancy
  Cu  Cu1       1.0  0.75026  0.11789  0.87803  1.0000
  Cu  Cu2       1.0  0.24973  0.88211  0.12197  1.0000
  Cu  Cu3       1.0  0.74778  0.30556  0.69596  1.0000
  Cu  Cu4       1.0  0.25222  0.69444  0.30404  1.0000
  H   H1        1.0  0.96988  0.90472  0.98838  1.0000
  H   H2        1.0  0.53214  0.00955  0.09314  1.0000
  H   H3        1.0  0.03011  0.09529  0.01162  1.0000
  H   H4        1.0  0.46786  0.99045  0.90686  1.0000
  H   H5        1.0  0.97851  0.72758  0.16629  1.0000
  H   H6        1.0  0.52307  0.83418  0.27292  1.0000
  H   H7        1.0  0.02150  0.27243  0.83371  1.0000
  H   H8        1.0  0.47693  0.16582  0.72708  1.0000
  H   H9        1.0  0.88068  0.50913  0.57404  1.0000
  H   H10       1.0  0.61736  0.42470  0.49461  1.0000
  H   H11       1.0  0.11931  0.49088  0.42597  1.0000
  H   H12       1.0  0.38264  0.57531  0.50538  1.0000
  H   H13       1.0  0.89575  0.68323  0.39400  1.0000
  H   H14       1.0  0.60656  0.60316  0.31838  1.0000
  H   H15       1.0  0.10425  0.31677  0.60600  1.0000
  H   H16       1.0  0.39345  0.39684  0.68160  1.0000
  H   H17       1.0  0.27533  0.27232  0.00462  1.0000
  H   H18       1.0  0.22465  0.99564  0.72402  1.0000
  H   H19       1.0  0.72466  0.72769  0.99538  1.0000
  H   H20       1.0  0.77535  0.00436  0.27598  1.0000
  H   H21       1.0  0.25739  0.41742  0.89831  1.0000
  H   H22       1.0  0.23914  0.10549  0.58264  1.0000
  H   H23       1.0  0.74262  0.58258  0.10169  1.0000
  H   H24       1.0  0.76086  0.89451  0.41737  1.0000
  H   H25       1.0  0.40352  0.53096  0.94259  1.0000
  H   H26       1.0  0.09695  0.05995  0.46956  1.0000
  H   H27       1.0  0.59648  0.46904  0.05741  1.0000
  H   H28       1.0  0.90305  0.94005  0.53044  1.0000
  H   H29       1.0  0.22679  0.60719  0.94960  1.0000
  H   H30       1.0  0.27288  0.05496  0.39525  1.0000
  H   H31       1.0  0.77321  0.39280  0.05041  1.0000
  H   H32       1.0  0.72712  0.94504  0.60475  1.0000
  H   H33       1.0  0.46770  0.32775  0.10416  1.0000
  H   H34       1.0  0.03511  0.89253  0.66622  1.0000
  H   H35       1.0  0.53230  0.67224  0.89585  1.0000
  H   H36       1.0  0.96489  0.10747  0.33378  1.0000
  H   H37       1.0  0.34901  0.24576  0.18226  1.0000
  H   H38       1.0  0.15342  0.81293  0.74713  1.0000
  H   H39       1.0  0.65099  0.75424  0.81774  1.0000
  H   H40       1.0  0.84658  0.18707  0.25287  1.0000
  H   H41       1.0  0.31155  0.38408  0.23733  1.0000
  H   H42       1.0  0.19282  0.75853  0.60956  1.0000
  H   H43       1.0  0.68845  0.61591  0.76268  1.0000
  H   H44       1.0  0.80718  0.24147  0.39043  1.0000
  H   H45       1.0  0.06953  0.51863  0.21360  1.0000
  H   H46       1.0  0.43269  0.78391  0.48145  1.0000
  H   H47       1.0  0.93047  0.48137  0.78640  1.0000
  H   H48       1.0  0.56731  0.21609  0.51855  1.0000
  H   H49       1.0  0.04526  0.51194  0.08339  1.0000
  H   H50       1.0  0.45568  0.91723  0.48768  1.0000
  H   H51       1.0  0.95475  0.48806  0.91661  1.0000
  H   H52       1.0  0.54432  0.08277  0.51233  1.0000
  H   H53       1.0  0.94071  0.37575  0.26698  1.0000
  H   H54       1.0  0.56056  0.73121  0.62225  1.0000
  H   H55       1.0  0.05930  0.62424  0.73302  1.0000
  H   H56       1.0  0.43944  0.26878  0.37775  1.0000
  H   H57       1.0  0.10216  0.29191  0.29497  1.0000
  H   H58       1.0  0.39938  0.70248  0.70506  1.0000
  H   H59       1.0  0.89785  0.70810  0.70503  1.0000
  H   H60       1.0  0.60062  0.29752  0.29494  1.0000
  H   H61       1.0  0.09211  0.27235  0.16226  1.0000
  H   H62       1.0  0.40905  0.83839  0.72299  1.0000
  H   H63       1.0  0.90790  0.72764  0.83774  1.0000
  H   H64       1.0  0.59094  0.16161  0.27701  1.0000
  C   C1        1.0  0.87311  0.88593  0.05404  1.0000
  C   C2        1.0  0.62882  0.94451  0.11252  1.0000
  C   C3        1.0  0.12688  0.11408  0.94596  1.0000
  C   C4        1.0  0.37118  0.05549  0.88748  1.0000
  C   C5        1.0  0.87723  0.78714  0.15331  1.0000
  C   C6        1.0  0.62447  0.84659  0.21276  1.0000
  C   C7        1.0  0.12277  0.21287  0.84669  1.0000
  C   C8        1.0  0.37553  0.15341  0.78724  1.0000
  C   C9        1.0  0.75091  0.76500  0.23502  1.0000
  C   C10       1.0  0.24910  0.23500  0.76498  1.0000
  C   C11       1.0  0.82445  0.53164  0.51280  1.0000
  C   C12       1.0  0.67444  0.48679  0.47057  1.0000
  C   C13       1.0  0.17555  0.46837  0.48720  1.0000
  C   C14       1.0  0.32556  0.51322  0.52942  1.0000
  C   C15       1.0  0.83087  0.62981  0.41275  1.0000
  C   C16       1.0  0.67016  0.58594  0.37150  1.0000
  C   C17       1.0  0.16914  0.37020  0.58725  1.0000
  C   C18       1.0  0.32985  0.41406  0.62849  1.0000
  C   C19       1.0  0.75077  0.65975  0.34027  1.0000
  C   C20       1.0  0.24924  0.34025  0.65973  1.0000
  C   C21       1.0  0.47238  0.29924  0.89153  1.0000
  C   C22       1.0  0.02607  0.10776  0.69947  1.0000
  C   C23       1.0  0.52762  0.70075  0.10848  1.0000
  C   C24       1.0  0.97393  0.89224  0.30053  1.0000
  C   C25       1.0  0.31097  0.35268  0.96346  1.0000
  C   C26       1.0  0.18798  0.03741  0.64565  1.0000
  C   C27       1.0  0.68903  0.64732  0.03655  1.0000
  C   C28       1.0  0.81202  0.96260  0.35435  1.0000
  C   C29       1.0  0.26611  0.42492  0.07067  1.0000
  C   C30       1.0  0.23516  0.92899  0.57281  1.0000
  C   C31       1.0  0.73389  0.57508  0.92933  1.0000
  C   C32       1.0  0.76484  0.07102  0.42719  1.0000
  C   C33       1.0  0.29101  0.55095  0.00861  1.0000
  C   C34       1.0  0.20998  0.99368  0.44906  1.0000
  C   C35       1.0  0.70899  0.44904  0.99139  1.0000
  C   C36       1.0  0.79002  0.00632  0.55094  1.0000
  C   C37       1.0  0.26238  0.64164  0.08947  1.0000
  C   C38       1.0  0.23961  0.91298  0.35797  1.0000
  C   C39       1.0  0.73762  0.35836  0.91053  1.0000
  C   C40       1.0  0.76039  0.08702  0.64202  1.0000
  C   C41       1.0  0.35360  0.34104  0.15359  1.0000
  C   C42       1.0  0.14922  0.84313  0.65333  1.0000
  C   C43       1.0  0.64640  0.65895  0.84642  1.0000
  C   C44       1.0  0.85078  0.15687  0.34667  1.0000
  C   C45       1.0  0.10349  0.45568  0.14734  1.0000
  C   C46       1.0  0.39789  0.85187  0.54310  1.0000
  C   C47       1.0  0.89652  0.54432  0.85266  1.0000
  C   C48       1.0  0.60211  0.14813  0.45690  1.0000
  C   C49       1.0  0.05835  0.34259  0.22107  1.0000
  C   C50       1.0  0.44290  0.77780  0.65459  1.0000
  C   C51       1.0  0.94165  0.65741  0.77893  1.0000
  C   C52       1.0  0.55710  0.22220  0.34541  1.0000
  N   N1        1.0  0.75107  0.96392  0.03346  1.0000
  N   N2        1.0  0.24892  0.03609  0.96654  1.0000
  N   N3        1.0  0.74872  0.46017  0.54138  1.0000
  N   N4        1.0  0.25128  0.53983  0.45862  1.0000
  O   O1        1.0  0.52834  0.37035  0.79800  1.0000
  O   O2        1.0  0.96789  0.20291  0.63087  1.0000
  O   O3        1.0  0.47166  0.62963  0.20201  1.0000
  O   O4        1.0  0.03211  0.79709  0.36913  1.0000
  O   O5        1.0  0.54053  0.18585  0.93286  1.0000
  O   O6        1.0  0.95990  0.06360  0.81052  1.0000
  O   O7        1.0  0.45947  0.81414  0.06715  1.0000
  O   O8        1.0  0.04010  0.93640  0.18949  1.0000
  O   O9        1.0  0.23243  0.60563  0.20710  1.0000
  O   O10       1.0  0.27245  0.79276  0.39123  1.0000
  O   O11       1.0  0.76757  0.39437  0.79290  1.0000
  O   O12       1.0  0.72756  0.20723  0.60877  1.0000
  O   O13       1.0  0.27421  0.74751  0.03129  1.0000
  O   O14       1.0  0.22554  0.97354  0.25497  1.0000
  O   O15       1.0  0.72579  0.25249  0.96872  1.0000
  O   O16       1.0  0.77446  0.02646  0.74503  1.0000
