data_image0
_chemical_formula_structural       Cu2H32C16N4O10
_chemical_formula_sum              "Cu2 H32 C16 N4 O10"
_cell_length_a       6.3387
_cell_length_b       6.80465
_cell_length_c       11.8893
_cell_angle_alpha    90.0001
_cell_angle_beta     89.9998
_cell_angle_gamma    89.9999

_space_group_name_H-M_alt    "P 1"
_space_group_IT_number       1

loop_
  _space_group_symop_operation_xyz
  'x, y, z'

loop_
  _atom_site_type_symbol
  _atom_site_label
  _atom_site_symmetry_multiplicity
  _atom_site_fract_x
  _atom_site_fract_y
  _atom_site_fract_z
  _atom_site_occupancy
  Cu  Cu1       1.0  0.33799  0.25000  0.25000  1.0000
  Cu  Cu2       1.0  0.66202  0.75000  0.75000  1.0000
  H   H1        1.0  0.78656  0.25000  0.31719  1.0000
  H   H2        1.0  0.21340  0.75000  0.81719  1.0000
  H   H3        1.0  0.78657  0.25000  0.18282  1.0000
  H   H4        1.0  0.21340  0.75000  0.68281  1.0000
  H   H5        1.0  0.13771  0.25000  0.93499  1.0000
  H   H6        1.0  0.86225  0.75000  0.43498  1.0000
  H   H7        1.0  0.13771  0.25000  0.56501  1.0000
  H   H8        1.0  0.86225  0.75000  0.06502  1.0000
  H   H9        1.0  0.04386  0.57686  0.32474  1.0000
  H   H10       1.0  0.95616  0.07686  0.82474  1.0000
  H   H11       1.0  0.04386  0.92314  0.32474  1.0000
  H   H12       1.0  0.04386  0.57686  0.17526  1.0000
  H   H13       1.0  0.95615  0.42314  0.67526  1.0000
  H   H14       1.0  0.04386  0.92314  0.17526  1.0000
  H   H15       1.0  0.95616  0.07686  0.67526  1.0000
  H   H16       1.0  0.95616  0.42314  0.82474  1.0000
  H   H17       1.0  0.37075  0.58165  0.07439  1.0000
  H   H18       1.0  0.62926  0.08166  0.57439  1.0000
  H   H19       1.0  0.37075  0.91834  0.07439  1.0000
  H   H20       1.0  0.37075  0.58166  0.42561  1.0000
  H   H21       1.0  0.62926  0.41834  0.92561  1.0000
  H   H22       1.0  0.37075  0.91835  0.42561  1.0000
  H   H23       1.0  0.62927  0.08166  0.92561  1.0000
  H   H24       1.0  0.62927  0.41834  0.57439  1.0000
  H   H25       1.0  0.61203  0.57536  0.15024  1.0000
  H   H26       1.0  0.38798  0.07536  0.65024  1.0000
  H   H27       1.0  0.61203  0.92464  0.15024  1.0000
  H   H28       1.0  0.61203  0.57536  0.34976  1.0000
  H   H29       1.0  0.38798  0.42464  0.84976  1.0000
  H   H30       1.0  0.61203  0.92464  0.34975  1.0000
  H   H31       1.0  0.38798  0.07536  0.84976  1.0000
  H   H32       1.0  0.38798  0.42464  0.65025  1.0000
  C   C1        1.0  0.11106  0.25000  0.02753  1.0000
  C   C2        1.0  0.88890  0.75000  0.52752  1.0000
  C   C3        1.0  0.11106  0.25000  0.47247  1.0000
  C   C4        1.0  0.88890  0.75000  0.97247  1.0000
  C   C5        1.0  0.12353  0.63491  0.25000  1.0000
  C   C6        1.0  0.87648  0.13491  0.75000  1.0000
  C   C7        1.0  0.12353  0.86509  0.25000  1.0000
  C   C8        1.0  0.87648  0.36510  0.75000  1.0000
  C   C9        1.0  0.45170  0.63524  0.14935  1.0000
  C   C10       1.0  0.54832  0.13524  0.64936  1.0000
  C   C11       1.0  0.45170  0.86476  0.14935  1.0000
  C   C12       1.0  0.45170  0.63524  0.35064  1.0000
  C   C13       1.0  0.54832  0.36476  0.85065  1.0000
  C   C14       1.0  0.45170  0.86476  0.35064  1.0000
  C   C15       1.0  0.54832  0.13524  0.85064  1.0000
  C   C16       1.0  0.54832  0.36476  0.64936  1.0000
  N   N1        1.0  0.34184  0.55999  0.25000  1.0000
  N   N2        1.0  0.65818  0.05999  0.75000  1.0000
  N   N3        1.0  0.34184  0.94001  0.25000  1.0000
  N   N4        1.0  0.65818  0.44001  0.75000  1.0000
  O   O1        1.0  0.69303  0.25000  0.25000  1.0000
  O   O2        1.0  0.30693  0.75000  0.75000  1.0000
  O   O3        1.0  0.28283  0.25000  0.08364  1.0000
  O   O4        1.0  0.71715  0.75000  0.58364  1.0000
  O   O5        1.0  0.28283  0.25000  0.41636  1.0000
  O   O6        1.0  0.71715  0.75000  0.91636  1.0000
  O   O7        1.0  0.92367  0.25000  0.06118  1.0000
  O   O8        1.0  0.07631  0.75000  0.56116  1.0000
  O   O9        1.0  0.92367  0.25001  0.43883  1.0000
  O   O10       1.0  0.07632  0.74999  0.93883  1.0000
