data_image0
_chemical_formula_structural       Cd2H16C20N4Cl4
_chemical_formula_sum              "Cd2 H16 C20 N4 Cl4"
_cell_length_a       7.14876
_cell_length_b       9.30118
_cell_length_c       9.65164
_cell_angle_alpha    118.696
_cell_angle_beta     106.746
_cell_angle_gamma    90.1039

_space_group_name_H-M_alt    "P 1"
_space_group_IT_number       1

loop_
  _space_group_symop_operation_xyz
  'x, y, z'

loop_
  _atom_site_type_symbol
  _atom_site_label
  _atom_site_symmetry_multiplicity
  _atom_site_fract_x
  _atom_site_fract_y
  _atom_site_fract_z
  _atom_site_occupancy
  Cd  Cd1       1.0  0.24982  0.91394  0.00007  1.0000
  Cd  Cd2       1.0  0.75018  0.08606  0.99993  1.0000
  H   H1        1.0  0.91760  0.64545  0.65072  1.0000
  H   H2        1.0  0.58179  0.99472  0.34945  1.0000
  H   H3        1.0  0.08240  0.35455  0.34929  1.0000
  H   H4        1.0  0.41822  0.00528  0.65055  1.0000
  H   H5        1.0  0.79271  0.33522  0.47160  1.0000
  H   H6        1.0  0.70723  0.86338  0.52853  1.0000
  H   H7        1.0  0.20728  0.66478  0.52841  1.0000
  H   H8        1.0  0.29277  0.13662  0.47147  1.0000
  H   H9        1.0  0.16339  0.28401  0.87852  1.0000
  H   H10       1.0  0.33720  0.40534  0.12161  1.0000
  H   H11       1.0  0.83663  0.71598  0.12148  1.0000
  H   H12       1.0  0.66281  0.59465  0.87839  1.0000
  H   H13       1.0  0.92371  0.15517  0.59454  1.0000
  H   H14       1.0  0.57693  0.56030  0.40552  1.0000
  H   H15       1.0  0.07629  0.84484  0.40546  1.0000
  H   H16       1.0  0.42307  0.43970  0.59447  1.0000
  C   C1        1.0  0.17490  0.53429  0.91500  1.0000
  C   C2        1.0  0.32498  0.61932  0.08519  1.0000
  C   C3        1.0  0.82509  0.46569  0.08500  1.0000
  C   C4        1.0  0.67503  0.38068  0.91482  1.0000
  C   C5        1.0  0.96982  0.55932  0.69433  1.0000
  C   C6        1.0  0.52979  0.86493  0.30584  1.0000
  C   C7        1.0  0.03017  0.44066  0.30567  1.0000
  C   C8        1.0  0.47022  0.13505  0.69416  1.0000
  C   C9        1.0  0.90148  0.38862  0.59666  1.0000
  C   C10       1.0  0.59848  0.79178  0.40346  1.0000
  C   C11       1.0  0.09852  0.61140  0.40335  1.0000
  C   C12       1.0  0.40152  0.20823  0.59653  1.0000
  C   C13       1.0  0.10936  0.36238  0.82580  1.0000
  C   C14       1.0  0.39085  0.53646  0.17435  1.0000
  C   C15       1.0  0.89065  0.63763  0.17420  1.0000
  C   C16       1.0  0.60914  0.46354  0.82564  1.0000
  C   C17       1.0  0.97304  0.28929  0.66496  1.0000
  C   C18       1.0  0.52722  0.62412  0.33516  1.0000
  C   C19       1.0  0.02696  0.71070  0.33503  1.0000
  C   C20       1.0  0.47279  0.37588  0.66485  1.0000
  N   N1        1.0  0.10352  0.62959  0.84828  1.0000
  N   N2        1.0  0.39605  0.78136  0.15195  1.0000
  N   N3        1.0  0.89647  0.37042  0.15172  1.0000
  N   N4        1.0  0.60395  0.21865  0.84805  1.0000
  Cl  Cl1       1.0  0.50630  0.18288  0.19523  1.0000
  Cl  Cl2       1.0  0.99386  0.98760  0.80454  1.0000
  Cl  Cl3       1.0  0.49371  0.81712  0.80477  1.0000
  Cl  Cl4       1.0  0.00614  0.01240  0.19546  1.0000
