data_image0
_chemical_formula_structural       Mn4H6C18O12F2
_chemical_formula_sum              "Mn4 H6 C18 O12 F2"
_cell_length_a       5.22177
_cell_length_b       9.72261
_cell_length_c       11.02
_cell_angle_alpha    115.196
_cell_angle_beta     102.02
_cell_angle_gamma    93.7328

_space_group_name_H-M_alt    "P 1"
_space_group_IT_number       1

loop_
  _space_group_symop_operation_xyz
  'x, y, z'

loop_
  _atom_site_type_symbol
  _atom_site_label
  _atom_site_symmetry_multiplicity
  _atom_site_fract_x
  _atom_site_fract_y
  _atom_site_fract_z
  _atom_site_occupancy
  Mn  Mn1       1.0  0.07915  0.20956  0.11181  1.0000
  Mn  Mn2       1.0  0.53232  0.90223  0.11166  1.0000
  Mn  Mn3       1.0  0.92085  0.79044  0.88819  1.0000
  Mn  Mn4       1.0  0.46768  0.09777  0.88834  1.0000
  H   H1        1.0  0.71071  0.46068  0.92151  1.0000
  H   H2        1.0  0.28929  0.53932  0.07849  1.0000
  H   H3        1.0  0.79276  0.11141  0.53346  1.0000
  H   H4        1.0  0.24076  0.42190  0.53334  1.0000
  H   H5        1.0  0.20724  0.88859  0.46655  1.0000
  H   H6        1.0  0.75924  0.57810  0.46666  1.0000
  C   C1        1.0  0.43162  0.18161  0.36338  1.0000
  C   C2        1.0  0.56838  0.81839  0.63662  1.0000
  C   C3        1.0  0.94725  0.21552  0.81725  1.0000
  C   C4        1.0  0.37035  0.60171  0.81720  1.0000
  C   C5        1.0  0.05275  0.78448  0.18275  1.0000
  C   C6        1.0  0.62965  0.39829  0.18280  1.0000
  C   C7        1.0  0.50934  0.25929  0.51874  1.0000
  C   C8        1.0  0.49066  0.74071  0.48126  1.0000
  C   C9        1.0  0.65413  0.40407  0.80823  1.0000
  C   C10       1.0  0.34587  0.59593  0.19177  1.0000
  C   C11       1.0  0.70083  0.20756  0.59110  1.0000
  C   C12       1.0  0.39036  0.38345  0.59105  1.0000
  C   C13       1.0  0.29918  0.79244  0.40890  1.0000
  C   C14       1.0  0.60964  0.61655  0.40896  1.0000
  C   C15       1.0  0.76563  0.27659  0.73615  1.0000
  C   C16       1.0  0.47063  0.45950  0.73609  1.0000
  C   C17       1.0  0.23438  0.72341  0.26386  1.0000
  C   C18       1.0  0.52937  0.54050  0.26391  1.0000
  O   O1        1.0  0.24778  0.22800  0.30279  1.0000
  O   O2        1.0  0.55502  0.07470  0.30278  1.0000
  O   O3        1.0  0.75222  0.77200  0.69722  1.0000
  O   O4        1.0  0.44498  0.92530  0.69722  1.0000
  O   O5        1.0  0.87076  0.20894  0.91992  1.0000
  O   O6        1.0  0.54956  0.71098  0.91983  1.0000
  O   O7        1.0  0.12924  0.79106  0.08008  1.0000
  O   O8        1.0  0.45044  0.28902  0.08017  1.0000
  O   O9        1.0  0.15692  0.17458  0.78539  1.0000
  O   O10       1.0  0.12883  0.61084  0.78544  1.0000
  O   O11       1.0  0.84308  0.82542  0.21461  1.0000
  O   O12       1.0  0.87117  0.38916  0.21456  1.0000
  F   F1        1.0  0.76439  0.01468  0.02901  1.0000
  F   F2        1.0  0.23561  0.98532  0.97099  1.0000
