data_image0
_chemical_formula_structural       Co3H30C18O24
_chemical_formula_sum              "Co3 H30 C18 O24"
_cell_length_a       6.44001
_cell_length_b       10.7277
_cell_length_c       10.7276
_cell_angle_alpha    75.1159
_cell_angle_beta     73.2057
_cell_angle_gamma    73.2044

_space_group_name_H-M_alt    "P 1"
_space_group_IT_number       1

loop_
  _space_group_symop_operation_xyz
  'x, y, z'

loop_
  _atom_site_type_symbol
  _atom_site_label
  _atom_site_symmetry_multiplicity
  _atom_site_fract_x
  _atom_site_fract_y
  _atom_site_fract_z
  _atom_site_occupancy
  Co  Co1       1.0  0.23295  0.23276  0.24847  1.0000
  Co  Co2       1.0  0.76706  0.75154  0.76724  1.0000
  Co  Co3       1.0  1.00000  0.20377  0.79623  1.0000
  H   H1        1.0  0.50002  0.86356  0.13645  1.0000
  H   H2        1.0  0.29919  0.71248  0.55318  1.0000
  H   H3        1.0  0.70079  0.44681  0.28751  1.0000
  H   H4        1.0  0.20083  0.75501  0.98054  1.0000
  H   H5        1.0  0.79919  0.01946  0.24500  1.0000
  H   H6        1.0  1.00000  0.60201  0.39798  1.0000
  H   H7        1.0  0.03580  0.10778  0.46003  1.0000
  H   H8        1.0  0.96418  0.53996  0.89223  1.0000
  H   H9        1.0  0.86000  0.25844  0.44991  1.0000
  H   H10       1.0  0.13999  0.55008  0.74156  1.0000
  H   H11       1.0  0.55442  0.09704  0.39297  1.0000
  H   H12       1.0  0.44557  0.60703  0.90297  1.0000
  H   H13       1.0  0.54133  0.25216  0.36912  1.0000
  H   H14       1.0  0.45861  0.63093  0.74785  1.0000
  H   H15       1.0  0.59033  0.20812  0.04307  1.0000
  H   H16       1.0  0.40969  0.95694  0.79188  1.0000
  H   H17       1.0  0.42743  0.35688  0.04080  1.0000
  H   H18       1.0  0.57257  0.95920  0.64312  1.0000
  H   H19       1.0  0.93285  0.22135  0.11885  1.0000
  H   H20       1.0  0.06717  0.88114  0.77865  1.0000
  H   H21       1.0  0.91666  0.37355  0.11786  1.0000
  H   H22       1.0  0.08335  0.88214  0.62646  1.0000
  H   H23       1.0  0.66744  0.41295  0.74315  1.0000
  H   H24       1.0  0.33255  0.25682  0.58705  1.0000
  H   H25       1.0  0.85681  0.45862  0.78294  1.0000
  H   H26       1.0  0.14318  0.21705  0.54139  1.0000
  H   H27       1.0  0.29958  0.25066  0.92978  1.0000
  H   H28       1.0  0.70042  0.07021  0.74934  1.0000
  H   H29       1.0  0.31853  0.33498  0.78488  1.0000
  H   H30       1.0  0.68147  0.21511  0.66501  1.0000
  C   C1        1.0  0.38605  0.80278  0.34662  1.0000
  C   C2        1.0  0.61396  0.65338  0.19722  1.0000
  C   C3        1.0  0.50002  0.78052  0.21949  1.0000
  C   C4        1.0  0.50000  0.56745  0.43254  1.0000
  C   C5        1.0  0.38764  0.69616  0.45367  1.0000
  C   C6        1.0  0.61236  0.54633  0.30384  1.0000
  C   C7        1.0  0.26479  0.94162  0.36149  1.0000
  C   C8        1.0  0.73523  0.63851  0.05838  1.0000
  C   C9        1.0  0.49998  0.45350  0.54649  1.0000
  C   C10       1.0  0.11210  0.66273  0.18664  1.0000
  C   C11       1.0  0.88791  0.81336  0.33727  1.0000
  C   C12       1.0  0.11342  0.77008  0.08053  1.0000
  C   C13       1.0  0.88659  0.91948  0.22992  1.0000
  C   C14       1.0  0.00000  0.89796  0.10204  1.0000
  C   C15       1.0  0.00000  0.68516  0.31484  1.0000
  C   C16       1.0  0.22459  0.52493  0.16174  1.0000
  C   C17       1.0  0.77541  0.83825  0.47507  1.0000
  C   C18       1.0  0.00002  0.01040  0.98960  1.0000
  O   O1        1.0  0.29703  0.03178  0.25954  1.0000
  O   O2        1.0  0.70301  0.74047  0.96823  1.0000
  O   O3        1.0  0.13356  0.96339  0.47306  1.0000
  O   O4        1.0  0.86642  0.52694  0.03661  1.0000
  O   O5        1.0  0.56978  0.33443  0.52396  1.0000
  O   O6        1.0  0.43021  0.47600  0.66555  1.0000
  O   O7        1.0  0.17816  0.42989  0.25578  1.0000
  O   O8        1.0  0.82184  0.74422  0.57011  1.0000
  O   O9        1.0  0.35690  0.50911  0.04901  1.0000
  O   O10       1.0  0.64309  0.95099  0.49089  1.0000
  O   O11       1.0  0.10760  0.99426  0.87123  1.0000
  O   O12       1.0  0.89241  0.12878  0.00575  1.0000
  O   O13       1.0  0.01800  0.21047  0.43675  1.0000
  O   O14       1.0  0.98199  0.56325  0.78953  1.0000
  O   O15       1.0  0.50973  0.18505  0.33509  1.0000
  O   O16       1.0  0.49027  0.66493  0.81497  1.0000
  O   O17       1.0  0.43308  0.25772  0.05405  1.0000
  O   O18       1.0  0.56693  0.94596  0.74227  1.0000
  O   O19       1.0  0.95149  0.28080  0.16910  1.0000
  O   O20       1.0  0.04854  0.83089  0.71920  1.0000
  O   O21       1.0  0.78838  0.38253  0.79074  1.0000
  O   O22       1.0  0.21162  0.20922  0.61748  1.0000
  O   O23       1.0  0.24060  0.26977  0.84930  1.0000
  O   O24       1.0  0.75940  0.15070  0.73023  1.0000
