data_image0
_chemical_formula_structural       Sm4H60C44S4O36
_chemical_formula_sum              "Sm4 H60 C44 S4 O36"
_cell_length_a       8.24233
_cell_length_b       9.70182
_cell_length_c       18.441
_cell_angle_alpha    90
_cell_angle_beta     101.915
_cell_angle_gamma    90

_space_group_name_H-M_alt    "P 1"
_space_group_IT_number       1

loop_
  _space_group_symop_operation_xyz
  'x, y, z'

loop_
  _atom_site_type_symbol
  _atom_site_label
  _atom_site_symmetry_multiplicity
  _atom_site_fract_x
  _atom_site_fract_y
  _atom_site_fract_z
  _atom_site_occupancy
  Sm  Sm1       1.0  0.02145  0.28351  0.99452  1.0000
  Sm  Sm2       1.0  0.47855  0.78351  0.50549  1.0000
  Sm  Sm3       1.0  0.97854  0.71649  0.00548  1.0000
  Sm  Sm4       1.0  0.52144  0.21648  0.49452  1.0000
  H   H1        1.0  0.33850  0.18851  0.09753  1.0000
  H   H2        1.0  0.16151  0.68851  0.40247  1.0000
  H   H3        1.0  0.66151  0.81150  0.90247  1.0000
  H   H4        1.0  0.83848  0.31148  0.59754  1.0000
  H   H5        1.0  0.69547  0.17938  0.00564  1.0000
  H   H6        1.0  0.80455  0.67936  0.49437  1.0000
  H   H7        1.0  0.30455  0.82064  0.99437  1.0000
  H   H8        1.0  0.19545  0.32063  0.50563  1.0000
  H   H9        1.0  0.40264  0.31234  0.05583  1.0000
  H   H10       1.0  0.09738  0.81234  0.44417  1.0000
  H   H11       1.0  0.59736  0.68766  0.94417  1.0000
  H   H12       1.0  0.90261  0.18766  0.55583  1.0000
  H   H13       1.0  0.80555  0.04551  0.00510  1.0000
  H   H14       1.0  0.69445  0.54549  0.49490  1.0000
  H   H15       1.0  0.19445  0.95449  0.99489  1.0000
  H   H16       1.0  0.30554  0.45449  0.50511  1.0000
  H   H17       1.0  0.96913  0.29614  0.19721  1.0000
  H   H18       1.0  0.53089  0.79613  0.30280  1.0000
  H   H19       1.0  0.03087  0.70387  0.80278  1.0000
  H   H20       1.0  0.46911  0.20387  0.69721  1.0000
  H   H21       1.0  0.08424  0.31047  0.33453  1.0000
  H   H22       1.0  0.41575  0.81048  0.16549  1.0000
  H   H23       1.0  0.91579  0.68953  0.66546  1.0000
  H   H24       1.0  0.58422  0.18953  0.83453  1.0000
  H   H25       1.0  0.99203  0.49629  0.40781  1.0000
  H   H26       1.0  0.50796  0.99631  0.09221  1.0000
  H   H27       1.0  0.00801  0.50370  0.59218  1.0000
  H   H28       1.0  0.49202  0.00370  0.90781  1.0000
  H   H29       1.0  0.79692  0.67833  0.34496  1.0000
  H   H30       1.0  0.70309  0.17833  0.15505  1.0000
  H   H31       1.0  0.20310  0.32167  0.65503  1.0000
  H   H32       1.0  0.29691  0.82167  0.84496  1.0000
  H   H33       1.0  0.69053  0.66750  0.20862  1.0000
  H   H34       1.0  0.80950  0.16750  0.29139  1.0000
  H   H35       1.0  0.30947  0.33250  0.79138  1.0000
  H   H36       1.0  0.19051  0.83250  0.70862  1.0000
  H   H37       1.0  0.77435  0.63313  0.81298  1.0000
  H   H38       1.0  0.72564  0.13313  0.68702  1.0000
  H   H39       1.0  0.22567  0.36687  0.18702  1.0000
  H   H40       1.0  0.27434  0.86686  0.31297  1.0000
  H   H41       1.0  0.59793  0.56003  0.83728  1.0000
  H   H42       1.0  0.90206  0.06003  0.66272  1.0000
  H   H43       1.0  0.40208  0.43998  0.16272  1.0000
  H   H44       1.0  0.09792  0.93997  0.33728  1.0000
  H   H45       1.0  0.77950  0.43308  0.72417  1.0000
  H   H46       1.0  0.72050  0.93309  0.77583  1.0000
  H   H47       1.0  0.22052  0.56693  0.27583  1.0000
  H   H48       1.0  0.27949  0.06692  0.22416  1.0000
  H   H49       1.0  0.60451  0.36335  0.75122  1.0000
  H   H50       1.0  0.89548  0.86334  0.74878  1.0000
  H   H51       1.0  0.39551  0.63666  0.24878  1.0000
  H   H52       1.0  0.10450  0.13666  0.25121  1.0000
  H   H53       1.0  0.44031  0.57697  0.70628  1.0000
  H   H54       1.0  0.05969  0.07695  0.79372  1.0000
  H   H55       1.0  0.55970  0.42303  0.29372  1.0000
  H   H56       1.0  0.94030  0.92303  0.20627  1.0000
  H   H57       1.0  0.61507  0.65237  0.68344  1.0000
  H   H58       1.0  0.88494  0.15238  0.81655  1.0000
  H   H59       1.0  0.38493  0.34762  0.31656  1.0000
  H   H60       1.0  0.11506  0.84762  0.18343  1.0000
  C   C1        1.0  0.82120  0.47879  0.19616  1.0000
  C   C2        1.0  0.67883  0.97879  0.30385  1.0000
  C   C3        1.0  0.17880  0.52120  0.80383  1.0000
  C   C4        1.0  0.32118  0.02121  0.69616  1.0000
  C   C5        1.0  0.93196  0.37846  0.23056  1.0000
  C   C6        1.0  0.56806  0.87847  0.26946  1.0000
  C   C7        1.0  0.06805  0.62154  0.76943  1.0000
  C   C8        1.0  0.43193  0.12154  0.73056  1.0000
  C   C9        1.0  0.99446  0.38624  0.30694  1.0000
  C   C10       1.0  0.50555  0.88624  0.19308  1.0000
  C   C11       1.0  0.00557  0.61377  0.69305  1.0000
  C   C12       1.0  0.49445  0.11377  0.80694  1.0000
  C   C13       1.0  0.94447  0.49300  0.34814  1.0000
  C   C14       1.0  0.55553  0.99300  0.15187  1.0000
  C   C15       1.0  0.05556  0.50700  0.65185  1.0000
  C   C16       1.0  0.44446  0.00700  0.84814  1.0000
  C   C17       1.0  0.83578  0.59467  0.31289  1.0000
  C   C18       1.0  0.66423  0.09467  0.18712  1.0000
  C   C19       1.0  0.16423  0.40533  0.68711  1.0000
  C   C20       1.0  0.33576  0.90534  0.81289  1.0000
  C   C21       1.0  0.77447  0.58849  0.23662  1.0000
  C   C22       1.0  0.72555  0.08848  0.26339  1.0000
  C   C23       1.0  0.22552  0.41151  0.76337  1.0000
  C   C24       1.0  0.27445  0.91152  0.73662  1.0000
  C   C25       1.0  0.81595  0.45210  0.87835  1.0000
  C   C26       1.0  0.68405  0.95211  0.62165  1.0000
  C   C27       1.0  0.18406  0.54790  0.12165  1.0000
  C   C28       1.0  0.31594  0.04788  0.37834  1.0000
  C   C29       1.0  0.71161  0.53447  0.81768  1.0000
  C   C30       1.0  0.78838  0.03447  0.68233  1.0000
  C   C31       1.0  0.28840  0.46553  0.18233  1.0000
  C   C32       1.0  0.21161  0.96553  0.31767  1.0000
  C   C33       1.0  0.66686  0.46057  0.74395  1.0000
  C   C34       1.0  0.83314  0.96057  0.75605  1.0000
  C   C35       1.0  0.33316  0.53943  0.25605  1.0000
  C   C36       1.0  0.16685  0.03943  0.24395  1.0000
  C   C37       1.0  0.55621  0.55205  0.68819  1.0000
  C   C38       1.0  0.94379  0.05205  0.81181  1.0000
  C   C39       1.0  0.44379  0.44795  0.31181  1.0000
  C   C40       1.0  0.05621  0.94795  0.18819  1.0000
  C   C41       1.0  0.50760  0.49352  0.61163  1.0000
  C   C42       1.0  0.99238  0.99352  0.88837  1.0000
  C   C43       1.0  0.49239  0.50648  0.38838  1.0000
  C   C44       1.0  0.00761  0.00649  0.11162  1.0000
  S   S1        1.0  0.73811  0.47304  0.09907  1.0000
  S   S2        1.0  0.76192  0.97305  0.40094  1.0000
  S   S3        1.0  0.26189  0.52697  0.90092  1.0000
  S   S4        1.0  0.23809  0.02695  0.59906  1.0000
  O   O1        1.0  0.32446  0.23404  0.04953  1.0000
  O   O2        1.0  0.17555  0.73404  0.45047  1.0000
  O   O3        1.0  0.67554  0.76596  0.95047  1.0000
  O   O4        1.0  0.82444  0.26596  0.54954  1.0000
  O   O5        1.0  0.81549  0.35282  0.07004  1.0000
  O   O6        1.0  0.68456  0.85282  0.42998  1.0000
  O   O7        1.0  0.18450  0.64717  0.92995  1.0000
  O   O8        1.0  0.31546  0.14717  0.57003  1.0000
  O   O9        1.0  0.76215  0.13019  0.97603  1.0000
  O   O10       1.0  0.73785  0.63017  0.52397  1.0000
  O   O11       1.0  0.23785  0.86982  0.02396  1.0000
  O   O12       1.0  0.26214  0.36982  0.47603  1.0000
  O   O13       1.0  0.55854  0.45666  0.08827  1.0000
  O   O14       1.0  0.94149  0.95667  0.41174  1.0000
  O   O15       1.0  0.44146  0.54336  0.91172  1.0000
  O   O16       1.0  0.05852  0.04332  0.58827  1.0000
  O   O17       1.0  0.83887  0.32394  0.87191  1.0000
  O   O18       1.0  0.66115  0.82394  0.62809  1.0000
  O   O19       1.0  0.16115  0.67606  0.12809  1.0000
  O   O20       1.0  0.33886  0.17605  0.37190  1.0000
  O   O21       1.0  0.41798  0.56997  0.56159  1.0000
  O   O22       1.0  0.08201  0.06997  0.93841  1.0000
  O   O23       1.0  0.58200  0.43002  0.43841  1.0000
  O   O24       1.0  0.91798  0.93004  0.06159  1.0000
  O   O25       1.0  0.78592  0.60669  0.07187  1.0000
  O   O26       1.0  0.71411  0.10670  0.42815  1.0000
  O   O27       1.0  0.21408  0.39331  0.92814  1.0000
  O   O28       1.0  0.28590  0.89330  0.57186  1.0000
  O   O29       1.0  0.88203  0.51201  0.93947  1.0000
  O   O30       1.0  0.61795  0.01202  0.56054  1.0000
  O   O31       1.0  0.11797  0.48798  0.06054  1.0000
  O   O32       1.0  0.38204  0.98797  0.43946  1.0000
  O   O33       1.0  0.55245  0.37222  0.59887  1.0000
  O   O34       1.0  0.94752  0.87222  0.90113  1.0000
  O   O35       1.0  0.44753  0.62777  0.40113  1.0000
  O   O36       1.0  0.05247  0.12777  0.09887  1.0000
