data_image0
_chemical_formula_structural       Pr4H60C44S4O36
_chemical_formula_sum              "Pr4 H60 C44 S4 O36"
_cell_length_a       8.21247
_cell_length_b       9.83012
_cell_length_c       18.703
_cell_angle_alpha    90
_cell_angle_beta     102.803
_cell_angle_gamma    90

_space_group_name_H-M_alt    "P 1"
_space_group_IT_number       1

loop_
  _space_group_symop_operation_xyz
  'x, y, z'

loop_
  _atom_site_type_symbol
  _atom_site_label
  _atom_site_symmetry_multiplicity
  _atom_site_fract_x
  _atom_site_fract_y
  _atom_site_fract_z
  _atom_site_occupancy
  Pr  Pr1       1.0  0.02284  0.71676  0.99540  1.0000
  Pr  Pr2       1.0  0.47716  0.21677  0.50460  1.0000
  Pr  Pr3       1.0  0.97716  0.28323  0.00460  1.0000
  Pr  Pr4       1.0  0.52285  0.78324  0.49540  1.0000
  H   H1        1.0  0.35185  0.81193  0.09718  1.0000
  H   H2        1.0  0.14815  0.31193  0.40282  1.0000
  H   H3        1.0  0.64815  0.18805  0.90282  1.0000
  H   H4        1.0  0.85185  0.68806  0.59718  1.0000
  H   H5        1.0  0.80287  0.95357  0.00693  1.0000
  H   H6        1.0  0.69714  0.45356  0.49307  1.0000
  H   H7        1.0  0.19714  0.04643  0.99306  1.0000
  H   H8        1.0  0.30287  0.54644  0.50693  1.0000
  H   H9        1.0  0.41281  0.68563  0.05827  1.0000
  H   H10       1.0  0.08717  0.18564  0.44173  1.0000
  H   H11       1.0  0.58716  0.31435  0.94172  1.0000
  H   H12       1.0  0.91283  0.81436  0.55828  1.0000
  H   H13       1.0  0.68754  0.82396  0.00631  1.0000
  H   H14       1.0  0.81248  0.32396  0.49369  1.0000
  H   H15       1.0  0.31250  0.17602  0.99369  1.0000
  H   H16       1.0  0.18751  0.67603  0.50631  1.0000
  H   H17       1.0  0.31424  0.66479  0.79261  1.0000
  H   H18       1.0  0.18576  0.16478  0.70739  1.0000
  H   H19       1.0  0.68573  0.33526  0.20740  1.0000
  H   H20       1.0  0.81424  0.83520  0.29262  1.0000
  H   H21       1.0  0.21062  0.67680  0.65725  1.0000
  H   H22       1.0  0.28938  0.17678  0.84275  1.0000
  H   H23       1.0  0.78941  0.32327  0.34276  1.0000
  H   H24       1.0  0.71060  0.82319  0.15725  1.0000
  H   H25       1.0  0.01318  0.49866  0.59265  1.0000
  H   H26       1.0  0.48684  0.99865  0.90735  1.0000
  H   H27       1.0  0.98690  0.50140  0.40733  1.0000
  H   H28       1.0  0.51316  0.00133  0.09266  1.0000
  H   H29       1.0  0.91535  0.31605  0.66333  1.0000
  H   H30       1.0  0.58466  0.81604  0.83667  1.0000
  H   H31       1.0  0.08470  0.68400  0.33663  1.0000
  H   H32       1.0  0.41534  0.18395  0.16334  1.0000
  H   H33       1.0  0.02702  0.30091  0.79956  1.0000
  H   H34       1.0  0.47297  0.80091  0.70044  1.0000
  H   H35       1.0  0.97296  0.69911  0.20040  1.0000
  H   H36       1.0  0.52705  0.19908  0.29957  1.0000
  H   H37       1.0  0.77427  0.37009  0.81456  1.0000
  H   H38       1.0  0.72571  0.87009  0.68543  1.0000
  H   H39       1.0  0.22574  0.62991  0.18544  1.0000
  H   H40       1.0  0.27426  0.12992  0.31457  1.0000
  H   H41       1.0  0.59327  0.43956  0.83556  1.0000
  H   H42       1.0  0.90673  0.93956  0.66444  1.0000
  H   H43       1.0  0.40674  0.56042  0.16444  1.0000
  H   H44       1.0  0.09327  0.06043  0.33557  1.0000
  H   H45       1.0  0.77879  0.56782  0.72680  1.0000
  H   H46       1.0  0.72121  0.06781  0.77320  1.0000
  H   H47       1.0  0.22122  0.43217  0.27319  1.0000
  H   H48       1.0  0.27878  0.93218  0.22681  1.0000
  H   H49       1.0  0.59841  0.63315  0.75011  1.0000
  H   H50       1.0  0.90158  0.13315  0.74990  1.0000
  H   H51       1.0  0.40160  0.36684  0.24989  1.0000
  H   H52       1.0  0.09841  0.86685  0.25011  1.0000
  H   H53       1.0  0.62120  0.34911  0.68346  1.0000
  H   H54       1.0  0.87878  0.84911  0.81655  1.0000
  H   H55       1.0  0.37880  0.65089  0.31654  1.0000
  H   H56       1.0  0.12120  0.15089  0.18346  1.0000
  H   H57       1.0  0.44114  0.41832  0.70378  1.0000
  H   H58       1.0  0.05884  0.91830  0.79622  1.0000
  H   H59       1.0  0.55886  0.58167  0.29623  1.0000
  H   H60       1.0  0.94114  0.08168  0.20379  1.0000
  C   C1        1.0  0.17921  0.47983  0.80292  1.0000
  C   C2        1.0  0.32078  0.97982  0.69708  1.0000
  C   C3        1.0  0.82077  0.52020  0.19707  1.0000
  C   C4        1.0  0.67924  0.02017  0.30293  1.0000
  C   C5        1.0  0.22920  0.58761  0.76391  1.0000
  C   C6        1.0  0.27080  0.08759  0.73609  1.0000
  C   C7        1.0  0.77078  0.41244  0.23608  1.0000
  C   C8        1.0  0.72921  0.91238  0.26392  1.0000
  C   C9        1.0  0.16937  0.59444  0.68815  1.0000
  C   C10       1.0  0.33063  0.09443  0.81185  1.0000
  C   C11       1.0  0.83066  0.40561  0.31185  1.0000
  C   C12       1.0  0.66936  0.90554  0.18816  1.0000
  C   C13       1.0  0.05925  0.49508  0.65195  1.0000
  C   C14       1.0  0.44076  0.99507  0.84805  1.0000
  C   C15       1.0  0.94080  0.50497  0.34804  1.0000
  C   C16       1.0  0.55924  0.00490  0.15195  1.0000
  C   C17       1.0  0.00604  0.39012  0.69162  1.0000
  C   C18       1.0  0.49396  0.89011  0.80838  1.0000
  C   C19       1.0  0.99399  0.60992  0.30835  1.0000
  C   C20       1.0  0.50605  0.10987  0.19163  1.0000
  C   C21       1.0  0.06691  0.38188  0.76747  1.0000
  C   C22       1.0  0.43309  0.88187  0.73252  1.0000
  C   C23       1.0  0.93309  0.61816  0.23249  1.0000
  C   C24       1.0  0.56693  0.11812  0.26749  1.0000
  C   C25       1.0  0.80944  0.55024  0.87836  1.0000
  C   C26       1.0  0.69057  0.05025  0.62164  1.0000
  C   C27       1.0  0.19056  0.44976  0.12164  1.0000
  C   C28       1.0  0.30944  0.94977  0.37836  1.0000
  C   C29       1.0  0.70818  0.46654  0.81771  1.0000
  C   C30       1.0  0.79181  0.96654  0.68229  1.0000
  C   C31       1.0  0.29182  0.53346  0.18229  1.0000
  C   C32       1.0  0.20818  0.03347  0.31772  1.0000
  C   C33       1.0  0.66474  0.53839  0.74439  1.0000
  C   C34       1.0  0.83525  0.03839  0.75561  1.0000
  C   C35       1.0  0.33527  0.46160  0.25561  1.0000
  C   C36       1.0  0.16474  0.96161  0.24440  1.0000
  C   C37       1.0  0.51021  0.50578  0.61220  1.0000
  C   C38       1.0  0.98978  0.00577  0.88781  1.0000
  C   C39       1.0  0.48978  0.49422  0.38781  1.0000
  C   C40       1.0  0.01021  0.99422  0.11220  1.0000
  C   C41       1.0  0.55803  0.44645  0.68782  1.0000
  C   C42       1.0  0.94195  0.94643  0.81218  1.0000
  C   C43       1.0  0.44197  0.55355  0.31218  1.0000
  C   C44       1.0  0.05803  0.05355  0.18783  1.0000
  S   S1        1.0  0.26046  0.47248  0.89941  1.0000
  S   S2        1.0  0.23954  0.97248  0.60059  1.0000
  S   S3        1.0  0.73951  0.52752  0.10058  1.0000
  S   S4        1.0  0.76047  0.02751  0.39941  1.0000
  O   O1        1.0  0.83081  0.67671  0.87116  1.0000
  O   O2        1.0  0.66918  0.17672  0.62885  1.0000
  O   O3        1.0  0.16918  0.32328  0.12884  1.0000
  O   O4        1.0  0.33083  0.82330  0.37116  1.0000
  O   O5        1.0  0.75679  0.87060  0.97787  1.0000
  O   O6        1.0  0.74322  0.37059  0.52213  1.0000
  O   O7        1.0  0.24322  0.12941  0.02212  1.0000
  O   O8        1.0  0.25679  0.62941  0.47788  1.0000
  O   O9        1.0  0.33524  0.76407  0.05049  1.0000
  O   O10       1.0  0.16475  0.26409  0.44952  1.0000
  O   O11       1.0  0.66475  0.23592  0.94951  1.0000
  O   O12       1.0  0.83525  0.73593  0.55049  1.0000
  O   O13       1.0  0.55867  0.62459  0.60034  1.0000
  O   O14       1.0  0.94132  0.12457  0.89966  1.0000
  O   O15       1.0  0.44132  0.37541  0.39966  1.0000
  O   O16       1.0  0.05865  0.87540  0.10035  1.0000
  O   O17       1.0  0.21361  0.60424  0.92645  1.0000
  O   O18       1.0  0.28637  0.10424  0.57355  1.0000
  O   O19       1.0  0.78638  0.39576  0.07354  1.0000
  O   O20       1.0  0.71363  0.89576  0.42646  1.0000
  O   O21       1.0  0.44139  0.45527  0.91188  1.0000
  O   O22       1.0  0.05861  0.95527  0.58812  1.0000
  O   O23       1.0  0.55857  0.54470  0.08810  1.0000
  O   O24       1.0  0.94140  0.04471  0.41190  1.0000
  O   O25       1.0  0.18020  0.35372  0.92613  1.0000
  O   O26       1.0  0.31979  0.85373  0.57387  1.0000
  O   O27       1.0  0.81974  0.64628  0.07384  1.0000
  O   O28       1.0  0.68022  0.14627  0.42614  1.0000
  O   O29       1.0  0.87433  0.49239  0.93981  1.0000
  O   O30       1.0  0.62569  0.99242  0.56018  1.0000
  O   O31       1.0  0.12565  0.50760  0.06019  1.0000
  O   O32       1.0  0.37432  0.00761  0.43982  1.0000
  O   O33       1.0  0.41753  0.43219  0.56200  1.0000
  O   O34       1.0  0.08248  0.93219  0.93800  1.0000
  O   O35       1.0  0.58245  0.56780  0.43801  1.0000
  O   O36       1.0  0.91753  0.06780  0.06200  1.0000
