data_image0
_chemical_formula_structural       Mn2H18C10S2N2O10
_chemical_formula_sum              "Mn2 H18 C10 S2 N2 O10"
_cell_length_a       5.02003
_cell_length_b       8.62013
_cell_length_c       9.54779
_cell_angle_alpha    90.0006
_cell_angle_beta     89.9996
_cell_angle_gamma    94.8519

_space_group_name_H-M_alt    "P 1"
_space_group_IT_number       1

loop_
  _space_group_symop_operation_xyz
  'x, y, z'

loop_
  _atom_site_type_symbol
  _atom_site_label
  _atom_site_symmetry_multiplicity
  _atom_site_fract_x
  _atom_site_fract_y
  _atom_site_fract_z
  _atom_site_occupancy
  Mn  Mn1       1.0  0.19882  0.41776  0.45611  1.0000
  Mn  Mn2       1.0  0.80121  0.58226  0.95610  1.0000
  H   H1        1.0  0.74337  0.53337  0.56574  1.0000
  H   H2        1.0  0.25665  0.46662  0.06573  1.0000
  H   H3        1.0  0.99098  0.63081  0.62748  1.0000
  H   H4        1.0  0.00904  0.36919  0.12747  1.0000
  H   H5        1.0  0.24796  0.13739  0.55955  1.0000
  H   H6        1.0  0.75203  0.86260  0.05955  1.0000
  H   H7        1.0  0.93280  0.16186  0.60418  1.0000
  H   H8        1.0  0.06718  0.83815  0.10419  1.0000
  H   H9        1.0  0.03958  0.30602  0.79735  1.0000
  H   H10       1.0  0.96039  0.69399  0.29734  1.0000
  H   H11       1.0  0.10729  0.02576  0.83648  1.0000
  H   H12       1.0  0.89267  0.97424  0.33648  1.0000
  H   H13       1.0  0.30412  0.15714  0.94566  1.0000
  H   H14       1.0  0.69581  0.84287  0.44566  1.0000
  H   H15       1.0  0.31914  0.86472  0.61628  1.0000
  H   H16       1.0  0.68089  0.13528  0.11627  1.0000
  H   H17       1.0  0.62263  0.79079  0.67498  1.0000
  H   H18       1.0  0.37742  0.20923  0.17496  1.0000
  C   C1        1.0  0.43676  0.38482  0.74585  1.0000
  C   C2        1.0  0.56323  0.61516  0.24584  1.0000
  C   C3        1.0  0.20846  0.25396  0.74671  1.0000
  C   C4        1.0  0.79152  0.74605  0.24670  1.0000
  C   C5        1.0  0.27400  0.11675  0.83764  1.0000
  C   C6        1.0  0.72597  0.88325  0.33763  1.0000
  C   C7        1.0  0.44411  0.84645  0.70808  1.0000
  C   C8        1.0  0.55591  0.15354  0.20807  1.0000
  C   C9        1.0  0.29589  0.74221  0.81607  1.0000
  C   C10       1.0  0.70410  0.25779  0.31608  1.0000
  S   S1        1.0  0.57608  0.03025  0.78346  1.0000
  S   S2        1.0  0.42391  0.96976  0.28345  1.0000
  N   N1        1.0  0.12447  0.21360  0.60260  1.0000
  N   N2        1.0  0.87553  0.78639  0.10260  1.0000
  O   O1        1.0  0.92612  0.57780  0.53986  1.0000
  O   O2        1.0  0.07390  0.42220  0.03985  1.0000
  O   O3        1.0  0.43956  0.48397  0.64678  1.0000
  O   O4        1.0  0.56045  0.51602  0.14676  1.0000
  O   O5        1.0  0.60368  0.38992  0.84588  1.0000
  O   O6        1.0  0.39632  0.61006  0.34586  1.0000
  O   O7        1.0  0.41891  0.69985  0.92232  1.0000
  O   O8        1.0  0.58111  0.30015  0.42232  1.0000
  O   O9        1.0  0.04452  0.70570  0.79436  1.0000
  O   O10       1.0  0.95549  0.29429  0.29435  1.0000
