data_image0
_chemical_formula_structural       Ni6H40C44O28
_chemical_formula_sum              "Ni6 H40 C44 O28"
_cell_length_a       6.20709
_cell_length_b       10.9351
_cell_length_c       16.8834
_cell_angle_alpha    105.52
_cell_angle_beta     90
_cell_angle_gamma    90

_space_group_name_H-M_alt    "P 1"
_space_group_IT_number       1

loop_
  _space_group_symop_operation_xyz
  'x, y, z'

loop_
  _atom_site_type_symbol
  _atom_site_label
  _atom_site_symmetry_multiplicity
  _atom_site_fract_x
  _atom_site_fract_y
  _atom_site_fract_z
  _atom_site_occupancy
  Ni  Ni1       1.0  0.49990  0.50035  0.99924  1.0000
  Ni  Ni2       1.0  0.99951  0.49882  0.50008  1.0000
  Ni  Ni3       1.0  0.99728  0.46735  0.08628  1.0000
  Ni  Ni4       1.0  0.49676  0.53347  0.41391  1.0000
  Ni  Ni5       1.0  0.00279  0.53272  0.91420  1.0000
  Ni  Ni6       1.0  0.50231  0.46723  0.58617  1.0000
  H   H1        1.0  0.20040  0.20644  0.31518  1.0000
  H   H2        1.0  0.70098  0.79311  0.18494  1.0000
  H   H3        1.0  0.79954  0.79348  0.68482  1.0000
  H   H4        1.0  0.29921  0.20698  0.81504  1.0000
  H   H5        1.0  0.30136  0.01858  0.20217  1.0000
  H   H6        1.0  0.80193  0.98155  0.29763  1.0000
  H   H7        1.0  0.69848  0.98147  0.79777  1.0000
  H   H8        1.0  0.19821  0.01849  0.70238  1.0000
  H   H9        1.0  0.04971  0.93693  0.08448  1.0000
  H   H10       1.0  0.55031  0.06382  0.41525  1.0000
  H   H11       1.0  0.95002  0.06314  0.91551  1.0000
  H   H12       1.0  0.44979  0.93617  0.58476  1.0000
  H   H13       1.0  0.59173  0.22778  0.19864  1.0000
  H   H14       1.0  0.09232  0.77269  0.30163  1.0000
  H   H15       1.0  0.40821  0.77242  0.80144  1.0000
  H   H16       1.0  0.90802  0.22716  0.69835  1.0000
  H   H17       1.0  0.62693  0.84818  0.07486  1.0000
  H   H18       1.0  0.12533  0.15240  0.42525  1.0000
  H   H19       1.0  0.37251  0.15200  0.92527  1.0000
  H   H20       1.0  0.87469  0.84742  0.57470  1.0000
  H   H21       1.0  0.33227  0.34652  0.10615  1.0000
  H   H22       1.0  0.83278  0.65364  0.39293  1.0000
  H   H23       1.0  0.66836  0.65370  0.89359  1.0000
  H   H24       1.0  0.16793  0.34623  0.60715  1.0000
  H   H25       1.0  0.13497  0.28832  0.14403  1.0000
  H   H26       1.0  0.63394  0.71089  0.35502  1.0000
  H   H27       1.0  0.86638  0.71108  0.85562  1.0000
  H   H28       1.0  0.36749  0.28970  0.64507  1.0000
  H   H29       1.0  0.80924  0.54160  0.23728  1.0000
  H   H30       1.0  0.31099  0.45768  0.26304  1.0000
  H   H31       1.0  0.18861  0.45892  0.76303  1.0000
  H   H32       1.0  0.68838  0.54212  0.73698  1.0000
  H   H33       1.0  0.65417  0.53347  0.16306  1.0000
  H   H34       1.0  0.15391  0.46713  0.33687  1.0000
  H   H35       1.0  0.34540  0.46671  0.83662  1.0000
  H   H36       1.0  0.84564  0.53299  0.66326  1.0000
  H   H37       1.0  0.81186  0.64194  0.04454  1.0000
  H   H38       1.0  0.30854  0.35989  0.45594  1.0000
  H   H39       1.0  0.18768  0.35787  0.95607  1.0000
  H   H40       1.0  0.69394  0.63965  0.54354  1.0000
  C   C1        1.0  0.81637  0.33327  0.33636  1.0000
  C   C2        1.0  0.31665  0.66661  0.16388  1.0000
  C   C3        1.0  0.18331  0.66658  0.66372  1.0000
  C   C4        1.0  0.68324  0.33370  0.83593  1.0000
  C   C5        1.0  0.88461  0.22522  0.26560  1.0000
  C   C6        1.0  0.38528  0.77469  0.23465  1.0000
  C   C7        1.0  0.11526  0.77475  0.73446  1.0000
  C   C8        1.0  0.61495  0.22537  0.76531  1.0000
  C   C9        1.0  0.08777  0.16842  0.26522  1.0000
  C   C10       1.0  0.58840  0.83143  0.23488  1.0000
  C   C11       1.0  0.91210  0.83154  0.73480  1.0000
  C   C12       1.0  0.41180  0.16864  0.76510  1.0000
  C   C13       1.0  0.14563  0.06401  0.20097  1.0000
  C   C14       1.0  0.64621  0.93617  0.29895  1.0000
  C   C15       1.0  0.85420  0.93604  0.79901  1.0000
  C   C16       1.0  0.35399  0.06384  0.70107  1.0000
  C   C17       1.0  0.00501  0.01816  0.13509  1.0000
  C   C18       1.0  0.50559  0.98238  0.36478  1.0000
  C   C19       1.0  0.99473  0.98191  0.86490  1.0000
  C   C20       1.0  0.49460  0.01757  0.63524  1.0000
  C   C21       1.0  0.80741  0.07929  0.13256  1.0000
  C   C22       1.0  0.30796  0.92138  0.36745  1.0000
  C   C23       1.0  0.19234  0.92083  0.86748  1.0000
  C   C24       1.0  0.69231  0.07851  0.63257  1.0000
  C   C25       1.0  0.74689  0.18114  0.19865  1.0000
  C   C26       1.0  0.24752  0.81922  0.30154  1.0000
  C   C27       1.0  0.25297  0.81896  0.80141  1.0000
  C   C28       1.0  0.75277  0.18070  0.69846  1.0000
  C   C29       1.0  0.57388  0.91484  0.04119  1.0000
  C   C30       1.0  0.07314  0.08547  0.45887  1.0000
  C   C31       1.0  0.42557  0.08533  0.95893  1.0000
  C   C32       1.0  0.92708  0.91440  0.54115  1.0000
  C   C33       1.0  0.65813  0.03783  0.06226  1.0000
  C   C34       1.0  0.15875  0.96280  0.43782  1.0000
  C   C35       1.0  0.34142  0.96232  0.93783  1.0000
  C   C36       1.0  0.84154  0.03708  0.56222  1.0000
  C   C37       1.0  0.58434  0.12366  0.01931  1.0000
  C   C38       1.0  0.08601  0.87677  0.48077  1.0000
  C   C39       1.0  0.41519  0.87648  0.98077  1.0000
  C   C40       1.0  0.91417  0.12311  0.51924  1.0000
  C   C41       1.0  0.67111  0.25639  0.03350  1.0000
  C   C42       1.0  0.17211  0.74384  0.46560  1.0000
  C   C43       1.0  0.32899  0.74366  0.96636  1.0000
  C   C44       1.0  0.82777  0.25593  0.53437  1.0000
  O   O1        1.0  0.97117  0.39328  0.38065  1.0000
  O   O2        1.0  0.47062  0.60647  0.11923  1.0000
  O   O3        1.0  0.02860  0.60625  0.61960  1.0000
  O   O4        1.0  0.52875  0.39421  0.88017  1.0000
  O   O5        1.0  0.61775  0.35840  0.34769  1.0000
  O   O6        1.0  0.11791  0.64195  0.15286  1.0000
  O   O7        1.0  0.38206  0.64178  0.65228  1.0000
  O   O8        1.0  0.88181  0.35841  0.84735  1.0000
  O   O9        1.0  0.87136  0.27685  0.03398  1.0000
  O   O10       1.0  0.37250  0.72302  0.46601  1.0000
  O   O11       1.0  0.12896  0.72265  0.96597  1.0000
  O   O12       1.0  0.62760  0.27692  0.53388  1.0000
  O   O13       1.0  0.52366  0.34105  0.04148  1.0000
  O   O14       1.0  0.02490  0.65903  0.45569  1.0000
  O   O15       1.0  0.47708  0.65922  0.95805  1.0000
  O   O16       1.0  0.97545  0.34064  0.54432  1.0000
  O   O17       1.0  0.21095  0.36784  0.14751  1.0000
  O   O18       1.0  0.70978  0.63152  0.35215  1.0000
  O   O19       1.0  0.79003  0.63177  0.85243  1.0000
  O   O20       1.0  0.29082  0.36880  0.64791  1.0000
  O   O21       1.0  0.77411  0.48764  0.18222  1.0000
  O   O22       1.0  0.27478  0.51232  0.31777  1.0000
  O   O23       1.0  0.22479  0.51274  0.81800  1.0000
  O   O24       1.0  0.72450  0.48771  0.68217  1.0000
  O   O25       1.0  0.81290  0.55167  0.01621  1.0000
  O   O26       1.0  0.30962  0.45000  0.48482  1.0000
  O   O27       1.0  0.18702  0.44795  0.98487  1.0000
  O   O28       1.0  0.69066  0.54949  0.51473  1.0000
