data_image0
_chemical_formula_structural       Cu2H8C8N4Cl2
_chemical_formula_sum              "Cu2 H8 C8 N4 Cl2"
_cell_length_a       3.62374
_cell_length_b       8.3762
_cell_length_c       8.86202
_cell_angle_alpha    90.2971
_cell_angle_beta     94.7974
_cell_angle_gamma    92.2726

_space_group_name_H-M_alt    "P 1"
_space_group_IT_number       1

loop_
  _space_group_symop_operation_xyz
  'x, y, z'

loop_
  _atom_site_type_symbol
  _atom_site_label
  _atom_site_symmetry_multiplicity
  _atom_site_fract_x
  _atom_site_fract_y
  _atom_site_fract_z
  _atom_site_occupancy
  Cu  Cu1       1.0  0.94933  0.64979  0.11044  1.0000
  Cu  Cu2       1.0  0.05069  0.35021  0.88957  1.0000
  H   H1        1.0  0.18454  0.07356  0.09718  1.0000
  H   H2        1.0  0.81549  0.92644  0.90282  1.0000
  H   H3        1.0  0.05303  0.01163  0.36135  1.0000
  H   H4        1.0  0.94696  0.98837  0.63864  1.0000
  H   H5        1.0  0.80912  0.23829  0.52003  1.0000
  H   H6        1.0  0.19082  0.76170  0.47995  1.0000
  H   H7        1.0  0.74188  0.50522  0.39000  1.0000
  H   H8        1.0  0.25808  0.49478  0.60999  1.0000
  C   C1        1.0  0.08444  0.16470  0.17001  1.0000
  C   C2        1.0  0.91556  0.83533  0.83000  1.0000
  C   C3        1.0  0.01097  0.13146  0.31855  1.0000
  C   C4        1.0  0.98908  0.86852  0.68146  1.0000
  C   C5        1.0  0.88059  0.25385  0.40352  1.0000
  C   C6        1.0  0.11939  0.74613  0.59647  1.0000
  C   C7        1.0  0.84310  0.40156  0.33374  1.0000
  C   C8        1.0  0.15685  0.59843  0.66626  1.0000
  N   N1        1.0  0.92761  0.43027  0.19158  1.0000
  N   N2        1.0  0.07243  0.56974  0.80843  1.0000
  N   N3        1.0  0.04198  0.30909  0.10704  1.0000
  N   N4        1.0  0.95805  0.69093  0.89296  1.0000
  Cl  Cl1       1.0  0.48279  0.78265  0.22644  1.0000
  Cl  Cl2       1.0  0.51725  0.21735  0.77356  1.0000
