data_image0
_chemical_formula_structural       Cd2H56C52N8O8
_chemical_formula_sum              "Cd2 H56 C52 N8 O8"
_cell_length_a       9.34176
_cell_length_b       11.1314
_cell_length_c       12.577
_cell_angle_alpha    87.4308
_cell_angle_beta     82.5107
_cell_angle_gamma    72.4383

_space_group_name_H-M_alt    "P 1"
_space_group_IT_number       1

loop_
  _space_group_symop_operation_xyz
  'x, y, z'

loop_
  _atom_site_type_symbol
  _atom_site_label
  _atom_site_symmetry_multiplicity
  _atom_site_fract_x
  _atom_site_fract_y
  _atom_site_fract_z
  _atom_site_occupancy
  Cd  Cd1       1.0  0.94993  0.65194  0.91574  1.0000
  Cd  Cd2       1.0  0.05007  0.34806  0.08425  1.0000
  H   H1        1.0  0.59054  0.75346  0.94037  1.0000
  H   H2        1.0  0.40946  0.24654  0.05963  1.0000
  H   H3        1.0  0.36972  0.88046  0.06477  1.0000
  H   H4        1.0  0.63028  0.11954  0.93523  1.0000
  H   H5        1.0  0.68316  0.88488  0.28582  1.0000
  H   H6        1.0  0.31684  0.11512  0.71418  1.0000
  H   H7        1.0  0.89129  0.75795  0.15295  1.0000
  H   H8        1.0  0.10871  0.24205  0.84705  1.0000
  H   H9        1.0  0.27989  0.00995  0.22451  1.0000
  H   H10       1.0  0.72011  0.99005  0.77550  1.0000
  H   H11       1.0  0.34537  0.89143  0.31983  1.0000
  H   H12       1.0  0.65463  0.10857  0.68017  1.0000
  H   H13       1.0  0.33330  0.21196  0.23776  1.0000
  H   H14       1.0  0.66670  0.78804  0.76225  1.0000
  H   H15       1.0  0.52805  0.12593  0.20351  1.0000
  H   H16       1.0  0.47195  0.87407  0.79649  1.0000
  H   H17       1.0  0.59818  0.19436  0.36477  1.0000
  H   H18       1.0  0.40182  0.80564  0.63523  1.0000
  H   H19       1.0  0.49456  0.32819  0.29293  1.0000
  H   H20       1.0  0.50544  0.67181  0.70707  1.0000
  H   H21       1.0  0.25502  0.21279  0.56039  1.0000
  H   H22       1.0  0.74498  0.78721  0.43961  1.0000
  H   H23       1.0  0.44839  0.12179  0.53113  1.0000
  H   H24       1.0  0.55161  0.87821  0.46887  1.0000
  H   H25       1.0  0.28764  0.01052  0.47060  1.0000
  H   H26       1.0  0.71236  0.98948  0.52940  1.0000
  H   H27       1.0  0.19016  0.14332  0.39539  1.0000
  H   H28       1.0  0.80984  0.85669  0.60461  1.0000
  H   H29       1.0  0.45918  0.43586  0.44967  1.0000
  H   H30       1.0  0.54082  0.56414  0.55033  1.0000
  H   H31       1.0  0.53783  0.30542  0.53183  1.0000
  H   H32       1.0  0.46218  0.69458  0.46816  1.0000
  H   H33       1.0  0.29912  0.51090  0.85507  1.0000
  H   H34       1.0  0.70088  0.48910  0.14493  1.0000
  H   H35       1.0  0.48808  0.39751  0.70452  1.0000
  H   H36       1.0  0.51192  0.60249  0.29548  1.0000
  H   H37       1.0  0.12233  0.46473  0.51241  1.0000
  H   H38       1.0  0.87768  0.53527  0.48759  1.0000
  H   H39       1.0  0.94547  0.57337  0.67283  1.0000
  H   H40       1.0  0.05453  0.42663  0.32717  1.0000
  H   H41       1.0  0.73329  0.40583  0.66838  1.0000
  H   H42       1.0  0.26670  0.59417  0.33162  1.0000
  H   H43       1.0  0.88397  0.25685  0.52422  1.0000
  H   H44       1.0  0.11603  0.74315  0.47578  1.0000
  H   H45       1.0  0.05216  0.04736  0.57174  1.0000
  H   H46       1.0  0.94783  0.95264  0.42826  1.0000
  H   H47       1.0  0.90989  0.13176  0.90721  1.0000
  H   H48       1.0  0.09012  0.86824  0.09279  1.0000
  H   H49       1.0  0.72254  0.31526  0.96318  1.0000
  H   H50       1.0  0.27746  0.68474  0.03682  1.0000
  H   H51       1.0  0.60102  0.40708  0.87068  1.0000
  H   H52       1.0  0.39898  0.59292  0.12932  1.0000
  H   H53       1.0  0.18135  0.97325  0.82462  1.0000
  H   H54       1.0  0.81865  0.02675  0.17538  1.0000
  H   H55       1.0  0.17588  0.90780  0.70054  1.0000
  H   H56       1.0  0.82412  0.09220  0.29946  1.0000
  C   C1        1.0  0.60551  0.78548  0.01765  1.0000
  C   C2        1.0  0.39449  0.21452  0.98235  1.0000
  C   C3        1.0  0.48389  0.85506  0.08747  1.0000
  C   C4        1.0  0.51611  0.14494  0.91253  1.0000
  C   C5        1.0  0.50899  0.89206  0.18667  1.0000
  C   C6        1.0  0.49102  0.10794  0.81333  1.0000
  C   C7        1.0  0.65848  0.85707  0.21008  1.0000
  C   C8        1.0  0.34152  0.14293  0.78992  1.0000
  C   C9        1.0  0.77412  0.78744  0.13623  1.0000
  C   C10       1.0  0.22588  0.21256  0.86377  1.0000
  C   C11       1.0  0.37918  0.96208  0.26612  1.0000
  C   C12       1.0  0.62083  0.03792  0.73388  1.0000
  C   C13       1.0  0.43839  0.15856  0.27086  1.0000
  C   C14       1.0  0.56161  0.84144  0.72914  1.0000
  C   C15       1.0  0.48491  0.24491  0.34024  1.0000
  C   C16       1.0  0.51509  0.75509  0.65976  1.0000
  C   C17       1.0  0.34662  0.17809  0.49470  1.0000
  C   C18       1.0  0.65337  0.82191  0.50530  1.0000
  C   C19       1.0  0.30077  0.09303  0.42331  1.0000
  C   C20       1.0  0.69923  0.90697  0.57669  1.0000
  C   C21       1.0  0.43037  0.36183  0.50160  1.0000
  C   C22       1.0  0.56964  0.63817  0.49840  1.0000
  C   C23       1.0  0.26484  0.49906  0.77745  1.0000
  C   C24       1.0  0.73516  0.50094  0.22255  1.0000
  C   C25       1.0  0.36910  0.43720  0.69332  1.0000
  C   C26       1.0  0.63090  0.56280  0.30668  1.0000
  C   C27       1.0  0.31947  0.42431  0.59539  1.0000
  C   C28       1.0  0.68054  0.57569  0.40461  1.0000
  C   C29       1.0  0.16469  0.47434  0.58730  1.0000
  C   C30       1.0  0.83532  0.52566  0.41270  1.0000
  C   C31       1.0  0.06716  0.53390  0.67543  1.0000
  C   C32       1.0  0.93284  0.46610  0.32457  1.0000
  C   C33       1.0  0.80757  0.27602  0.79733  1.0000
  C   C34       1.0  0.19243  0.72398  0.20267  1.0000
  C   C35       1.0  0.80221  0.31164  0.68893  1.0000
  C   C36       1.0  0.19779  0.68836  0.31107  1.0000
  C   C37       1.0  0.88854  0.22892  0.60834  1.0000
  C   C38       1.0  0.11145  0.77107  0.39166  1.0000
  C   C39       1.0  0.98345  0.11104  0.63504  1.0000
  C   C40       1.0  0.01654  0.88896  0.36496  1.0000
  C   C41       1.0  0.99331  0.07486  0.74250  1.0000
  C   C42       1.0  0.00669  0.92514  0.25750  1.0000
  C   C43       1.0  0.90292  0.15766  0.82263  1.0000
  C   C44       1.0  0.09708  0.84234  0.17737  1.0000
  C   C45       1.0  0.71902  0.36579  0.88620  1.0000
  C   C46       1.0  0.28098  0.63421  0.11380  1.0000
  C   C47       1.0  0.78783  0.47335  0.89192  1.0000
  C   C48       1.0  0.21217  0.52665  0.10808  1.0000
  C   C49       1.0  0.10488  0.95359  0.77312  1.0000
  C   C50       1.0  0.89513  0.04641  0.22688  1.0000
  C   C51       1.0  0.03837  0.85499  0.83029  1.0000
  C   C52       1.0  0.96163  0.14501  0.16971  1.0000
  N   N1        1.0  0.74895  0.75256  0.04104  1.0000
  N   N2        1.0  0.25105  0.24744  0.95897  1.0000
  N   N3        1.0  0.11644  0.54600  0.76917  1.0000
  N   N4        1.0  0.88356  0.45399  0.23083  1.0000
  N   N5        1.0  0.41825  0.04886  0.33283  1.0000
  N   N6        1.0  0.58174  0.95114  0.66717  1.0000
  N   N7        1.0  0.37428  0.28679  0.43501  1.0000
  N   N8        1.0  0.62572  0.71321  0.56499  1.0000
  O   O1        1.0  0.74504  0.57063  0.83521  1.0000
  O   O2        1.0  0.25496  0.42937  0.16479  1.0000
  O   O3        1.0  0.89163  0.45886  0.95371  1.0000
  O   O4        1.0  0.10837  0.54114  0.04629  1.0000
  O   O5        1.0  0.10270  0.79454  0.90838  1.0000
  O   O6        1.0  0.89730  0.20546  0.09162  1.0000
  O   O7        1.0  0.92685  0.83306  0.79531  1.0000
  O   O8        1.0  0.07315  0.16694  0.20469  1.0000
