data_image0
_chemical_formula_structural       Cd2H68C56N8O10
_chemical_formula_sum              "Cd2 H68 C56 N8 O10"
_cell_length_a       6.18505
_cell_length_b       8.62434
_cell_length_c       26.351
_cell_angle_alpha    92.4361
_cell_angle_beta     90
_cell_angle_gamma    111.013

_space_group_name_H-M_alt    "P 1"
_space_group_IT_number       1

loop_
  _space_group_symop_operation_xyz
  'x, y, z'

loop_
  _atom_site_type_symbol
  _atom_site_label
  _atom_site_symmetry_multiplicity
  _atom_site_fract_x
  _atom_site_fract_y
  _atom_site_fract_z
  _atom_site_occupancy
  Cd  Cd1       1.0  0.64810  0.99977  0.74998  1.0000
  Cd  Cd2       1.0  0.35190  0.00023  0.25002  1.0000
  H   H1        1.0  0.09248  0.95567  0.72279  1.0000
  H   H2        1.0  0.13643  0.04357  0.77716  1.0000
  H   H3        1.0  0.90751  0.04432  0.27721  1.0000
  H   H4        1.0  0.86357  0.95642  0.22284  1.0000
  H   H5        1.0  0.78036  0.80258  0.83342  1.0000
  H   H6        1.0  0.97761  0.19699  0.66653  1.0000
  H   H7        1.0  0.21963  0.19743  0.16658  1.0000
  H   H8        1.0  0.02238  0.80301  0.33347  1.0000
  H   H9        1.0  0.20718  0.36376  0.87187  1.0000
  H   H10       1.0  0.84413  0.63640  0.62833  1.0000
  H   H11       1.0  0.79281  0.63623  0.12813  1.0000
  H   H12       1.0  0.15586  0.36360  0.37167  1.0000
  H   H13       1.0  0.98315  0.41746  0.80062  1.0000
  H   H14       1.0  0.56595  0.58233  0.69947  1.0000
  H   H15       1.0  0.01685  0.58255  0.19937  1.0000
  H   H16       1.0  0.43405  0.41767  0.30053  1.0000
  H   H17       1.0  0.17201  0.67226  0.74927  1.0000
  H   H18       1.0  0.49931  0.32711  0.75065  1.0000
  H   H19       1.0  0.82800  0.32776  0.25072  1.0000
  H   H20       1.0  0.50069  0.67289  0.24936  1.0000
  H   H21       1.0  0.74238  0.46373  0.88685  1.0000
  H   H22       1.0  0.27868  0.53632  0.61317  1.0000
  H   H23       1.0  0.25761  0.53627  0.11315  1.0000
  H   H24       1.0  0.72132  0.46368  0.38683  1.0000
  H   H25       1.0  0.81393  0.67469  0.90734  1.0000
  H   H26       1.0  0.13943  0.32538  0.59264  1.0000
  H   H27       1.0  0.18608  0.32531  0.09266  1.0000
  H   H28       1.0  0.86057  0.67462  0.40736  1.0000
  H   H29       1.0  0.83986  0.57487  0.99461  1.0000
  H   H30       1.0  0.26492  0.42495  0.50544  1.0000
  H   H31       1.0  0.16016  0.42515  0.00539  1.0000
  H   H32       1.0  0.73509  0.57504  0.49456  1.0000
  H   H33       1.0  0.76196  0.37151  0.96527  1.0000
  H   H34       1.0  0.39052  0.62840  0.53472  1.0000
  H   H35       1.0  0.23806  0.62850  0.03473  1.0000
  H   H36       1.0  0.60949  0.37159  0.46529  1.0000
  H   H37       1.0  0.32380  0.63434  0.94213  1.0000
  H   H38       1.0  0.68941  0.36613  0.55790  1.0000
  H   H39       1.0  0.67623  0.36567  0.05787  1.0000
  H   H40       1.0  0.31060  0.63386  0.44210  1.0000
  H   H41       1.0  0.57976  0.73426  0.97999  1.0000
  H   H42       1.0  0.84510  0.26580  0.52008  1.0000
  H   H43       1.0  0.42027  0.26575  0.02001  1.0000
  H   H44       1.0  0.15491  0.73418  0.47992  1.0000
  H   H45       1.0  0.18098  0.76575  0.59480  1.0000
  H   H46       1.0  0.41480  0.23416  0.90512  1.0000
  H   H47       1.0  0.81903  0.23424  0.40520  1.0000
  H   H48       1.0  0.58520  0.76584  0.09488  1.0000
  H   H49       1.0  0.44991  0.90445  0.57448  1.0000
  H   H50       1.0  0.54550  0.09578  0.92544  1.0000
  H   H51       1.0  0.55010  0.09555  0.42551  1.0000
  H   H52       1.0  0.45449  0.90422  0.07456  1.0000
  H   H53       1.0  0.08006  0.00439  0.62958  1.0000
  H   H54       1.0  0.07558  0.99497  0.87043  1.0000
  H   H55       1.0  0.91994  0.99560  0.37042  1.0000
  H   H56       1.0  0.92441  0.00504  0.12957  1.0000
  H   H57       1.0  0.34779  0.14565  0.60816  1.0000
  H   H58       1.0  0.20260  0.85414  0.89193  1.0000
  H   H59       1.0  0.65220  0.85434  0.39183  1.0000
  H   H60       1.0  0.79739  0.14586  0.10807  1.0000
  H   H61       1.0  0.76119  0.87706  0.57410  1.0000
  H   H62       1.0  0.88291  0.12163  0.92575  1.0000
  H   H63       1.0  0.23879  0.12292  0.42590  1.0000
  H   H64       1.0  0.11707  0.87836  0.07425  1.0000
  H   H65       1.0  0.42351  0.14684  0.51193  1.0000
  H   H66       1.0  0.27806  0.85426  0.98825  1.0000
  H   H67       1.0  0.57647  0.85314  0.48807  1.0000
  H   H68       1.0  0.72193  0.14575  0.01175  1.0000
  C   C1        1.0  0.60424  0.71359  0.82735  1.0000
  C   C2        1.0  0.89054  0.28601  0.67262  1.0000
  C   C3        1.0  0.39575  0.28642  0.17266  1.0000
  C   C4        1.0  0.10946  0.71399  0.32738  1.0000
  C   C5        1.0  0.51479  0.57865  0.85838  1.0000
  C   C6        1.0  0.93633  0.42116  0.64165  1.0000
  C   C7        1.0  0.48519  0.42135  0.14162  1.0000
  C   C8        1.0  0.06366  0.57883  0.35835  1.0000
  C   C9        1.0  0.28649  0.47052  0.84859  1.0000
  C   C10       1.0  0.81641  0.52941  0.65152  1.0000
  C   C11       1.0  0.71348  0.52948  0.15140  1.0000
  C   C12       1.0  0.18358  0.47059  0.34848  1.0000
  C   C13       1.0  0.15999  0.50135  0.80897  1.0000
  C   C14       1.0  0.65880  0.49842  0.69108  1.0000
  C   C15       1.0  0.84001  0.49867  0.19102  1.0000
  C   C16       1.0  0.34120  0.50158  0.30892  1.0000
  C   C17       1.0  0.26334  0.64019  0.78021  1.0000
  C   C18       1.0  0.62291  0.35934  0.71975  1.0000
  C   C19       1.0  0.73668  0.35984  0.21979  1.0000
  C   C20       1.0  0.37709  0.64065  0.28025  1.0000
  C   C21       1.0  0.66632  0.55595  0.90009  1.0000
  C   C22       1.0  0.11044  0.44406  0.59991  1.0000
  C   C23       1.0  0.33368  0.44405  0.09990  1.0000
  C   C24       1.0  0.88955  0.55593  0.40009  1.0000
  C   C25       1.0  0.69145  0.46028  0.98326  1.0000
  C   C26       1.0  0.23121  0.53961  0.51675  1.0000
  C   C27       1.0  0.30857  0.53973  0.01674  1.0000
  C   C28       1.0  0.76880  0.46038  0.48325  1.0000
  C   C29       1.0  0.44230  0.61253  0.96966  1.0000
  C   C30       1.0  0.82966  0.38767  0.53036  1.0000
  C   C31       1.0  0.55772  0.38749  0.03034  1.0000
  C   C32       1.0  0.17034  0.61232  0.46964  1.0000
  C   C33       1.0  0.42416  0.88889  0.65524  1.0000
  C   C34       1.0  0.53471  0.11091  0.84469  1.0000
  C   C35       1.0  0.57585  0.11111  0.34476  1.0000
  C   C36       1.0  0.46528  0.88910  0.15531  1.0000
  C   C37       1.0  0.31762  0.88763  0.60351  1.0000
  C   C38       1.0  0.42972  0.11230  0.89644  1.0000
  C   C39       1.0  0.68238  0.11237  0.39649  1.0000
  C   C40       1.0  0.57029  0.88770  0.10356  1.0000
  C   C41       1.0  0.21176  0.02291  0.60020  1.0000
  C   C42       1.0  0.18888  0.97680  0.89983  1.0000
  C   C43       1.0  0.78824  0.97709  0.39979  1.0000
  C   C44       1.0  0.81111  0.02321  0.10017  1.0000
  C   C45       1.0  0.10309  0.01479  0.54872  1.0000
  C   C46       1.0  0.08829  0.98504  0.95129  1.0000
  C   C47       1.0  0.89693  0.98522  0.45128  1.0000
  C   C48       1.0  0.91170  0.01496  0.04871  1.0000
  C   C49       1.0  0.86483  0.93024  0.54124  1.0000
  C   C50       1.0  0.93376  0.06894  0.95868  1.0000
  C   C51       1.0  0.13518  0.06976  0.45876  1.0000
  C   C52       1.0  0.06623  0.93106  0.04133  1.0000
  C   C53       1.0  0.23685  0.08346  0.50678  1.0000
  C   C54       1.0  0.15422  0.91721  0.99331  1.0000
  C   C55       1.0  0.76315  0.91653  0.49321  1.0000
  C   C56       1.0  0.84577  0.08278  0.00669  1.0000
  N   N1        1.0  0.48267  0.74409  0.78933  1.0000
  N   N2        1.0  0.73830  0.25542  0.71061  1.0000
  N   N3        1.0  0.51735  0.25593  0.21067  1.0000
  N   N4        1.0  0.26170  0.74457  0.28939  1.0000
  N   N5        1.0  0.54076  0.49594  0.94641  1.0000
  N   N6        1.0  0.04485  0.50413  0.55360  1.0000
  N   N7        1.0  0.45926  0.50407  0.05359  1.0000
  N   N8        1.0  0.95516  0.49586  0.44640  1.0000
  O   O1        1.0  0.30773  0.90216  0.69447  1.0000
  O   O2        1.0  0.40489  0.09736  0.80547  1.0000
  O   O3        1.0  0.69226  0.09783  0.30553  1.0000
  O   O4        1.0  0.59510  0.90265  0.19454  1.0000
  O   O5        1.0  0.62563  0.88267  0.65891  1.0000
  O   O6        1.0  0.74247  0.11717  0.84100  1.0000
  O   O7        1.0  0.37437  0.11734  0.34109  1.0000
  O   O8        1.0  0.25751  0.88284  0.15900  1.0000
  O   O9        1.0  0.01605  0.99946  0.74999  1.0000
  O   O10       1.0  0.98394  0.00053  0.25001  1.0000
