data_image0
_chemical_formula_structural       Cd2H56C52N8O8
_chemical_formula_sum              "Cd2 H56 C52 N8 O8"
_cell_length_a       9.26815
_cell_length_b       11.5683
_cell_length_c       12.924
_cell_angle_alpha    89.6038
_cell_angle_beta     68.5763
_cell_angle_gamma    77.3828

_space_group_name_H-M_alt    "P 1"
_space_group_IT_number       1

loop_
  _space_group_symop_operation_xyz
  'x, y, z'

loop_
  _atom_site_type_symbol
  _atom_site_label
  _atom_site_symmetry_multiplicity
  _atom_site_fract_x
  _atom_site_fract_y
  _atom_site_fract_z
  _atom_site_occupancy
  Cd  Cd1       1.0  0.36675  0.63891  0.60030  1.0000
  Cd  Cd2       1.0  0.63325  0.36109  0.39970  1.0000
  H   H1        1.0  0.65264  0.50768  0.67162  1.0000
  H   H2        1.0  0.34736  0.49232  0.32838  1.0000
  H   H3        1.0  0.71054  0.37963  0.81511  1.0000
  H   H4        1.0  0.28946  0.62037  0.18489  1.0000
  H   H5        1.0  0.20604  0.40428  0.97428  1.0000
  H   H6        1.0  0.79395  0.59573  0.02572  1.0000
  H   H7        1.0  0.16907  0.53068  0.82084  1.0000
  H   H8        1.0  0.83093  0.46933  0.17916  1.0000
  H   H9        1.0  0.60771  0.23846  0.95334  1.0000
  H   H10       1.0  0.39229  0.76154  0.04666  1.0000
  H   H11       1.0  0.52208  0.36530  0.04951  1.0000
  H   H12       1.0  0.47792  0.63470  0.95049  1.0000
  H   H13       1.0  0.40968  0.28884  0.20849  1.0000
  H   H14       1.0  0.59032  0.71116  0.79151  1.0000
  H   H15       1.0  0.52054  0.15009  0.13360  1.0000
  H   H16       1.0  0.47946  0.84991  0.86640  1.0000
  H   H17       1.0  0.31447  0.11909  0.30437  1.0000
  H   H18       1.0  0.68553  0.88091  0.69563  1.0000
  H   H19       1.0  0.16103  0.21671  0.27132  1.0000
  H   H20       1.0  0.83897  0.78329  0.72868  1.0000
  H   H21       1.0  0.10421  0.15747  0.10916  1.0000
  H   H22       1.0  0.89579  0.84253  0.89083  1.0000
  H   H23       1.0  0.21943  0.01980  0.03056  1.0000
  H   H24       1.0  0.78057  0.98020  0.96944  1.0000
  H   H25       1.0  0.46350  0.09150  0.96380  1.0000
  H   H26       1.0  0.53650  0.90850  0.03620  1.0000
  H   H27       1.0  0.31053  0.19279  0.93481  1.0000
  H   H28       1.0  0.68947  0.80721  0.06519  1.0000
  H   H29       1.0  0.13703  0.92443  0.18654  1.0000
  H   H30       1.0  0.86297  0.07557  0.81346  1.0000
  H   H31       1.0  0.03959  0.04348  0.28951  1.0000
  H   H32       1.0  0.96041  0.95652  0.71049  1.0000
  H   H33       1.0  0.46917  0.89429  0.23229  1.0000
  H   H34       1.0  0.53083  0.10571  0.76771  1.0000
  H   H35       1.0  0.54611  0.75512  0.36285  1.0000
  H   H36       1.0  0.45389  0.24488  0.63715  1.0000
  H   H37       1.0  0.07456  0.76521  0.55433  1.0000
  H   H38       1.0  0.92544  0.23478  0.44567  1.0000
  H   H39       1.0  0.97863  0.90523  0.43205  1.0000
  H   H40       1.0  0.02137  0.09477  0.56796  1.0000
  H   H41       1.0  0.12363  0.97659  0.87079  1.0000
  H   H42       1.0  0.87638  0.02341  0.12921  1.0000
  H   H43       1.0  0.32909  0.97586  0.82874  1.0000
  H   H44       1.0  0.67091  0.02414  0.17126  1.0000
  H   H45       1.0  0.05061  0.19278  0.86712  1.0000
  H   H46       1.0  0.94940  0.80721  0.13287  1.0000
  H   H47       1.0  0.01441  0.36226  0.75267  1.0000
  H   H48       1.0  0.98559  0.63774  0.24733  1.0000
  H   H49       1.0  0.34404  0.14550  0.45709  1.0000
  H   H50       1.0  0.65596  0.85450  0.54291  1.0000
  H   H51       1.0  0.37517  0.97503  0.57031  1.0000
  H   H52       1.0  0.62483  0.02497  0.42969  1.0000
  H   H53       1.0  0.20972  0.33700  0.43817  1.0000
  H   H54       1.0  0.79028  0.66300  0.56183  1.0000
  H   H55       1.0  0.02060  0.39992  0.54331  1.0000
  H   H56       1.0  0.97940  0.60008  0.45669  1.0000
  C   C1        1.0  0.55721  0.48325  0.74057  1.0000
  C   C2        1.0  0.44279  0.51675  0.25943  1.0000
  C   C3        1.0  0.58809  0.41228  0.82047  1.0000
  C   C4        1.0  0.41191  0.58773  0.17953  1.0000
  C   C5        1.0  0.46145  0.38194  0.90660  1.0000
  C   C6        1.0  0.53854  0.61807  0.09340  1.0000
  C   C7        1.0  0.30749  0.42565  0.90800  1.0000
  C   C8        1.0  0.69251  0.57436  0.09200  1.0000
  C   C9        1.0  0.28661  0.49572  0.82409  1.0000
  C   C10       1.0  0.71339  0.50428  0.17591  1.0000
  C   C11       1.0  0.49538  0.30767  0.99459  1.0000
  C   C12       1.0  0.50462  0.69233  0.00541  1.0000
  C   C13       1.0  0.40232  0.21355  0.16099  1.0000
  C   C14       1.0  0.59768  0.78645  0.83901  1.0000
  C   C15       1.0  0.27828  0.15214  0.23559  1.0000
  C   C16       1.0  0.72172  0.84786  0.76441  1.0000
  C   C17       1.0  0.22400  0.09616  0.07874  1.0000
  C   C18       1.0  0.77600  0.90384  0.92126  1.0000
  C   C19       1.0  0.34808  0.15758  0.00269  1.0000
  C   C20       1.0  0.65192  0.84242  0.99731  1.0000
  C   C21       1.0  0.15841  0.98543  0.24180  1.0000
  C   C22       1.0  0.84159  0.01457  0.75820  1.0000
  C   C23       1.0  0.21694  0.90999  0.32052  1.0000
  C   C24       1.0  0.78306  0.09001  0.67948  1.0000
  C   C25       1.0  0.37820  0.86772  0.30282  1.0000
  C   C26       1.0  0.62180  0.13228  0.69718  1.0000
  C   C27       1.0  0.42130  0.79047  0.37532  1.0000
  C   C28       1.0  0.57870  0.20953  0.62468  1.0000
  C   C29       1.0  0.15778  0.79647  0.48201  1.0000
  C   C30       1.0  0.84222  0.20353  0.51800  1.0000
  C   C31       1.0  0.10573  0.87378  0.41359  1.0000
  C   C32       1.0  0.89427  0.12622  0.58641  1.0000
  C   C33       1.0  0.28066  0.84773  0.73466  1.0000
  C   C34       1.0  0.71934  0.15227  0.26534  1.0000
  C   C35       1.0  0.23463  0.96936  0.79801  1.0000
  C   C36       1.0  0.76537  0.03064  0.20199  1.0000
  C   C37       1.0  0.21463  0.07118  0.72654  1.0000
  C   C38       1.0  0.78537  0.92882  0.27346  1.0000
  C   C39       1.0  0.11418  0.18174  0.77668  1.0000
  C   C40       1.0  0.88582  0.81826  0.22332  1.0000
  C   C41       1.0  0.09320  0.27681  0.71261  1.0000
  C   C42       1.0  0.90680  0.72319  0.28739  1.0000
  C   C43       1.0  0.17284  0.26438  0.59635  1.0000
  C   C44       1.0  0.82716  0.73562  0.40365  1.0000
  C   C45       1.0  0.27602  0.15526  0.54669  1.0000
  C   C46       1.0  0.72398  0.84474  0.45331  1.0000
  C   C47       1.0  0.29556  0.05975  0.61070  1.0000
  C   C48       1.0  0.70444  0.94025  0.38930  1.0000
  C   C49       1.0  0.14777  0.36677  0.52701  1.0000
  C   C50       1.0  0.85223  0.63323  0.47299  1.0000
  C   C51       1.0  0.21271  0.46725  0.55537  1.0000
  C   C52       1.0  0.78729  0.53275  0.44463  1.0000
  N   N1        1.0  0.40913  0.52407  0.74170  1.0000
  N   N2        1.0  0.59087  0.47594  0.25830  1.0000
  N   N3        1.0  0.36691  0.25605  0.06408  1.0000
  N   N4        1.0  0.63309  0.74395  0.93592  1.0000
  N   N5        1.0  0.26871  0.05181  0.17197  1.0000
  N   N6        1.0  0.73129  0.94819  0.82803  1.0000
  N   N7        1.0  0.31344  0.75452  0.46331  1.0000
  N   N8        1.0  0.68655  0.24548  0.53669  1.0000
  O   O1        1.0  0.17240  0.79256  0.74461  1.0000
  O   O2        1.0  0.82761  0.20744  0.25539  1.0000
  O   O3        1.0  0.42655  0.80845  0.67124  1.0000
  O   O4        1.0  0.57345  0.19154  0.32876  1.0000
  O   O5        1.0  0.36433  0.45773  0.51066  1.0000
  O   O6        1.0  0.63567  0.54227  0.48934  1.0000
  O   O7        1.0  0.12056  0.55410  0.62247  1.0000
  O   O8        1.0  0.87945  0.44590  0.37753  1.0000
