data_image0
_chemical_formula_structural       Zn2H34C26S2N6O14
_chemical_formula_sum              "Zn2 H34 C26 S2 N6 O14"
_cell_length_a       7.48332
_cell_length_b       10.1081
_cell_length_c       13.0628
_cell_angle_alpha    69.4272
_cell_angle_beta     82.9017
_cell_angle_gamma    68.6016

_space_group_name_H-M_alt    "P 1"
_space_group_IT_number       1

loop_
  _space_group_symop_operation_xyz
  'x, y, z'

loop_
  _atom_site_type_symbol
  _atom_site_label
  _atom_site_symmetry_multiplicity
  _atom_site_fract_x
  _atom_site_fract_y
  _atom_site_fract_z
  _atom_site_occupancy
  Zn  Zn1       1.0  0.87650  0.34119  0.53061  1.0000
  Zn  Zn2       1.0  0.12656  0.74187  0.60752  1.0000
  H   H1        1.0  0.23936  0.31113  0.48255  1.0000
  H   H2        1.0  0.19077  0.34995  0.59712  1.0000
  H   H3        1.0  0.75517  0.89432  0.64700  1.0000
  H   H4        1.0  0.83245  0.97851  0.52922  1.0000
  H   H5        1.0  0.41039  0.08008  0.58285  1.0000
  H   H6        1.0  0.31409  0.95993  0.77717  1.0000
  H   H7        1.0  0.14000  0.14019  0.77086  1.0000
  H   H8        1.0  0.58550  0.82446  0.55435  1.0000
  H   H9        1.0  0.70202  0.81883  0.35956  1.0000
  H   H10       1.0  0.86471  0.90586  0.37138  1.0000
  H   H11       1.0  0.08579  0.20649  0.36044  1.0000
  H   H12       1.0  0.16923  0.28021  0.16535  1.0000
  H   H13       1.0  0.76587  0.72924  0.13075  1.0000
  H   H14       1.0  0.70529  0.63496  0.33037  1.0000
  H   H15       1.0  0.10708  0.34028  0.99351  1.0000
  H   H16       1.0  0.16563  0.43421  0.79524  1.0000
  H   H17       1.0  0.00475  0.87331  0.79245  1.0000
  H   H18       1.0  0.94142  0.79935  0.99151  1.0000
  H   H19       1.0  0.60196  0.26521  0.47842  1.0000
  H   H20       1.0  0.53699  0.30788  0.58717  1.0000
  H   H21       1.0  0.21694  0.78354  0.37750  1.0000
  H   H22       1.0  0.24894  0.90380  0.41984  1.0000
  H   H23       1.0  0.51490  0.58831  0.58293  1.0000
  H   H24       1.0  0.42216  0.47641  0.67037  1.0000
  H   H25       1.0  0.77675  0.32499  0.75270  1.0000
  H   H26       1.0  0.77962  0.17979  0.72567  1.0000
  H   H27       1.0  0.35796  0.49810  0.37227  1.0000
  H   H28       1.0  0.49211  0.38676  0.22686  1.0000
  H   H29       1.0  0.35860  0.84338  0.99843  1.0000
  H   H30       1.0  0.22959  0.93267  0.15469  1.0000
  H   H31       1.0  0.50453  0.31803  0.09510  1.0000
  H   H32       1.0  0.64392  0.22159  0.94400  1.0000
  H   H33       1.0  0.70436  0.62694  0.75152  1.0000
  H   H34       1.0  0.56794  0.74364  0.89423  1.0000
  C   C1        1.0  0.15301  0.03372  0.59377  1.0000
  C   C2        1.0  0.26550  0.12223  0.61502  1.0000
  C   C3        1.0  0.27772  0.08214  0.73884  1.0000
  C   C4        1.0  0.84377  0.64149  0.54871  1.0000
  C   C5        1.0  0.73353  0.81188  0.52502  1.0000
  C   C6        1.0  0.72854  0.88779  0.40046  1.0000
  C   C7        1.0  0.01759  0.32129  0.30687  1.0000
  C   C8        1.0  0.06180  0.36372  0.19635  1.0000
  C   C9        1.0  0.97442  0.51292  0.12906  1.0000
  C   C10       1.0  0.84352  0.61278  0.17843  1.0000
  C   C11       1.0  0.80799  0.56131  0.28974  1.0000
  C   C12       1.0  0.01681  0.56222  0.01120  1.0000
  C   C13       1.0  0.08337  0.45977  0.95351  1.0000
  C   C14       1.0  0.11534  0.51161  0.84177  1.0000
  C   C15       1.0  0.02628  0.75614  0.84037  1.0000
  C   C16       1.0  0.98967  0.71387  0.95185  1.0000
  C   C17       1.0  0.35510  0.57052  0.28740  1.0000
  C   C18       1.0  0.43131  0.50883  0.20500  1.0000
  C   C19       1.0  0.43508  0.60484  0.09727  1.0000
  C   C20       1.0  0.35968  0.76068  0.07913  1.0000
  C   C21       1.0  0.28640  0.81212  0.16685  1.0000
  C   C22       1.0  0.51920  0.54249  0.00829  1.0000
  C   C23       1.0  0.54533  0.39282  0.02072  1.0000
  C   C24       1.0  0.62680  0.33669  0.93623  1.0000
  C   C25       1.0  0.65739  0.56244  0.82892  1.0000
  C   C26       1.0  0.57798  0.62815  0.90898  1.0000
  S   S1        1.0  0.45609  0.12949  0.78277  1.0000
  S   S2        1.0  0.53700  0.06568  0.35336  1.0000
  N   N1        1.0  0.17425  0.28460  0.55675  1.0000
  N   N2        1.0  0.82700  0.87564  0.57858  1.0000
  N   N3        1.0  0.89464  0.41836  0.35387  1.0000
  N   N4        1.0  0.08689  0.65750  0.78540  1.0000
  N   N5        1.0  0.28317  0.71944  0.26974  1.0000
  N   N6        1.0  0.68299  0.41907  0.84146  1.0000
  O   O1        1.0  0.99273  0.10469  0.54461  1.0000
  O   O2        1.0  0.23305  0.89163  0.63108  1.0000
  O   O3        1.0  0.42791  0.10253  0.89979  1.0000
  O   O4        1.0  0.64607  0.03766  0.75287  1.0000
  O   O5        1.0  0.41464  0.29189  0.71653  1.0000
  O   O6        1.0  0.01545  0.58511  0.58158  1.0000
  O   O7        1.0  0.75064  0.56826  0.52948  1.0000
  O   O8        1.0  0.36077  0.03314  0.39737  1.0000
  O   O9        1.0  0.54723  0.11504  0.23409  1.0000
  O   O10       1.0  0.57048  0.16764  0.40101  1.0000
  O   O11       1.0  0.59835  0.33683  0.51509  1.0000
  O   O12       1.0  0.84155  0.25604  0.70742  1.0000
  O   O13       1.0  0.17603  0.83462  0.43501  1.0000
  O   O14       1.0  0.40512  0.58327  0.63298  1.0000
