data_image0
_chemical_formula_structural       Zn2H44C64N20O8
_chemical_formula_sum              "Zn2 H44 C64 N20 O8"
_cell_length_a       9.46635
_cell_length_b       11.9828
_cell_length_c       14.149
_cell_angle_alpha    78.0483
_cell_angle_beta     88.7455
_cell_angle_gamma    88.7974

_space_group_name_H-M_alt    "P 1"
_space_group_IT_number       1

loop_
  _space_group_symop_operation_xyz
  'x, y, z'

loop_
  _atom_site_type_symbol
  _atom_site_label
  _atom_site_symmetry_multiplicity
  _atom_site_fract_x
  _atom_site_fract_y
  _atom_site_fract_z
  _atom_site_occupancy
  Zn  Zn1       1.0  0.15567  0.44122  0.82373  1.0000
  Zn  Zn2       1.0  0.84433  0.55878  0.17628  1.0000
  H   H1        1.0  0.31926  0.31540  0.01765  1.0000
  H   H2        1.0  0.68075  0.68459  0.98236  1.0000
  H   H3        1.0  0.24450  0.66449  0.90834  1.0000
  H   H4        1.0  0.75549  0.33551  0.09167  1.0000
  H   H5        1.0  0.07645  0.51945  0.34416  1.0000
  H   H6        1.0  0.92356  0.48055  0.65584  1.0000
  H   H7        1.0  0.02916  0.34110  0.11871  1.0000
  H   H8        1.0  0.97083  0.65891  0.88129  1.0000
  H   H9        1.0  0.39325  0.53181  0.22657  1.0000
  H   H10       1.0  0.60674  0.46818  0.77344  1.0000
  H   H11       1.0  0.44152  0.67742  0.32287  1.0000
  H   H12       1.0  0.55847  0.32258  0.67714  1.0000
  H   H13       1.0  0.39683  0.94315  0.06741  1.0000
  H   H14       1.0  0.60317  0.05685  0.93258  1.0000
  H   H15       1.0  0.35196  0.79836  0.97129  1.0000
  H   H16       1.0  0.64806  0.20163  0.02871  1.0000
  H   H17       1.0  0.68182  0.89664  0.54351  1.0000
  H   H18       1.0  0.31818  0.10337  0.45648  1.0000
  H   H19       1.0  0.47108  0.93000  0.44101  1.0000
  H   H20       1.0  0.52891  0.06999  0.55899  1.0000
  H   H21       1.0  0.70314  0.80742  0.21621  1.0000
  H   H22       1.0  0.29684  0.19258  0.78378  1.0000
  H   H23       1.0  0.91524  0.77925  0.31641  1.0000
  H   H24       1.0  0.08475  0.22075  0.68358  1.0000
  H   H25       1.0  0.57016  0.09847  0.27649  1.0000
  H   H26       1.0  0.42984  0.90153  0.72350  1.0000
  H   H27       1.0  0.44361  0.28184  0.26815  1.0000
  H   H28       1.0  0.55640  0.71816  0.73184  1.0000
  H   H29       1.0  0.05666  0.12624  0.20873  1.0000
  H   H30       1.0  0.94334  0.87377  0.79126  1.0000
  H   H31       1.0  0.18440  0.94346  0.21231  1.0000
  H   H32       1.0  0.81559  0.05654  0.78769  1.0000
  H   H33       1.0  0.56720  0.64469  0.59329  1.0000
  H   H34       1.0  0.43280  0.35533  0.40671  1.0000
  H   H35       1.0  0.29111  0.37923  0.55227  1.0000
  H   H36       1.0  0.70888  0.62078  0.44773  1.0000
  H   H37       1.0  0.14917  0.07904  0.85637  1.0000
  H   H38       1.0  0.85083  0.92097  0.14364  1.0000
  H   H39       1.0  0.88123  0.13170  0.09213  1.0000
  H   H40       1.0  0.11877  0.86831  0.90788  1.0000
  H   H41       1.0  0.89870  0.94017  0.58997  1.0000
  H   H42       1.0  0.10131  0.05983  0.41002  1.0000
  H   H43       1.0  0.23985  0.72561  0.55025  1.0000
  H   H44       1.0  0.76014  0.27438  0.44974  1.0000
  C   C1        1.0  0.31571  0.40720  0.01093  1.0000
  C   C2        1.0  0.68430  0.59280  0.98907  1.0000
  C   C3        1.0  0.27734  0.58422  0.95307  1.0000
  C   C4        1.0  0.72266  0.41578  0.04694  1.0000
  C   C5        1.0  0.09082  0.45730  0.29864  1.0000
  C   C6        1.0  0.90919  0.54271  0.70136  1.0000
  C   C7        1.0  0.06177  0.36749  0.18426  1.0000
  C   C8        1.0  0.93823  0.63251  0.81574  1.0000
  C   C9        1.0  0.36811  0.65588  0.09363  1.0000
  C   C10       1.0  0.63189  0.34411  0.90638  1.0000
  C   C11       1.0  0.39412  0.62190  0.19241  1.0000
  C   C12       1.0  0.60588  0.37810  0.80759  1.0000
  C   C13       1.0  0.42058  0.70380  0.24598  1.0000
  C   C14       1.0  0.57942  0.29620  0.75402  1.0000
  C   C15       1.0  0.42217  0.82010  0.20200  1.0000
  C   C16       1.0  0.57782  0.17989  0.79800  1.0000
  C   C17       1.0  0.39546  0.85316  0.10267  1.0000
  C   C18       1.0  0.60454  0.14684  0.89733  1.0000
  C   C19       1.0  0.36912  0.77144  0.04859  1.0000
  C   C20       1.0  0.63088  0.22855  0.95142  1.0000
  C   C21       1.0  0.81449  0.84173  0.43422  1.0000
  C   C22       1.0  0.18550  0.15827  0.56577  1.0000
  C   C23       1.0  0.68848  0.88212  0.47004  1.0000
  C   C24       1.0  0.31152  0.11788  0.52995  1.0000
  C   C25       1.0  0.56943  0.89973  0.41277  1.0000
  C   C26       1.0  0.43057  0.10027  0.58723  1.0000
  C   C27       1.0  0.57498  0.87718  0.31926  1.0000
  C   C28       1.0  0.42501  0.12282  0.68074  1.0000
  C   C29       1.0  0.69912  0.83112  0.28647  1.0000
  C   C30       1.0  0.30087  0.16888  0.71353  1.0000
  C   C31       1.0  0.81883  0.81410  0.34305  1.0000
  C   C32       1.0  0.18116  0.18591  0.65694  1.0000
  C   C33       1.0  0.38619  0.00694  0.24656  1.0000
  C   C34       1.0  0.61381  0.99306  0.75343  1.0000
  C   C35       1.0  0.45772  0.10424  0.26078  1.0000
  C   C36       1.0  0.54228  0.89576  0.73922  1.0000
  C   C37       1.0  0.38623  0.20753  0.25723  1.0000
  C   C38       1.0  0.61377  0.79247  0.74276  1.0000
  C   C39       1.0  0.24148  0.21437  0.23879  1.0000
  C   C40       1.0  0.75853  0.78564  0.76121  1.0000
  C   C41       1.0  0.17012  0.12040  0.22029  1.0000
  C   C42       1.0  0.82988  0.87960  0.77970  1.0000
  C   C43       1.0  0.24178  0.01734  0.22363  1.0000
  C   C44       1.0  0.75822  0.98266  0.77637  1.0000
  C   C45       1.0  0.33887  0.52401  0.67153  1.0000
  C   C46       1.0  0.66112  0.47600  0.32847  1.0000
  C   C47       1.0  0.03694  0.24475  0.94230  1.0000
  C   C48       1.0  0.96306  0.75525  0.05771  1.0000
  C   C49       1.0  0.53755  0.58213  0.55183  1.0000
  C   C50       1.0  0.46245  0.41788  0.44817  1.0000
  C   C51       1.0  0.42004  0.51366  0.58135  1.0000
  C   C52       1.0  0.57996  0.48635  0.41865  1.0000
  C   C53       1.0  0.38275  0.43176  0.52873  1.0000
  C   C54       1.0  0.61724  0.56825  0.47126  1.0000
  C   C55       1.0  0.08431  0.04391  0.91939  1.0000
  C   C56       1.0  0.91570  0.95609  0.08061  1.0000
  C   C57       1.0  0.01716  0.11825  0.97139  1.0000
  C   C58       1.0  0.98285  0.88174  0.02862  1.0000
  C   C59       1.0  0.93262  0.07321  0.05204  1.0000
  C   C60       1.0  0.06738  0.92680  0.94797  1.0000
  C   C61       1.0  0.96866  0.87913  0.56505  1.0000
  C   C62       1.0  0.03134  0.12087  0.43494  1.0000
  C   C63       1.0  0.13914  0.77134  0.54184  1.0000
  C   C64       1.0  0.86085  0.22864  0.45815  1.0000
  N   N1        1.0  0.09521  0.84459  0.59954  1.0000
  N   N2        1.0  0.90479  0.15540  0.40045  1.0000
  N   N3        1.0  0.04791  0.75885  0.47452  1.0000
  N   N4        1.0  0.95208  0.24114  0.52547  1.0000
  N   N5        1.0  0.26121  0.48130  0.93306  1.0000
  N   N6        1.0  0.73879  0.51869  0.06695  1.0000
  N   N7        1.0  0.36429  0.45844  0.07748  1.0000
  N   N8        1.0  0.63573  0.54155  0.92252  1.0000
  N   N9        1.0  0.33812  0.57161  0.03997  1.0000
  N   N10       1.0  0.66188  0.42838  0.96004  1.0000
  N   N11       1.0  0.01344  0.45785  0.21779  1.0000
  N   N12       1.0  0.98655  0.54215  0.78221  1.0000
  N   N13       1.0  0.18428  0.37225  0.31640  1.0000
  N   N14       1.0  0.81572  0.62775  0.68360  1.0000
  N   N15       1.0  0.16389  0.31583  0.24320  1.0000
  N   N16       1.0  0.83612  0.68418  0.75679  1.0000
  N   N17       1.0  0.93756  0.82838  0.49068  1.0000
  N   N18       1.0  0.06244  0.17162  0.50931  1.0000
  N   N19       1.0  0.45668  0.90094  0.25756  1.0000
  N   N20       1.0  0.54331  0.09906  0.74244  1.0000
  O   O1        1.0  0.11409  0.27749  0.86521  1.0000
  O   O2        1.0  0.88593  0.72251  0.13480  1.0000
  O   O3        1.0  0.98214  0.31024  0.99205  1.0000
  O   O4        1.0  0.01786  0.68976  0.00795  1.0000
  O   O5        1.0  0.25394  0.43961  0.70256  1.0000
  O   O6        1.0  0.74605  0.56040  0.29744  1.0000
  O   O7        1.0  0.35642  0.60609  0.71200  1.0000
  O   O8        1.0  0.64359  0.39392  0.28800  1.0000
