data_image0
_chemical_formula_structural       Zn2H12C20N8O10
_chemical_formula_sum              "Zn2 H12 C20 N8 O10"
_cell_length_a       7.33711
_cell_length_b       8.04363
_cell_length_c       9.6597
_cell_angle_alpha    112.563
_cell_angle_beta     104.942
_cell_angle_gamma    94.3349

_space_group_name_H-M_alt    "P 1"
_space_group_IT_number       1

loop_
  _space_group_symop_operation_xyz
  'x, y, z'

loop_
  _atom_site_type_symbol
  _atom_site_label
  _atom_site_symmetry_multiplicity
  _atom_site_fract_x
  _atom_site_fract_y
  _atom_site_fract_z
  _atom_site_occupancy
  Zn  Zn1       1.0  0.44643  0.65310  0.89542  1.0000
  Zn  Zn2       1.0  0.55357  0.34690  0.10459  1.0000
  H   H1        1.0  0.81547  0.71997  0.49203  1.0000
  H   H2        1.0  0.18453  0.28002  0.50797  1.0000
  H   H3        1.0  0.66323  0.08728  0.78492  1.0000
  H   H4        1.0  0.33677  0.91271  0.21508  1.0000
  H   H5        1.0  0.14556  0.41932  0.33332  1.0000
  H   H6        1.0  0.85443  0.58068  0.66667  1.0000
  H   H7        1.0  0.77336  0.92406  0.98037  1.0000
  H   H8        1.0  0.22664  0.07595  0.01963  1.0000
  H   H9        1.0  0.19035  0.65442  0.04728  1.0000
  H   H10       1.0  0.80965  0.34558  0.95271  1.0000
  H   H11       1.0  0.11095  0.73305  0.91078  1.0000
  H   H12       1.0  0.88904  0.26695  0.08922  1.0000
  C   C1        1.0  0.86590  0.87082  0.35983  1.0000
  C   C2        1.0  0.13410  0.12917  0.64017  1.0000
  C   C3        1.0  0.71763  0.74349  0.21426  1.0000
  C   C4        1.0  0.28236  0.25651  0.78574  1.0000
  C   C5        1.0  0.89726  0.84236  0.49722  1.0000
  C   C6        1.0  0.10275  0.15763  0.50278  1.0000
  C   C7        1.0  0.97000  0.02855  0.36240  1.0000
  C   C8        1.0  0.03001  0.97144  0.63760  1.0000
  C   C9        1.0  0.93885  0.05018  0.21490  1.0000
  C   C10       1.0  0.06116  0.94983  0.78510  1.0000
  C   C11       1.0  0.59350  0.04928  0.66024  1.0000
  C   C12       1.0  0.40650  0.95071  0.33976  1.0000
  C   C13       1.0  0.42509  0.75578  0.63945  1.0000
  C   C14       1.0  0.57491  0.24422  0.36055  1.0000
  C   C15       1.0  0.24454  0.65154  0.31374  1.0000
  C   C16       1.0  0.75545  0.34846  0.68626  1.0000
  C   C17       1.0  0.46672  0.88068  0.56976  1.0000
  C   C18       1.0  0.53327  0.11932  0.43024  1.0000
  C   C19       1.0  0.37300  0.83078  0.40728  1.0000
  C   C20       1.0  0.62699  0.16922  0.59272  1.0000
  N   N1        1.0  0.22523  0.55113  0.39615  1.0000
  N   N2        1.0  0.77477  0.44887  0.60385  1.0000
  N   N3        1.0  0.30612  0.59615  0.55308  1.0000
  N   N4        1.0  0.69388  0.40386  0.44692  1.0000
  N   N5        1.0  0.68955  0.77290  0.08446  1.0000
  N   N6        1.0  0.31045  0.22710  0.91554  1.0000
  N   N7        1.0  0.80410  0.91813  0.08801  1.0000
  N   N8        1.0  0.19590  0.08187  0.91199  1.0000
  O   O1        1.0  0.50553  0.80584  0.79117  1.0000
  O   O2        1.0  0.49448  0.19416  0.20883  1.0000
  O   O3        1.0  0.15376  0.58609  0.16774  1.0000
  O   O4        1.0  0.84624  0.41391  0.83226  1.0000
  O   O5        1.0  0.60665  0.61264  0.21459  1.0000
  O   O6        1.0  0.39334  0.38736  0.78541  1.0000
  O   O7        1.0  0.03094  0.18013  0.20147  1.0000
  O   O8        1.0  0.96906  0.81987  0.79854  1.0000
  O   O9        1.0  0.22670  0.71062  0.97665  1.0000
  O   O10       1.0  0.77329  0.28938  0.02335  1.0000
