data_image0
_chemical_formula_structural       Cd2H24C44N12O8
_chemical_formula_sum              "Cd2 H24 C44 N12 O8"
_cell_length_a       9.74477
_cell_length_b       10.4424
_cell_length_c       10.8613
_cell_angle_alpha    85.9636
_cell_angle_beta     65.8305
_cell_angle_gamma    71.0799

_space_group_name_H-M_alt    "P 1"
_space_group_IT_number       1

loop_
  _space_group_symop_operation_xyz
  'x, y, z'

loop_
  _atom_site_type_symbol
  _atom_site_label
  _atom_site_symmetry_multiplicity
  _atom_site_fract_x
  _atom_site_fract_y
  _atom_site_fract_z
  _atom_site_occupancy
  Cd  Cd1       1.0  0.35115  0.57531  0.17206  1.0000
  Cd  Cd2       1.0  0.64885  0.42469  0.82794  1.0000
  H   H1        1.0  0.67379  0.83037  0.22366  1.0000
  H   H2        1.0  0.32621  0.16963  0.77634  1.0000
  H   H3        1.0  0.34882  0.25074  0.09763  1.0000
  H   H4        1.0  0.65118  0.74926  0.90237  1.0000
  H   H5        1.0  0.50561  0.43549  0.38796  1.0000
  H   H6        1.0  0.49439  0.56451  0.61204  1.0000
  H   H7        1.0  0.47925  0.25687  0.55631  1.0000
  H   H8        1.0  0.52075  0.74313  0.44369  1.0000
  H   H9        1.0  0.25710  0.15874  0.60851  1.0000
  H   H10       1.0  0.74290  0.84126  0.39149  1.0000
  H   H11       1.0  0.05259  0.64598  0.07728  1.0000
  H   H12       1.0  0.94741  0.35402  0.92272  1.0000
  H   H13       1.0  0.80972  0.57609  0.13014  1.0000
  H   H14       1.0  0.19028  0.42391  0.86986  1.0000
  H   H15       1.0  0.75820  0.40278  0.29653  1.0000
  H   H16       1.0  0.24180  0.59722  0.70347  1.0000
  H   H17       1.0  0.83377  0.25195  0.46532  1.0000
  H   H18       1.0  0.16623  0.74805  0.53468  1.0000
  H   H19       1.0  0.02014  0.16008  0.57567  1.0000
  H   H20       1.0  0.97986  0.83992  0.42433  1.0000
  H   H21       1.0  0.07349  0.93195  0.18540  1.0000
  H   H22       1.0  0.92651  0.06805  0.81460  1.0000
  H   H23       1.0  0.95202  0.14801  0.13035  1.0000
  H   H24       1.0  0.04798  0.85199  0.86965  1.0000
  C   C1        1.0  0.40670  0.80832  0.21993  1.0000
  C   C2        1.0  0.59330  0.19168  0.78007  1.0000
  C   C3        1.0  0.21615  0.05198  0.15573  1.0000
  C   C4        1.0  0.78385  0.94802  0.84427  1.0000
  C   C5        1.0  0.45641  0.92921  0.19917  1.0000
  C   C6        1.0  0.54359  0.07079  0.80083  1.0000
  C   C7        1.0  0.36389  0.04941  0.16369  1.0000
  C   C8        1.0  0.63611  0.95059  0.83631  1.0000
  C   C9        1.0  0.59939  0.92439  0.20274  1.0000
  C   C10       1.0  0.40061  0.07561  0.79725  1.0000
  C   C11       1.0  0.41703  0.16130  0.13039  1.0000
  C   C12       1.0  0.58297  0.83870  0.86960  1.0000
  C   C13       1.0  0.65050  0.03751  0.17296  1.0000
  C   C14       1.0  0.34950  0.96249  0.82704  1.0000
  C   C15       1.0  0.56021  0.15685  0.13458  1.0000
  C   C16       1.0  0.43979  0.84315  0.86542  1.0000
  C   C17       1.0  0.80137  0.03325  0.17422  1.0000
  C   C18       1.0  0.19863  0.96675  0.82578  1.0000
  C   C19       1.0  0.62446  0.26891  0.09305  1.0000
  C   C20       1.0  0.37554  0.73109  0.90695  1.0000
  C   C21       1.0  0.41269  0.38909  0.41339  1.0000
  C   C22       1.0  0.58731  0.61091  0.58661  1.0000
  C   C23       1.0  0.39898  0.28770  0.50529  1.0000
  C   C24       1.0  0.60102  0.71230  0.49471  1.0000
  C   C25       1.0  0.27665  0.23485  0.53478  1.0000
  C   C26       1.0  0.72336  0.76515  0.46522  1.0000
  C   C27       1.0  0.16924  0.28374  0.47276  1.0000
  C   C28       1.0  0.83076  0.71626  0.52724  1.0000
  C   C29       1.0  0.19370  0.38534  0.37960  1.0000
  C   C30       1.0  0.80630  0.61466  0.62040  1.0000
  C   C31       1.0  0.08834  0.43574  0.31135  1.0000
  C   C32       1.0  0.91166  0.56426  0.68865  1.0000
  C   C33       1.0  0.02105  0.57438  0.15358  1.0000
  C   C34       1.0  0.97894  0.42562  0.84642  1.0000
  C   C35       1.0  0.88787  0.53361  0.18176  1.0000
  C   C36       1.0  0.11213  0.46639  0.81824  1.0000
  C   C37       1.0  0.85779  0.43918  0.27607  1.0000
  C   C38       1.0  0.14221  0.56082  0.72393  1.0000
  C   C39       1.0  0.95841  0.38674  0.34387  1.0000
  C   C40       1.0  0.04159  0.61326  0.65613  1.0000
  C   C41       1.0  0.93536  0.28696  0.44095  1.0000
  C   C42       1.0  0.06464  0.71304  0.55905  1.0000
  C   C43       1.0  0.03772  0.23608  0.50194  1.0000
  C   C44       1.0  0.96228  0.76392  0.49806  1.0000
  N   N1        1.0  0.27104  0.81564  0.21229  1.0000
  N   N2        1.0  0.72896  0.18436  0.78771  1.0000
  N   N3        1.0  0.18114  0.93473  0.18322  1.0000
  N   N4        1.0  0.81886  0.06527  0.81678  1.0000
  N   N5        1.0  0.84299  0.14637  0.13441  1.0000
  N   N6        1.0  0.15701  0.85363  0.86559  1.0000
  N   N7        1.0  0.76230  0.26150  0.09303  1.0000
  N   N8        1.0  0.23770  0.73851  0.90697  1.0000
  N   N9        1.0  0.31386  0.43580  0.35260  1.0000
  N   N10       1.0  0.68614  0.56420  0.64740  1.0000
  N   N11       1.0  0.11799  0.52649  0.21646  1.0000
  N   N12       1.0  0.88201  0.47351  0.78354  1.0000
  O   O1        1.0  0.49271  0.69205  0.23868  1.0000
  O   O2        1.0  0.50729  0.30795  0.76132  1.0000
  O   O3        1.0  0.54679  0.37724  0.05039  1.0000
  O   O4        1.0  0.45320  0.62276  0.94961  1.0000
  O   O5        1.0  0.12695  0.15439  0.12496  1.0000
  O   O6        1.0  0.87305  0.84561  0.87504  1.0000
  O   O7        1.0  0.88873  0.93262  0.20955  1.0000
  O   O8        1.0  0.11127  0.06738  0.79045  1.0000
