data_image0
_chemical_formula_structural       Ag4H20C24S2N4O10
_chemical_formula_sum              "Ag4 H20 C24 S2 N4 O10"
_cell_length_a       8.12342
_cell_length_b       8.68195
_cell_length_c       11.0837
_cell_angle_alpha    94.6445
_cell_angle_beta     96.6319
_cell_angle_gamma    109.241

_space_group_name_H-M_alt    "P 1"
_space_group_IT_number       1

loop_
  _space_group_symop_operation_xyz
  'x, y, z'

loop_
  _atom_site_type_symbol
  _atom_site_label
  _atom_site_symmetry_multiplicity
  _atom_site_fract_x
  _atom_site_fract_y
  _atom_site_fract_z
  _atom_site_occupancy
  Ag  Ag1       1.0  0.41881  0.96030  0.12534  1.0000
  Ag  Ag2       1.0  0.58119  0.03970  0.87466  1.0000
  Ag  Ag3       1.0  0.41992  0.24989  0.03105  1.0000
  Ag  Ag4       1.0  0.58008  0.75011  0.96895  1.0000
  H   H1        1.0  0.74818  0.29243  0.10089  1.0000
  H   H2        1.0  0.25183  0.70757  0.89911  1.0000
  H   H3        1.0  0.72093  0.46670  0.16402  1.0000
  H   H4        1.0  0.27907  0.53330  0.83599  1.0000
  H   H5        1.0  0.10680  0.36467  0.08914  1.0000
  H   H6        1.0  0.89320  0.63533  0.91086  1.0000
  H   H7        1.0  0.96834  0.96583  0.30670  1.0000
  H   H8        1.0  0.03166  0.03417  0.69330  1.0000
  H   H9        1.0  0.73243  0.11278  0.57848  1.0000
  H   H10       1.0  0.26756  0.88721  0.42152  1.0000
  H   H11       1.0  0.41096  0.40611  0.44449  1.0000
  H   H12       1.0  0.58904  0.59389  0.55551  1.0000
  H   H13       1.0  0.82558  0.52707  0.37362  1.0000
  H   H14       1.0  0.17443  0.47293  0.62639  1.0000
  H   H15       1.0  0.58129  0.92975  0.38113  1.0000
  H   H16       1.0  0.41870  0.07025  0.61887  1.0000
  H   H17       1.0  0.21226  0.13406  0.47538  1.0000
  H   H18       1.0  0.78774  0.86595  0.52462  1.0000
  H   H19       1.0  0.85151  0.41624  0.57439  1.0000
  H   H20       1.0  0.14848  0.58375  0.42562  1.0000
  C   C1        1.0  0.69019  0.28583  0.27335  1.0000
  C   C2        1.0  0.30981  0.71418  0.72666  1.0000
  C   C3        1.0  0.27218  0.40250  0.26485  1.0000
  C   C4        1.0  0.72782  0.59750  0.73515  1.0000
  C   C5        1.0  0.13203  0.31330  0.17299  1.0000
  C   C6        1.0  0.86797  0.68670  0.82700  1.0000
  C   C7        1.0  0.02429  0.15520  0.18812  1.0000
  C   C8        1.0  0.97571  0.84480  0.81188  1.0000
  C   C9        1.0  0.05430  0.08892  0.29653  1.0000
  C   C10       1.0  0.94570  0.91108  0.70347  1.0000
  C   C11       1.0  0.72274  0.16403  0.49271  1.0000
  C   C12       1.0  0.27726  0.83597  0.50729  1.0000
  C   C13       1.0  0.30195  0.33741  0.37301  1.0000
  C   C14       1.0  0.69805  0.66259  0.62699  1.0000
  C   C15       1.0  0.77462  0.39548  0.37934  1.0000
  C   C16       1.0  0.22538  0.60452  0.62066  1.0000
  C   C17       1.0  0.63780  0.06300  0.38430  1.0000
  C   C18       1.0  0.36220  0.93701  0.61570  1.0000
  C   C19       1.0  0.19038  0.18148  0.38919  1.0000
  C   C20       1.0  0.80962  0.81852  0.61081  1.0000
  C   C21       1.0  0.78899  0.33358  0.49022  1.0000
  C   C22       1.0  0.21101  0.66642  0.50978  1.0000
  C   C23       1.0  0.87519  0.05862  0.08965  1.0000
  C   C24       1.0  0.12481  0.94138  0.91035  1.0000
  S   S1        1.0  0.41516  0.59883  0.23791  1.0000
  S   S2        1.0  0.58485  0.40117  0.76209  1.0000
  N   N1        1.0  0.61711  0.12256  0.27682  1.0000
  N   N2        1.0  0.38289  0.87744  0.72318  1.0000
  N   N3        1.0  0.67873  0.34131  0.15745  1.0000
  N   N4        1.0  0.32128  0.65869  0.84255  1.0000
  O   O1        1.0  0.30645  0.70557  0.22929  1.0000
  O   O2        1.0  0.69355  0.29444  0.77071  1.0000
  O   O3        1.0  0.56209  0.65505  0.33903  1.0000
  O   O4        1.0  0.43791  0.34495  0.66097  1.0000
  O   O5        1.0  0.46815  0.56184  0.11826  1.0000
  O   O6        1.0  0.53185  0.43816  0.88174  1.0000
  O   O7        1.0  0.81264  0.14255  0.01877  1.0000
  O   O8        1.0  0.18737  0.85745  0.98123  1.0000
  O   O9        1.0  0.82174  0.90358  0.08574  1.0000
  O   O10       1.0  0.17827  0.09642  0.91426  1.0000
