data_image0
_chemical_formula_structural       Zn4H52C64N12O16
_chemical_formula_sum              "Zn4 H52 C64 N12 O16"
_cell_length_a       8.68365
_cell_length_b       11.5224
_cell_length_c       15.43
_cell_angle_alpha    90
_cell_angle_beta     90
_cell_angle_gamma    91.7289

_space_group_name_H-M_alt    "P 1"
_space_group_IT_number       1

loop_
  _space_group_symop_operation_xyz
  'x, y, z'

loop_
  _atom_site_type_symbol
  _atom_site_label
  _atom_site_symmetry_multiplicity
  _atom_site_fract_x
  _atom_site_fract_y
  _atom_site_fract_z
  _atom_site_occupancy
  Zn  Zn1       1.0  0.77012  0.63237  0.83579  1.0000
  Zn  Zn2       1.0  0.72988  0.86764  0.33579  1.0000
  Zn  Zn3       1.0  0.22988  0.36764  0.16422  1.0000
  Zn  Zn4       1.0  0.27012  0.13236  0.66421  1.0000
  H   H1        1.0  0.13748  0.40302  0.84579  1.0000
  H   H2        1.0  0.36253  0.09697  0.34579  1.0000
  H   H3        1.0  0.86252  0.59698  0.15421  1.0000
  H   H4        1.0  0.63748  0.90302  0.65421  1.0000
  H   H5        1.0  0.42489  0.48618  0.64487  1.0000
  H   H6        1.0  0.07511  0.01381  0.14486  1.0000
  H   H7        1.0  0.57511  0.51381  0.35514  1.0000
  H   H8        1.0  0.92489  0.98619  0.85514  1.0000
  H   H9        1.0  0.66046  0.56531  0.50580  1.0000
  H   H10       1.0  0.83953  0.93468  0.00579  1.0000
  H   H11       1.0  0.33952  0.43467  0.49421  1.0000
  H   H12       1.0  0.16047  0.06532  0.99421  1.0000
  H   H13       1.0  0.57906  0.88601  0.02880  1.0000
  H   H14       1.0  0.92094  0.61400  0.52880  1.0000
  H   H15       1.0  0.42094  0.11400  0.97120  1.0000
  H   H16       1.0  0.07905  0.38601  0.47120  1.0000
  H   H17       1.0  0.52067  0.99864  0.85025  1.0000
  H   H18       1.0  0.97933  0.50136  0.35025  1.0000
  H   H19       1.0  0.47934  0.00137  0.14975  1.0000
  H   H20       1.0  0.02067  0.49864  0.64974  1.0000
  H   H21       1.0  0.95121  0.81896  0.76695  1.0000
  H   H22       1.0  0.54880  0.68103  0.26695  1.0000
  H   H23       1.0  0.04879  0.18103  0.23305  1.0000
  H   H24       1.0  0.45120  0.31896  0.73305  1.0000
  H   H25       1.0  0.22346  0.86764  0.72746  1.0000
  H   H26       1.0  0.27655  0.63235  0.22747  1.0000
  H   H27       1.0  0.77654  0.13236  0.27253  1.0000
  H   H28       1.0  0.72345  0.36764  0.77254  1.0000
  H   H29       1.0  0.42272  0.71220  0.74902  1.0000
  H   H30       1.0  0.07729  0.78779  0.24903  1.0000
  H   H31       1.0  0.57728  0.28779  0.25097  1.0000
  H   H32       1.0  0.92271  0.21221  0.75097  1.0000
  H   H33       1.0  0.33909  0.52306  0.81033  1.0000
  H   H34       1.0  0.16092  0.97693  0.31033  1.0000
  H   H35       1.0  0.66090  0.47693  0.18966  1.0000
  H   H36       1.0  0.83909  0.02306  0.68966  1.0000
  H   H37       1.0  0.04647  0.26608  0.94295  1.0000
  H   H38       1.0  0.45352  0.23392  0.44296  1.0000
  H   H39       1.0  0.95352  0.73392  0.05705  1.0000
  H   H40       1.0  0.54648  0.76608  0.55704  1.0000
  H   H41       1.0  0.81360  0.18312  0.01804  1.0000
  H   H42       1.0  0.68639  0.31689  0.51803  1.0000
  H   H43       1.0  0.18640  0.81690  0.98197  1.0000
  H   H44       1.0  0.31361  0.68310  0.48196  1.0000
  H   H45       1.0  0.57110  0.29981  0.02287  1.0000
  H   H46       1.0  0.92890  0.20021  0.52286  1.0000
  H   H47       1.0  0.42889  0.70020  0.97715  1.0000
  H   H48       1.0  0.07111  0.79980  0.47713  1.0000
  H   H49       1.0  0.57993  0.49608  0.95231  1.0000
  H   H50       1.0  0.92008  0.00393  0.45231  1.0000
  H   H51       1.0  0.42007  0.50393  0.04770  1.0000
  H   H52       1.0  0.07992  0.99607  0.54769  1.0000
  C   C1        1.0  0.64587  0.57585  0.67781  1.0000
  C   C2        1.0  0.85414  0.92414  0.17781  1.0000
  C   C3        1.0  0.35413  0.42414  0.32219  1.0000
  C   C4        1.0  0.14587  0.07585  0.82219  1.0000
  C   C5        1.0  0.53028  0.52443  0.61704  1.0000
  C   C6        1.0  0.96973  0.97555  0.11703  1.0000
  C   C7        1.0  0.46972  0.47555  0.38297  1.0000
  C   C8        1.0  0.03028  0.02444  0.88297  1.0000
  C   C9        1.0  0.55385  0.52478  0.53054  1.0000
  C   C10       1.0  0.94615  0.97521  0.03053  1.0000
  C   C11       1.0  0.44613  0.47521  0.46947  1.0000
  C   C12       1.0  0.05386  0.02479  0.96946  1.0000
  C   C13       1.0  0.53682  0.94981  0.98268  1.0000
  C   C14       1.0  0.96318  0.55020  0.48268  1.0000
  C   C15       1.0  0.46319  0.05020  0.01732  1.0000
  C   C16       1.0  0.03681  0.44981  0.51731  1.0000
  C   C17       1.0  0.55958  0.93426  0.89665  1.0000
  C   C18       1.0  0.94042  0.56574  0.39665  1.0000
  C   C19       1.0  0.44044  0.06575  0.10335  1.0000
  C   C20       1.0  0.05958  0.43427  0.60335  1.0000
  C   C21       1.0  0.64337  0.83524  0.86081  1.0000
  C   C22       1.0  0.85662  0.66476  0.36081  1.0000
  C   C23       1.0  0.35664  0.16477  0.13919  1.0000
  C   C24       1.0  0.14337  0.33524  0.63918  1.0000
  C   C25       1.0  0.04264  0.75771  0.77699  1.0000
  C   C26       1.0  0.45737  0.74228  0.27700  1.0000
  C   C27       1.0  0.95736  0.24229  0.22301  1.0000
  C   C28       1.0  0.54263  0.25772  0.72301  1.0000
  C   C29       1.0  0.19360  0.78269  0.75399  1.0000
  C   C30       1.0  0.30640  0.71730  0.25400  1.0000
  C   C31       1.0  0.80640  0.21731  0.24601  1.0000
  C   C32       1.0  0.69360  0.28269  0.74600  1.0000
  C   C33       1.0  0.30210  0.69675  0.76584  1.0000
  C   C34       1.0  0.19790  0.80323  0.26584  1.0000
  C   C35       1.0  0.69789  0.30323  0.23415  1.0000
  C   C36       1.0  0.80210  0.19676  0.73415  1.0000
  C   C37       1.0  0.25598  0.59074  0.80069  1.0000
  C   C38       1.0  0.24403  0.90925  0.30069  1.0000
  C   C39       1.0  0.74401  0.40925  0.19930  1.0000
  C   C40       1.0  0.75598  0.09075  0.69930  1.0000
  C   C41       1.0  0.10085  0.57203  0.82490  1.0000
  C   C42       1.0  0.39916  0.92796  0.32490  1.0000
  C   C43       1.0  0.89914  0.42796  0.17509  1.0000
  C   C44       1.0  0.60085  0.07204  0.67509  1.0000
  C   C45       1.0  0.93327  0.42422  0.90652  1.0000
  C   C46       1.0  0.56673  0.07578  0.40652  1.0000
  C   C47       1.0  0.06673  0.57578  0.09348  1.0000
  C   C48       1.0  0.43327  0.92422  0.59348  1.0000
  C   C49       1.0  0.94006  0.31386  0.94605  1.0000
  C   C50       1.0  0.55993  0.18614  0.44604  1.0000
  C   C51       1.0  0.05993  0.68614  0.05396  1.0000
  C   C52       1.0  0.44007  0.81386  0.55394  1.0000
  C   C53       1.0  0.81046  0.26851  0.98773  1.0000
  C   C54       1.0  0.68954  0.23150  0.48773  1.0000
  C   C55       1.0  0.18954  0.73150  0.01228  1.0000
  C   C56       1.0  0.31046  0.76850  0.51226  1.0000
  C   C57       1.0  0.67591  0.33296  0.99138  1.0000
  C   C58       1.0  0.82409  0.16705  0.49137  1.0000
  C   C59       1.0  0.32408  0.66705  0.00863  1.0000
  C   C60       1.0  0.17592  0.83295  0.50863  1.0000
  C   C61       1.0  0.68013  0.44139  0.95304  1.0000
  C   C62       1.0  0.81987  0.05862  0.45304  1.0000
  C   C63       1.0  0.31987  0.55862  0.04697  1.0000
  C   C64       1.0  0.18013  0.94138  0.54696  1.0000
  N   N1        1.0  0.99629  0.65475  0.81221  1.0000
  N   N2        1.0  0.50372  0.84525  0.31221  1.0000
  N   N3        1.0  0.00371  0.34525  0.18779  1.0000
  N   N4        1.0  0.49629  0.15475  0.68779  1.0000
  N   N5        1.0  0.06099  0.46529  0.86144  1.0000
  N   N6        1.0  0.43902  0.03471  0.36144  1.0000
  N   N7        1.0  0.93901  0.53471  0.13856  1.0000
  N   N8        1.0  0.56098  0.96529  0.63856  1.0000
  N   N9        1.0  0.80504  0.48701  0.91152  1.0000
  N   N10       1.0  0.69497  0.01299  0.41151  1.0000
  N   N11       1.0  0.19496  0.51298  0.08849  1.0000
  N   N12       1.0  0.30504  0.98701  0.58849  1.0000
  O   O1        1.0  0.61339  0.55840  0.75981  1.0000
  O   O2        1.0  0.88662  0.94160  0.25980  1.0000
  O   O3        1.0  0.38661  0.44161  0.24020  1.0000
  O   O4        1.0  0.11338  0.05840  0.74020  1.0000
  O   O5        1.0  0.76306  0.63062  0.65138  1.0000
  O   O6        1.0  0.73694  0.86938  0.15138  1.0000
  O   O7        1.0  0.23693  0.36938  0.34863  1.0000
  O   O8        1.0  0.26307  0.13062  0.84862  1.0000
  O   O9        1.0  0.66910  0.74772  0.91170  1.0000
  O   O10       1.0  0.83089  0.75228  0.41170  1.0000
  O   O11       1.0  0.33091  0.25229  0.08831  1.0000
  O   O12       1.0  0.16909  0.24772  0.58830  1.0000
  O   O13       1.0  0.68950  0.83768  0.78305  1.0000
  O   O14       1.0  0.81052  0.66232  0.28304  1.0000
  O   O15       1.0  0.31050  0.16232  0.21695  1.0000
  O   O16       1.0  0.18949  0.33769  0.71695  1.0000
