data_image0
_chemical_formula_structural       Cu2H40C40N4O8
_chemical_formula_sum              "Cu2 H40 C40 N4 O8"
_cell_length_a       7.56065
_cell_length_b       9.43177
_cell_length_c       15.9881
_cell_angle_alpha    90
_cell_angle_beta     94.3519
_cell_angle_gamma    89.9997

_space_group_name_H-M_alt    "P 1"
_space_group_IT_number       1

loop_
  _space_group_symop_operation_xyz
  'x, y, z'

loop_
  _atom_site_type_symbol
  _atom_site_label
  _atom_site_symmetry_multiplicity
  _atom_site_fract_x
  _atom_site_fract_y
  _atom_site_fract_z
  _atom_site_occupancy
  Cu  Cu1       1.0  1.00000  0.00000  1.00000  1.0000
  Cu  Cu2       1.0  0.50000  0.50000  0.50000  1.0000
  H   H1        1.0  0.85326  0.34816  0.16299  1.0000
  H   H2        1.0  0.35325  0.15185  0.66299  1.0000
  H   H3        1.0  0.14674  0.65184  0.83702  1.0000
  H   H4        1.0  0.64675  0.84815  0.33700  1.0000
  H   H5        1.0  0.06797  0.39442  0.21087  1.0000
  H   H6        1.0  0.56797  0.10559  0.71087  1.0000
  H   H7        1.0  0.93203  0.60558  0.78914  1.0000
  H   H8        1.0  0.43204  0.89442  0.28912  1.0000
  H   H9        1.0  0.94704  0.25430  0.25224  1.0000
  H   H10       1.0  0.44704  0.24571  0.75224  1.0000
  H   H11       1.0  0.05296  0.74570  0.74776  1.0000
  H   H12       1.0  0.55296  0.75429  0.24775  1.0000
  H   H13       1.0  0.53978  0.91590  0.10618  1.0000
  H   H14       1.0  0.03980  0.58411  0.60619  1.0000
  H   H15       1.0  0.46021  0.08411  0.89382  1.0000
  H   H16       1.0  0.96021  0.41591  0.39381  1.0000
  H   H17       1.0  0.56324  0.04975  0.18627  1.0000
  H   H18       1.0  0.06323  0.45025  0.68629  1.0000
  H   H19       1.0  0.43677  0.95025  0.81372  1.0000
  H   H20       1.0  0.93675  0.54977  0.31372  1.0000
  H   H21       1.0  0.59787  0.08955  0.07989  1.0000
  H   H22       1.0  0.09789  0.41045  0.57990  1.0000
  H   H23       1.0  0.40212  0.91045  0.92010  1.0000
  H   H24       1.0  0.90212  0.58956  0.42010  1.0000
  H   H25       1.0  0.49030  0.37089  0.16239  1.0000
  H   H26       1.0  0.99028  0.12909  0.66238  1.0000
  H   H27       1.0  0.50972  0.62909  0.83764  1.0000
  H   H28       1.0  0.00972  0.87090  0.33761  1.0000
  H   H29       1.0  0.15012  0.03498  0.79360  1.0000
  H   H30       1.0  0.65012  0.46500  0.29362  1.0000
  H   H31       1.0  0.84987  0.96502  0.20638  1.0000
  H   H32       1.0  0.34989  0.53497  0.70641  1.0000
  H   H33       1.0  0.88950  0.31093  0.94249  1.0000
  H   H34       1.0  0.38947  0.18905  0.44250  1.0000
  H   H35       1.0  0.11051  0.68907  0.05749  1.0000
  H   H36       1.0  0.61050  0.81093  0.55752  1.0000
  H   H37       1.0  0.21646  0.08381  0.31764  1.0000
  H   H38       1.0  0.71647  0.41618  0.81764  1.0000
  H   H39       1.0  0.78353  0.91617  0.68237  1.0000
  H   H40       1.0  0.28354  0.58383  0.18235  1.0000
  C   C1        1.0  0.97717  0.30682  0.19351  1.0000
  C   C2        1.0  0.47717  0.19319  0.69351  1.0000
  C   C3        1.0  0.02283  0.69318  0.80650  1.0000
  C   C4        1.0  0.52284  0.80681  0.30648  1.0000
  C   C5        1.0  0.05784  0.20162  0.13607  1.0000
  C   C6        1.0  0.55785  0.29840  0.63607  1.0000
  C   C7        1.0  0.94215  0.79839  0.86393  1.0000
  C   C8        1.0  0.44216  0.70160  0.36392  1.0000
  C   C9        1.0  0.23683  0.15953  0.15334  1.0000
  C   C10       1.0  0.73684  0.34048  0.65334  1.0000
  C   C11       1.0  0.76316  0.84047  0.84667  1.0000
  C   C12       1.0  0.26318  0.65952  0.34664  1.0000
  C   C13       1.0  0.32342  0.06188  0.10237  1.0000
  C   C14       1.0  0.82343  0.43812  0.60238  1.0000
  C   C15       1.0  0.67658  0.93812  0.89763  1.0000
  C   C16       1.0  0.17658  0.56189  0.39761  1.0000
  C   C17       1.0  0.51694  0.02754  0.12108  1.0000
  C   C18       1.0  0.01694  0.47247  0.62109  1.0000
  C   C19       1.0  0.48306  0.97247  0.87892  1.0000
  C   C20       1.0  0.98306  0.52754  0.37891  1.0000
  C   C21       1.0  0.33785  0.21932  0.22893  1.0000
  C   C22       1.0  0.83786  0.28067  0.72892  1.0000
  C   C23       1.0  0.66214  0.78066  0.77109  1.0000
  C   C24       1.0  0.16215  0.71934  0.27106  1.0000
  C   C25       1.0  0.46358  0.32759  0.22347  1.0000
  C   C26       1.0  0.96357  0.17241  0.72347  1.0000
  C   C27       1.0  0.53643  0.67240  0.77655  1.0000
  C   C28       1.0  0.03643  0.82760  0.27652  1.0000
  C   C29       1.0  0.05370  0.12075  0.79651  1.0000
  C   C30       1.0  0.55370  0.37924  0.29653  1.0000
  C   C31       1.0  0.94631  0.87925  0.20347  1.0000
  C   C32       1.0  0.44630  0.62074  0.70350  1.0000
  C   C33       1.0  0.90904  0.27420  0.87903  1.0000
  C   C34       1.0  0.40902  0.22580  0.37903  1.0000
  C   C35       1.0  0.09097  0.72581  0.12096  1.0000
  C   C36       1.0  0.59096  0.77419  0.62099  1.0000
  C   C37       1.0  0.31187  0.16858  0.30958  1.0000
  C   C38       1.0  0.81188  0.33142  0.80958  1.0000
  C   C39       1.0  0.68812  0.83141  0.69043  1.0000
  C   C40       1.0  0.18813  0.66859  0.19041  1.0000
  N   N1        1.0  0.02856  0.16981  0.87355  1.0000
  N   N2        1.0  0.52853  0.33018  0.37356  1.0000
  N   N3        1.0  0.97144  0.83021  0.12644  1.0000
  N   N4        1.0  0.47145  0.66980  0.62646  1.0000
  O   O1        1.0  0.95280  0.15806  0.07481  1.0000
  O   O2        1.0  0.45280  0.34196  0.57481  1.0000
  O   O3        1.0  0.04720  0.84195  0.92519  1.0000
  O   O4        1.0  0.54720  0.65805  0.42518  1.0000
  O   O5        1.0  0.24959  0.99698  0.03886  1.0000
  O   O6        1.0  0.74959  0.50304  0.53886  1.0000
  O   O7        1.0  0.75041  0.00305  0.96114  1.0000
  O   O8        1.0  0.25041  0.49698  0.46113  1.0000
