data_image0
_chemical_formula_structural       Cu2H40C40N4O8
_chemical_formula_sum              "Cu2 H40 C40 N4 O8"
_cell_length_a       8.73083
_cell_length_b       13.9367
_cell_length_c       14.659
_cell_angle_alpha    90.0026
_cell_angle_beta     99.0121
_cell_angle_gamma    89.9994

_space_group_name_H-M_alt    "P 1"
_space_group_IT_number       1

loop_
  _space_group_symop_operation_xyz
  'x, y, z'

loop_
  _atom_site_type_symbol
  _atom_site_label
  _atom_site_symmetry_multiplicity
  _atom_site_fract_x
  _atom_site_fract_y
  _atom_site_fract_z
  _atom_site_occupancy
  Cu  Cu1       1.0  0.50000  0.50000  0.50000  1.0000
  Cu  Cu2       1.0  0.50000  0.00000  0.00000  1.0000
  H   H1        1.0  0.49636  0.51545  0.27294  1.0000
  H   H2        1.0  0.50361  0.01544  0.22702  1.0000
  H   H3        1.0  0.50364  0.48455  0.72707  1.0000
  H   H4        1.0  0.49636  0.98456  0.77296  1.0000
  H   H5        1.0  0.53334  0.73260  0.46695  1.0000
  H   H6        1.0  0.46668  0.23259  0.03304  1.0000
  H   H7        1.0  0.46666  0.26740  0.53306  1.0000
  H   H8        1.0  0.53334  0.76742  0.96695  1.0000
  H   H9        1.0  0.11168  0.33119  0.35123  1.0000
  H   H10       1.0  0.88834  0.83120  0.14877  1.0000
  H   H11       1.0  0.88833  0.66881  0.64878  1.0000
  H   H12       1.0  0.11166  0.16880  0.85123  1.0000
  H   H13       1.0  0.20759  0.26359  0.27215  1.0000
  H   H14       1.0  0.79243  0.76360  0.22785  1.0000
  H   H15       1.0  0.79241  0.73640  0.72786  1.0000
  H   H16       1.0  0.20757  0.23639  0.77215  1.0000
  H   H17       1.0  0.15927  0.38645  0.25072  1.0000
  H   H18       1.0  0.84073  0.88646  0.24927  1.0000
  H   H19       1.0  0.84073  0.61354  0.74928  1.0000
  H   H20       1.0  0.15927  0.11353  0.75073  1.0000
  H   H21       1.0  0.80462  0.34031  0.29772  1.0000
  H   H22       1.0  0.19539  0.84032  0.20227  1.0000
  H   H23       1.0  0.19539  0.65969  0.70227  1.0000
  H   H24       1.0  0.80461  0.15968  0.79774  1.0000
  H   H25       1.0  0.78158  0.23662  0.36315  1.0000
  H   H26       1.0  0.21843  0.73663  0.13683  1.0000
  H   H27       1.0  0.21842  0.76338  0.63685  1.0000
  H   H28       1.0  0.78157  0.26337  0.86317  1.0000
  H   H29       1.0  0.88499  0.33837  0.41777  1.0000
  H   H30       1.0  0.11502  0.83838  0.08222  1.0000
  H   H31       1.0  0.11501  0.66163  0.58223  1.0000
  H   H32       1.0  0.88499  0.16162  0.91778  1.0000
  H   H33       1.0  0.48925  0.63280  0.14272  1.0000
  H   H34       1.0  0.51073  0.13279  0.35725  1.0000
  H   H35       1.0  0.51074  0.36720  0.85728  1.0000
  H   H36       1.0  0.48925  0.86721  0.64274  1.0000
  H   H37       1.0  0.52881  0.85938  0.34524  1.0000
  H   H38       1.0  0.47121  0.35937  0.15475  1.0000
  H   H39       1.0  0.47119  0.14062  0.65476  1.0000
  H   H40       1.0  0.52880  0.64064  0.84525  1.0000
  C   C1        1.0  0.35056  0.36757  0.35989  1.0000
  C   C2        1.0  0.64945  0.86758  0.14010  1.0000
  C   C3        1.0  0.64944  0.63242  0.64011  1.0000
  C   C4        1.0  0.35055  0.13242  0.85990  1.0000
  C   C5        1.0  0.63964  0.35840  0.39145  1.0000
  C   C6        1.0  0.36037  0.85841  0.10854  1.0000
  C   C7        1.0  0.36037  0.64160  0.60855  1.0000
  C   C8        1.0  0.63963  0.14159  0.89146  1.0000
  C   C9        1.0  0.50264  0.59269  0.28618  1.0000
  C   C10       1.0  0.49734  0.09268  0.21378  1.0000
  C   C11       1.0  0.49735  0.40731  0.71383  1.0000
  C   C12       1.0  0.50264  0.90732  0.78620  1.0000
  C   C13       1.0  0.52367  0.71320  0.39395  1.0000
  C   C14       1.0  0.47634  0.21320  0.10603  1.0000
  C   C15       1.0  0.47633  0.28680  0.60605  1.0000
  C   C16       1.0  0.52367  0.78681  0.89396  1.0000
  C   C17       1.0  0.19901  0.33351  0.30508  1.0000
  C   C18       1.0  0.80101  0.83352  0.19491  1.0000
  C   C19       1.0  0.80100  0.66648  0.69492  1.0000
  C   C20       1.0  0.19900  0.16647  0.80509  1.0000
  C   C21       1.0  0.49360  0.32932  0.34180  1.0000
  C   C22       1.0  0.50641  0.82933  0.15819  1.0000
  C   C23       1.0  0.50641  0.67068  0.65820  1.0000
  C   C24       1.0  0.49359  0.17067  0.84181  1.0000
  C   C25       1.0  0.78687  0.31529  0.36656  1.0000
  C   C26       1.0  0.21314  0.81530  0.13343  1.0000
  C   C27       1.0  0.21314  0.68471  0.63344  1.0000
  C   C28       1.0  0.78686  0.18470  0.86657  1.0000
  C   C29       1.0  0.49877  0.65804  0.21391  1.0000
  C   C30       1.0  0.50121  0.15802  0.28607  1.0000
  C   C31       1.0  0.50122  0.34197  0.78610  1.0000
  C   C32       1.0  0.49878  0.84198  0.71392  1.0000
  C   C33       1.0  0.52091  0.78362  0.32608  1.0000
  C   C34       1.0  0.47910  0.28360  0.17390  1.0000
  C   C35       1.0  0.47909  0.21638  0.67393  1.0000
  C   C36       1.0  0.52091  0.71640  0.82609  1.0000
  C   C37       1.0  0.49160  0.25672  0.26699  1.0000
  C   C38       1.0  0.50841  0.75672  0.23299  1.0000
  C   C39       1.0  0.50840  0.74329  0.73300  1.0000
  C   C40       1.0  0.49159  0.24328  0.76701  1.0000
  N   N1        1.0  0.51480  0.61908  0.37503  1.0000
  N   N2        1.0  0.48520  0.11906  0.12494  1.0000
  N   N3        1.0  0.48520  0.38093  0.62497  1.0000
  N   N4        1.0  0.51480  0.88094  0.87505  1.0000
  O   O1        1.0  0.33477  0.43138  0.42015  1.0000
  O   O2        1.0  0.66524  0.93138  0.07985  1.0000
  O   O3        1.0  0.66523  0.56862  0.57986  1.0000
  O   O4        1.0  0.33476  0.06862  0.92015  1.0000
  O   O5        1.0  0.66022  0.42060  0.45580  1.0000
  O   O6        1.0  0.33978  0.92060  0.04420  1.0000
  O   O7        1.0  0.33978  0.57940  0.54420  1.0000
  O   O8        1.0  0.66022  0.07940  0.95581  1.0000
