data_image0
_chemical_formula_structural       Cu2H40C40N4O8
_chemical_formula_sum              "Cu2 H40 C40 N4 O8"
_cell_length_a       7.61059
_cell_length_b       10.7883
_cell_length_c       14.081
_cell_angle_alpha    89.9997
_cell_angle_beta     90.0024
_cell_angle_gamma    101.917

_space_group_name_H-M_alt    "P 1"
_space_group_IT_number       1

loop_
  _space_group_symop_operation_xyz
  'x, y, z'

loop_
  _atom_site_type_symbol
  _atom_site_label
  _atom_site_symmetry_multiplicity
  _atom_site_fract_x
  _atom_site_fract_y
  _atom_site_fract_z
  _atom_site_occupancy
  Cu  Cu1       1.0  0.50001  0.50000  0.50001  1.0000
  Cu  Cu2       1.0  1.00000  1.00000  1.00000  1.0000
  H   H1        1.0  0.05159  0.56494  0.39158  1.0000
  H   H2        1.0  0.55161  0.06494  0.10841  1.0000
  H   H3        1.0  0.94842  0.43506  0.60842  1.0000
  H   H4        1.0  0.44838  0.93505  0.89157  1.0000
  H   H5        1.0  0.02197  0.45820  0.29228  1.0000
  H   H6        1.0  0.52199  0.95820  0.20771  1.0000
  H   H7        1.0  0.97804  0.54180  0.70772  1.0000
  H   H8        1.0  0.47799  0.04180  0.79227  1.0000
  H   H9        1.0  0.05872  0.40371  0.40761  1.0000
  H   H10       1.0  0.55872  0.90371  0.09238  1.0000
  H   H11       1.0  0.94131  0.59629  0.59240  1.0000
  H   H12       1.0  0.44126  0.09628  0.90761  1.0000
  H   H13       1.0  0.41959  0.10115  0.32779  1.0000
  H   H14       1.0  0.91960  0.60117  0.17222  1.0000
  H   H15       1.0  0.58043  0.89884  0.67223  1.0000
  H   H16       1.0  0.08036  0.39885  0.82779  1.0000
  H   H17       1.0  0.40740  0.19761  0.22802  1.0000
  H   H18       1.0  0.90744  0.69763  0.27198  1.0000
  H   H19       1.0  0.59259  0.80236  0.77199  1.0000
  H   H20       1.0  0.09254  0.30240  0.72803  1.0000
  H   H21       1.0  0.24126  0.18546  0.31945  1.0000
  H   H22       1.0  0.74127  0.68548  0.18055  1.0000
  H   H23       1.0  0.75876  0.81452  0.68057  1.0000
  H   H24       1.0  0.25870  0.31456  0.81946  1.0000
  H   H25       1.0  0.82628  0.12735  0.36376  1.0000
  H   H26       1.0  0.32633  0.62739  0.13623  1.0000
  H   H27       1.0  0.17373  0.87263  0.63624  1.0000
  H   H28       1.0  0.67365  0.37263  0.86377  1.0000
  H   H29       1.0  0.47034  0.51899  0.26259  1.0000
  H   H30       1.0  0.97031  0.01899  0.23739  1.0000
  H   H31       1.0  0.52965  0.48100  0.73740  1.0000
  H   H32       1.0  0.02969  0.98100  0.76259  1.0000
  H   H33       1.0  0.38056  0.77299  0.46719  1.0000
  H   H34       1.0  0.88056  0.27303  0.03280  1.0000
  H   H35       1.0  0.61945  0.22701  0.53280  1.0000
  H   H36       1.0  0.11942  0.72698  0.96719  1.0000
  H   H37       1.0  0.72613  0.38963  0.14941  1.0000
  H   H38       1.0  0.22614  0.88963  0.35060  1.0000
  H   H39       1.0  0.27388  0.61036  0.85060  1.0000
  H   H40       1.0  0.77387  0.11038  0.64941  1.0000
  C   C1        1.0  0.99263  0.46896  0.36763  1.0000
  C   C2        1.0  0.49264  0.96896  0.13237  1.0000
  C   C3        1.0  0.00739  0.53104  0.63238  1.0000
  C   C4        1.0  0.50734  0.03103  0.86762  1.0000
  C   C5        1.0  0.79400  0.44099  0.38775  1.0000
  C   C6        1.0  0.29400  0.94100  0.11225  1.0000
  C   C7        1.0  0.20602  0.55900  0.61226  1.0000
  C   C8        1.0  0.70598  0.05900  0.88774  1.0000
  C   C9        1.0  0.67985  0.33894  0.33972  1.0000
  C   C10       1.0  0.17987  0.83896  0.16028  1.0000
  C   C11       1.0  0.32017  0.66105  0.66029  1.0000
  C   C12       1.0  0.82012  0.16105  0.83972  1.0000
  C   C13       1.0  0.49347  0.30120  0.35849  1.0000
  C   C14       1.0  0.99349  0.80122  0.14151  1.0000
  C   C15       1.0  0.50654  0.69879  0.64152  1.0000
  C   C16       1.0  0.00650  0.19879  0.85849  1.0000
  C   C17       1.0  0.38367  0.19023  0.30489  1.0000
  C   C18       1.0  0.88369  0.69025  0.19511  1.0000
  C   C19       1.0  0.61635  0.80976  0.69512  1.0000
  C   C20       1.0  0.11629  0.30977  0.80490  1.0000
  C   C21       1.0  0.76318  0.26843  0.26720  1.0000
  C   C22       1.0  0.26320  0.76844  0.23280  1.0000
  C   C23       1.0  0.23684  0.73156  0.73280  1.0000
  C   C24       1.0  0.73679  0.23157  0.76720  1.0000
  C   C25       1.0  0.83381  0.16232  0.29082  1.0000
  C   C26       1.0  0.33382  0.66233  0.20917  1.0000
  C   C27       1.0  0.16622  0.83767  0.70917  1.0000
  C   C28       1.0  0.66615  0.33767  0.79082  1.0000
  C   C29       1.0  0.41568  0.60249  0.27926  1.0000
  C   C30       1.0  0.91568  0.10250  0.22073  1.0000
  C   C31       1.0  0.58428  0.39750  0.72073  1.0000
  C   C32       1.0  0.08434  0.89750  0.77926  1.0000
  C   C33       1.0  0.36565  0.74336  0.39289  1.0000
  C   C34       1.0  0.86563  0.24338  0.10710  1.0000
  C   C35       1.0  0.63437  0.25665  0.60710  1.0000
  C   C36       1.0  0.13437  0.75663  0.89289  1.0000
  C   C37       1.0  0.77950  0.30794  0.17204  1.0000
  C   C38       1.0  0.27951  0.80794  0.32795  1.0000
  C   C39       1.0  0.22051  0.69205  0.82796  1.0000
  C   C40       1.0  0.72050  0.19207  0.67203  1.0000
  N   N1        1.0  0.43319  0.64191  0.36970  1.0000
  N   N2        1.0  0.93316  0.14192  0.13029  1.0000
  N   N3        1.0  0.56681  0.35808  0.63029  1.0000
  N   N4        1.0  0.06684  0.85808  0.86970  1.0000
  O   O1        1.0  0.74281  0.51230  0.44967  1.0000
  O   O2        1.0  0.24281  0.01230  0.05033  1.0000
  O   O3        1.0  0.25721  0.48769  0.55033  1.0000
  O   O4        1.0  0.75718  0.98768  0.94966  1.0000
  O   O5        1.0  0.40509  0.35218  0.41917  1.0000
  O   O6        1.0  0.90510  0.85220  0.08084  1.0000
  O   O7        1.0  0.59493  0.64782  0.58084  1.0000
  O   O8        1.0  0.09490  0.14781  0.91916  1.0000
