data_image0
_chemical_formula_structural       Co2H48C44S2N8O14
_chemical_formula_sum              "Co2 H48 C44 S2 N8 O14"
_cell_length_a       8.35706
_cell_length_b       11.327
_cell_length_c       11.8477
_cell_angle_alpha    103.671
_cell_angle_beta     90.0004
_cell_angle_gamma    90.0003

_space_group_name_H-M_alt    "P 1"
_space_group_IT_number       1

loop_
  _space_group_symop_operation_xyz
  'x, y, z'

loop_
  _atom_site_type_symbol
  _atom_site_label
  _atom_site_symmetry_multiplicity
  _atom_site_fract_x
  _atom_site_fract_y
  _atom_site_fract_z
  _atom_site_occupancy
  Co  Co1       1.0  0.51886  0.15654  0.34871  1.0000
  Co  Co2       1.0  0.01887  0.84347  0.65129  1.0000
  H   H1        1.0  0.54856  0.56161  0.73427  1.0000
  H   H2        1.0  0.04858  0.43839  0.26573  1.0000
  H   H3        1.0  0.44519  0.35735  0.73247  1.0000
  H   H4        1.0  0.94521  0.64264  0.26754  1.0000
  H   H5        1.0  0.37096  0.72231  0.68786  1.0000
  H   H6        1.0  0.87096  0.27769  0.31214  1.0000
  H   H7        1.0  0.15842  0.30492  0.68708  1.0000
  H   H8        1.0  0.65843  0.69509  0.31292  1.0000
  H   H9        1.0  0.79079  0.62680  0.60064  1.0000
  H   H10       1.0  0.29079  0.37320  0.39936  1.0000
  H   H11       1.0  0.75455  0.18650  0.71066  1.0000
  H   H12       1.0  0.25456  0.81350  0.28933  1.0000
  H   H13       1.0  0.63428  0.07141  0.82976  1.0000
  H   H14       1.0  0.13428  0.92859  0.17024  1.0000
  H   H15       1.0  0.79251  0.08527  0.93091  1.0000
  H   H16       1.0  0.29251  0.91473  0.06909  1.0000
  H   H17       1.0  0.15122  0.19301  0.23826  1.0000
  H   H18       1.0  0.65122  0.80699  0.76174  1.0000
  H   H19       1.0  0.06415  0.22735  0.88798  1.0000
  H   H20       1.0  0.56416  0.77265  0.11203  1.0000
  H   H21       1.0  0.96915  0.23591  0.08688  1.0000
  H   H22       1.0  0.46915  0.76409  0.91313  1.0000
  H   H23       1.0  0.69215  0.34986  0.07461  1.0000
  H   H24       1.0  0.19214  0.65014  0.92539  1.0000
  H   H25       1.0  0.83594  0.57066  0.84324  1.0000
  H   H26       1.0  0.33595  0.42934  0.15676  1.0000
  H   H27       1.0  0.72943  0.09480  0.13571  1.0000
  H   H28       1.0  0.22943  0.90519  0.86429  1.0000
  H   H29       1.0  0.34918  0.17886  0.83283  1.0000
  H   H30       1.0  0.84919  0.82114  0.16717  1.0000
  H   H31       1.0  0.76807  0.54949  0.04023  1.0000
  H   H32       1.0  0.26806  0.45051  0.95977  1.0000
  H   H33       1.0  0.88065  0.30367  0.58698  1.0000
  H   H34       1.0  0.38067  0.69633  0.41302  1.0000
  H   H35       1.0  0.72222  0.40784  0.59576  1.0000
  H   H36       1.0  0.22223  0.59217  0.40424  1.0000
  H   H37       1.0  0.50673  0.15423  0.56484  1.0000
  H   H38       1.0  0.00675  0.84578  0.43516  1.0000
  H   H39       1.0  0.68817  0.14727  0.51899  1.0000
  H   H40       1.0  0.18818  0.85273  0.48101  1.0000
  H   H41       1.0  0.44767  0.95536  0.39646  1.0000
  H   H42       1.0  0.94767  0.04464  0.60354  1.0000
  H   H43       1.0  0.61141  0.94448  0.32949  1.0000
  H   H44       1.0  0.11143  0.05551  0.67050  1.0000
  H   H45       1.0  0.27933  0.16439  0.50255  1.0000
  H   H46       1.0  0.77933  0.83561  0.49745  1.0000
  H   H47       1.0  0.19006  0.11514  0.38745  1.0000
  H   H48       1.0  0.69006  0.88486  0.61255  1.0000
  C   C1        1.0  0.42349  0.54133  0.71171  1.0000
  C   C2        1.0  0.92350  0.45867  0.28828  1.0000
  C   C3        1.0  0.36427  0.42483  0.71192  1.0000
  C   C4        1.0  0.86428  0.57518  0.28808  1.0000
  C   C5        1.0  0.32608  0.63201  0.68734  1.0000
  C   C6        1.0  0.82608  0.36799  0.31266  1.0000
  C   C7        1.0  0.16458  0.60360  0.66340  1.0000
  C   C8        1.0  0.66458  0.39641  0.33659  1.0000
  C   C9        1.0  0.20449  0.39482  0.68702  1.0000
  C   C10       1.0  0.70450  0.60518  0.31299  1.0000
  C   C11       1.0  0.10689  0.48559  0.66229  1.0000
  C   C12       1.0  0.60690  0.51441  0.33771  1.0000
  C   C13       1.0  0.90904  0.59952  0.62252  1.0000
  C   C14       1.0  0.40905  0.40048  0.37748  1.0000
  C   C15       1.0  0.71870  0.25473  0.89387  1.0000
  C   C16       1.0  0.21871  0.74527  0.10613  1.0000
  C   C17       1.0  0.40880  0.16021  0.00676  1.0000
  C   C18       1.0  0.90881  0.83978  0.99324  1.0000
  C   C19       1.0  0.79856  0.37994  0.76225  1.0000
  C   C20       1.0  0.29856  0.62006  0.23775  1.0000
  C   C21       1.0  0.75688  0.26701  0.78225  1.0000
  C   C22       1.0  0.25688  0.73299  0.21775  1.0000
  C   C23       1.0  0.68236  0.12904  0.91033  1.0000
  C   C24       1.0  0.18236  0.87096  0.08968  1.0000
  C   C25       1.0  0.35580  0.16425  0.12156  1.0000
  C   C26       1.0  0.85580  0.83575  0.87844  1.0000
  C   C27       1.0  0.19536  0.19068  0.15147  1.0000
  C   C28       1.0  0.69536  0.80932  0.84853  1.0000
  C   C29       1.0  0.14831  0.20905  0.95211  1.0000
  C   C30       1.0  0.64831  0.79095  0.04789  1.0000
  C   C31       1.0  0.09383  0.21286  0.06550  1.0000
  C   C32       1.0  0.59383  0.78714  0.93451  1.0000
  C   C33       1.0  0.72183  0.35729  0.98686  1.0000
  C   C34       1.0  0.22183  0.64271  0.01314  1.0000
  C   C35       1.0  0.80293  0.48163  0.85622  1.0000
  C   C36       1.0  0.30294  0.51838  0.14378  1.0000
  C   C37       1.0  0.61018  0.11816  0.11219  1.0000
  C   C38       1.0  0.11017  0.88184  0.88780  1.0000
  C   C39       1.0  0.30730  0.18287  0.92069  1.0000
  C   C40       1.0  0.80731  0.81713  0.07932  1.0000
  C   C41       1.0  0.76451  0.46998  0.96771  1.0000
  C   C42       1.0  0.26451  0.53002  0.03228  1.0000
  C   C43       1.0  0.83282  0.38970  0.63903  1.0000
  C   C44       1.0  0.33283  0.61030  0.36097  1.0000
  S   S1        1.0  0.88803  0.02554  0.37706  1.0000
  S   S2        1.0  0.38804  0.97446  0.62294  1.0000
  N   N1        1.0  0.48623  0.13771  0.18528  1.0000
  N   N2        1.0  0.98623  0.86229  0.81472  1.0000
  N   N3        1.0  0.57012  0.13053  0.00467  1.0000
  N   N4        1.0  0.07012  0.86947  0.99532  1.0000
  N   N5        1.0  0.94564  0.48636  0.63506  1.0000
  N   N6        1.0  0.44565  0.51365  0.36493  1.0000
  N   N7        1.0  0.03604  0.67276  0.63911  1.0000
  N   N8        1.0  0.53605  0.32724  0.36089  1.0000
  O   O1        1.0  0.80104  0.09075  0.30192  1.0000
  O   O2        1.0  0.30104  0.90925  0.69808  1.0000
  O   O3        1.0  0.87358  0.09797  0.50136  1.0000
  O   O4        1.0  0.37358  0.90203  0.49864  1.0000
  O   O5        1.0  0.81400  0.90215  0.36835  1.0000
  O   O6        1.0  0.31401  0.09785  0.63165  1.0000
  O   O7        1.0  0.05867  0.00756  0.34426  1.0000
  O   O8        1.0  0.55867  0.99244  0.65576  1.0000
  O   O9        1.0  0.58093  0.18630  0.51476  1.0000
  O   O10       1.0  0.08094  0.81370  0.48524  1.0000
  O   O11       1.0  0.50218  0.97853  0.32881  1.0000
  O   O12       1.0  0.00219  0.02146  0.67118  1.0000
  O   O13       1.0  0.26929  0.17902  0.42408  1.0000
  O   O14       1.0  0.76929  0.82098  0.57592  1.0000
