data_image0
_chemical_formula_structural       Ca2H16C12N4O14
_chemical_formula_sum              "Ca2 H16 C12 N4 O14"
_cell_length_a       5.83446
_cell_length_b       8.56379
_cell_length_c       9.64963
_cell_angle_alpha    91.2301
_cell_angle_beta     90.2948
_cell_angle_gamma    78.6552

_space_group_name_H-M_alt    "P 1"
_space_group_IT_number       1

loop_
  _space_group_symop_operation_xyz
  'x, y, z'

loop_
  _atom_site_type_symbol
  _atom_site_label
  _atom_site_symmetry_multiplicity
  _atom_site_fract_x
  _atom_site_fract_y
  _atom_site_fract_z
  _atom_site_occupancy
  Ca  Ca1       1.0  0.69229  0.66356  0.98500  1.0000
  Ca  Ca2       1.0  0.30771  0.33644  0.01499  1.0000
  H   H1        1.0  0.59995  0.83105  0.26899  1.0000
  H   H2        1.0  0.40004  0.16895  0.73102  1.0000
  H   H3        1.0  0.82119  0.91532  0.47136  1.0000
  H   H4        1.0  0.17880  0.08468  0.52865  1.0000
  H   H5        1.0  0.28061  0.66103  0.45723  1.0000
  H   H6        1.0  0.71943  0.33895  0.54276  1.0000
  H   H7        1.0  0.32478  0.90713  0.07739  1.0000
  H   H8        1.0  0.67525  0.09287  0.92261  1.0000
  H   H9        1.0  0.15608  0.84013  0.96978  1.0000
  H   H10       1.0  0.84392  0.15987  0.03022  1.0000
  H   H11       1.0  0.00027  0.44002  0.78886  1.0000
  H   H12       1.0  0.99974  0.55999  0.21115  1.0000
  H   H13       1.0  0.77402  0.93018  0.20793  1.0000
  H   H14       1.0  0.22597  0.06981  0.79207  1.0000
  H   H15       1.0  0.84342  0.33249  0.87477  1.0000
  H   H16       1.0  0.15660  0.66751  0.12523  1.0000
  C   C1        1.0  0.45412  0.66654  0.65608  1.0000
  C   C2        1.0  0.54586  0.33346  0.34391  1.0000
  C   C3        1.0  0.41748  0.70341  0.51589  1.0000
  C   C4        1.0  0.58252  0.29660  0.48411  1.0000
  C   C5        1.0  0.74090  0.81603  0.66612  1.0000
  C   C6        1.0  0.25910  0.18396  0.33389  1.0000
  C   C7        1.0  0.71251  0.84551  0.52472  1.0000
  C   C8        1.0  0.28749  0.15450  0.47529  1.0000
  C   C9        1.0  0.91231  0.88313  0.75601  1.0000
  C   C10       1.0  0.08769  0.11687  0.24399  1.0000
  C   C11       1.0  0.32166  0.55986  0.73280  1.0000
  C   C12       1.0  0.67834  0.44014  0.26720  1.0000
  N   N1        1.0  0.61432  0.72465  0.72965  1.0000
  N   N2        1.0  0.38567  0.27536  0.27036  1.0000
  N   N3        1.0  0.54929  0.79028  0.45029  1.0000
  N   N4        1.0  0.45074  0.20972  0.54970  1.0000
  O   O1        1.0  0.91338  0.84613  0.88459  1.0000
  O   O2        1.0  0.08658  0.15386  0.11541  1.0000
  O   O3        1.0  0.93234  0.41934  0.88114  1.0000
  O   O4        1.0  0.06768  0.58067  0.11886  1.0000
  O   O5        1.0  0.40118  0.51849  0.85324  1.0000
  O   O6        1.0  0.59880  0.48150  0.14675  1.0000
  O   O7        1.0  0.14807  0.52069  0.67319  1.0000
  O   O8        1.0  0.85192  0.47930  0.32681  1.0000
  O   O9        1.0  0.65699  0.86527  0.17935  1.0000
  O   O10       1.0  0.34300  0.13474  0.82065  1.0000
  O   O11       1.0  0.29823  0.81007  0.03046  1.0000
  O   O12       1.0  0.70178  0.18994  0.96953  1.0000
  O   O13       1.0  0.03678  0.96897  0.70177  1.0000
  O   O14       1.0  0.96321  0.03102  0.29822  1.0000
