data_image0
_chemical_formula_structural       Cd2H12C18O14
_chemical_formula_sum              "Cd2 H12 C18 O14"
_cell_length_a       6.955
_cell_length_b       7.04336
_cell_length_c       10.1646
_cell_angle_alpha    83.7268
_cell_angle_beta     86.4425
_cell_angle_gamma    69.1258

_space_group_name_H-M_alt    "P 1"
_space_group_IT_number       1

loop_
  _space_group_symop_operation_xyz
  'x, y, z'

loop_
  _atom_site_type_symbol
  _atom_site_label
  _atom_site_symmetry_multiplicity
  _atom_site_fract_x
  _atom_site_fract_y
  _atom_site_fract_z
  _atom_site_occupancy
  Cd  Cd1       1.0  0.23436  0.73317  0.45619  1.0000
  Cd  Cd2       1.0  0.76564  0.26683  0.54381  1.0000
  H   H1        1.0  0.13077  0.42342  0.33247  1.0000
  H   H2        1.0  0.86923  0.57658  0.66753  1.0000
  H   H3        1.0  0.38612  0.33954  0.34198  1.0000
  H   H4        1.0  0.61388  0.66047  0.65802  1.0000
  H   H5        1.0  0.26875  0.58735  0.19745  1.0000
  H   H6        1.0  0.73125  0.41265  0.80255  1.0000
  H   H7        1.0  0.28493  0.78824  0.87749  1.0000
  H   H8        1.0  0.71507  0.21176  0.12251  1.0000
  H   H9        1.0  0.20749  0.26103  0.13159  1.0000
  H   H10       1.0  0.79252  0.73897  0.86842  1.0000
  H   H11       1.0  0.20772  0.50291  0.93407  1.0000
  H   H12       1.0  0.79228  0.49709  0.06593  1.0000
  C   C1        1.0  0.23979  0.28349  0.79376  1.0000
  C   C2        1.0  0.76020  0.71652  0.20624  1.0000
  C   C3        1.0  0.26203  0.08041  0.77833  1.0000
  C   C4        1.0  0.73797  0.91959  0.22167  1.0000
  C   C5        1.0  0.26822  0.94472  0.89017  1.0000
  C   C6        1.0  0.73178  0.05528  0.10983  1.0000
  C   C7        1.0  0.24664  0.01002  0.01732  1.0000
  C   C8        1.0  0.75336  0.98997  0.98268  1.0000
  C   C9        1.0  0.22418  0.21195  0.03228  1.0000
  C   C10       1.0  0.77582  0.78805  0.96773  1.0000
  C   C11       1.0  0.22233  0.34693  0.92116  1.0000
  C   C12       1.0  0.77767  0.65307  0.07884  1.0000
  C   C13       1.0  0.24487  0.43081  0.67629  1.0000
  C   C14       1.0  0.75513  0.56919  0.32371  1.0000
  C   C15       1.0  0.25694  0.00899  0.64564  1.0000
  C   C16       1.0  0.74306  0.99102  0.35436  1.0000
  C   C17       1.0  0.24681  0.86825  0.13665  1.0000
  C   C18       1.0  0.75320  0.13175  0.86334  1.0000
  O   O1        1.0  0.40611  0.39509  0.60440  1.0000
  O   O2        1.0  0.59388  0.60491  0.39560  1.0000
  O   O3        1.0  0.08749  0.59286  0.65400  1.0000
  O   O4        1.0  0.91251  0.40714  0.34600  1.0000
  O   O5        1.0  0.12473  0.12014  0.56303  1.0000
  O   O6        1.0  0.87528  0.87986  0.43697  1.0000
  O   O7        1.0  0.22432  0.92632  0.25012  1.0000
  O   O8        1.0  0.77568  0.07368  0.74988  1.0000
  O   O9        1.0  0.25927  0.46206  0.32211  1.0000
  O   O10       1.0  0.74073  0.53794  0.67789  1.0000
  O   O11       1.0  0.38012  0.83067  0.62265  1.0000
  O   O12       1.0  0.61989  0.16933  0.37735  1.0000
  O   O13       1.0  0.27156  0.68112  0.11078  1.0000
  O   O14       1.0  0.72844  0.31888  0.88921  1.0000
