data_image0
_chemical_formula_structural       Ag2H26C18S2N6O6
_chemical_formula_sum              "Ag2 H26 C18 S2 N6 O6"
_cell_length_a       5.3224
_cell_length_b       10.5116
_cell_length_c       10.9814
_cell_angle_alpha    70.3773
_cell_angle_beta     83.3229
_cell_angle_gamma    86.8442

_space_group_name_H-M_alt    "P 1"
_space_group_IT_number       1

loop_
  _space_group_symop_operation_xyz
  'x, y, z'

loop_
  _atom_site_type_symbol
  _atom_site_label
  _atom_site_symmetry_multiplicity
  _atom_site_fract_x
  _atom_site_fract_y
  _atom_site_fract_z
  _atom_site_occupancy
  Ag  Ag1       1.0  0.69467  0.59378  0.51818  1.0000
  Ag  Ag2       1.0  0.30534  0.40623  0.48183  1.0000
  H   H1        1.0  0.47354  0.89055  0.74712  1.0000
  H   H2        1.0  0.52644  0.10944  0.25289  1.0000
  H   H3        1.0  0.88513  0.51017  0.80641  1.0000
  H   H4        1.0  0.11487  0.48984  0.19360  1.0000
  H   H5        1.0  0.98011  0.34300  0.81172  1.0000
  H   H6        1.0  0.01990  0.65700  0.18827  1.0000
  H   H7        1.0  0.69477  0.24348  0.00949  1.0000
  H   H8        1.0  0.30525  0.75651  0.99051  1.0000
  H   H9        1.0  0.88049  0.36388  0.03518  1.0000
  H   H10       1.0  0.11954  0.63611  0.96481  1.0000
  H   H11       1.0  0.44203  0.37843  0.12485  1.0000
  H   H12       1.0  0.55801  0.62157  0.87515  1.0000
  H   H13       1.0  0.32726  0.40211  0.97429  1.0000
  H   H14       1.0  0.67275  0.59789  0.02573  1.0000
  H   H15       1.0  0.26690  0.12101  0.47297  1.0000
  H   H16       1.0  0.73307  0.87900  0.52702  1.0000
  H   H17       1.0  0.16124  0.96912  0.59931  1.0000
  H   H18       1.0  0.83872  0.03088  0.40070  1.0000
  H   H19       1.0  0.01085  0.12894  0.58773  1.0000
  H   H20       1.0  0.98914  0.87107  0.41227  1.0000
  H   H21       1.0  0.77738  0.91439  0.00887  1.0000
  H   H22       1.0  0.22263  0.08560  0.99112  1.0000
  H   H23       1.0  0.79009  0.81632  0.90232  1.0000
  H   H24       1.0  0.20991  0.18368  0.09766  1.0000
  H   H25       1.0  0.02387  0.93828  0.88190  1.0000
  H   H26       1.0  0.97614  0.06172  0.11809  1.0000
  C   C1        1.0  0.37071  0.10044  0.66032  1.0000
  C   C2        1.0  0.62928  0.89957  0.33968  1.0000
  C   C3        1.0  0.50089  0.99363  0.74414  1.0000
  C   C4        1.0  0.49910  0.00639  0.25585  1.0000
  C   C5        1.0  0.66865  0.02285  0.81949  1.0000
  C   C6        1.0  0.33137  0.97716  0.18051  1.0000
  C   C7        1.0  0.56675  0.24692  0.73342  1.0000
  C   C8        1.0  0.43324  0.75308  0.26658  1.0000
  C   C9        1.0  0.82372  0.40514  0.83686  1.0000
  C   C10       1.0  0.17627  0.59486  0.16312  1.0000
  C   C11       1.0  0.72667  0.35240  0.98080  1.0000
  C   C12       1.0  0.27330  0.64760  0.01922  1.0000
  C   C13       1.0  0.48780  0.42355  0.01915  1.0000
  C   C14       1.0  0.51221  0.57642  0.98087  1.0000
  C   C15       1.0  0.19205  0.07719  0.57563  1.0000
  C   C16       1.0  0.80793  0.92282  0.42438  1.0000
  C   C17       1.0  0.82167  0.91589  0.90814  1.0000
  C   C18       1.0  0.17832  0.08411  0.09184  1.0000
  S   S1        1.0  0.58154  0.41524  0.73002  1.0000
  S   S2        1.0  0.41846  0.58476  0.26998  1.0000
  N   N1        1.0  0.40713  0.22911  0.65377  1.0000
  N   N2        1.0  0.59287  0.77089  0.34623  1.0000
  N   N3        1.0  0.69885  0.15142  0.81457  1.0000
  N   N4        1.0  0.30115  0.84858  0.18542  1.0000
  N   N5        1.0  0.15346  0.69780  0.64139  1.0000
  N   N6        1.0  0.84655  0.30220  0.35861  1.0000
  O   O1        1.0  0.37471  0.73091  0.64904  1.0000
  O   O2        1.0  0.62531  0.26907  0.35098  1.0000
  O   O3        1.0  0.12304  0.63389  0.56247  1.0000
  O   O4        1.0  0.87697  0.36612  0.43752  1.0000
  O   O5        1.0  0.96536  0.72642  0.70872  1.0000
  O   O6        1.0  0.03463  0.27359  0.29128  1.0000
