data_image0
_chemical_formula_structural       Cd3H52C56S6N10O18
_chemical_formula_sum              "Cd3 H52 C56 S6 N10 O18"
_cell_length_a       8.44212
_cell_length_b       11.6468
_cell_length_c       15.7095
_cell_angle_alpha    95.4893
_cell_angle_beta     104.693
_cell_angle_gamma    99.1426

_space_group_name_H-M_alt    "P 1"
_space_group_IT_number       1

loop_
  _space_group_symop_operation_xyz
  'x, y, z'

loop_
  _atom_site_type_symbol
  _atom_site_label
  _atom_site_symmetry_multiplicity
  _atom_site_fract_x
  _atom_site_fract_y
  _atom_site_fract_z
  _atom_site_occupancy
  Cd  Cd1       1.0  0.50000  0.50000  1.00000  1.0000
  Cd  Cd2       1.0  0.47761  0.45022  0.32442  1.0000
  Cd  Cd3       1.0  0.52239  0.54978  0.67558  1.0000
  H   H1        1.0  0.03025  0.56781  0.42337  1.0000
  H   H2        1.0  0.96975  0.43219  0.57663  1.0000
  H   H3        1.0  0.93189  0.41826  0.40991  1.0000
  H   H4        1.0  0.06811  0.58174  0.59009  1.0000
  H   H5        1.0  0.14614  0.59502  0.19162  1.0000
  H   H6        1.0  0.85386  0.40498  0.80838  1.0000
  H   H7        1.0  0.98080  0.55192  0.09110  1.0000
  H   H8        1.0  0.01920  0.44808  0.90890  1.0000
  H   H9        1.0  0.02824  0.43478  0.26231  1.0000
  H   H10       1.0  0.97176  0.56522  0.73769  1.0000
  H   H11       1.0  0.88054  0.36844  0.15907  1.0000
  H   H12       1.0  0.11946  0.63156  0.84093  1.0000
  H   H13       1.0  0.51699  0.64141  0.19386  1.0000
  H   H14       1.0  0.48301  0.35859  0.80614  1.0000
  H   H15       1.0  0.37761  0.65743  0.42919  1.0000
  H   H16       1.0  0.62239  0.34257  0.57080  1.0000
  H   H17       1.0  0.34873  0.86482  0.42630  1.0000
  H   H18       1.0  0.65128  0.13517  0.57370  1.0000
  H   H19       1.0  0.49984  0.84794  0.18194  1.0000
  H   H20       1.0  0.50016  0.15206  0.81806  1.0000
  H   H21       1.0  0.33505  0.02806  0.42162  1.0000
  H   H22       1.0  0.66496  0.97194  0.57838  1.0000
  H   H23       1.0  0.52219  0.02337  0.18888  1.0000
  H   H24       1.0  0.47781  0.97663  0.81112  1.0000
  H   H25       1.0  0.36217  0.24356  0.42556  1.0000
  H   H26       1.0  0.63784  0.75644  0.57444  1.0000
  H   H27       1.0  0.76750  0.94905  0.02155  1.0000
  H   H28       1.0  0.23250  0.05096  0.97845  1.0000
  H   H29       1.0  0.23221  0.88362  0.98565  1.0000
  H   H30       1.0  0.76779  0.11638  0.01435  1.0000
  H   H31       1.0  0.75584  0.73622  0.02366  1.0000
  H   H32       1.0  0.24416  0.26378  0.97634  1.0000
  H   H33       1.0  0.24342  0.67396  0.98751  1.0000
  H   H34       1.0  0.75658  0.32603  0.01249  1.0000
  H   H35       1.0  0.53967  0.23889  0.20280  1.0000
  H   H36       1.0  0.46033  0.76111  0.79720  1.0000
  H   H37       1.0  0.07558  0.79213  0.11020  1.0000
  H   H38       1.0  0.92442  0.20787  0.88980  1.0000
  H   H39       1.0  0.76367  0.86671  0.47199  1.0000
  H   H40       1.0  0.23633  0.13329  0.52801  1.0000
  H   H41       1.0  0.82809  0.22590  0.46521  1.0000
  H   H42       1.0  0.17192  0.77410  0.53479  1.0000
  H   H43       1.0  0.96635  0.81072  0.24115  1.0000
  H   H44       1.0  0.03365  0.18928  0.75885  1.0000
  H   H45       1.0  0.01444  0.18414  0.22411  1.0000
  H   H46       1.0  0.98556  0.81586  0.77589  1.0000
  H   H47       1.0  0.87063  0.83181  0.34353  1.0000
  H   H48       1.0  0.12937  0.16819  0.65647  1.0000
  H   H49       1.0  0.94552  0.20792  0.33714  1.0000
  H   H50       1.0  0.05448  0.79208  0.66286  1.0000
  H   H51       1.0  0.11794  0.14826  0.09422  1.0000
  H   H52       1.0  0.88205  0.85175  0.90578  1.0000
  C   C1        1.0  0.02262  0.48916  0.45670  1.0000
  C   C2        1.0  0.97738  0.51084  0.54330  1.0000
  C   C3        1.0  0.05707  0.52040  0.14849  1.0000
  C   C4        1.0  0.94293  0.47960  0.85151  1.0000
  C   C5        1.0  0.95194  0.45188  0.19871  1.0000
  C   C6        1.0  0.04806  0.54812  0.80129  1.0000
  C   C7        1.0  0.48060  0.69382  0.24423  1.0000
  C   C8        1.0  0.51940  0.30618  0.75577  1.0000
  C   C9        1.0  0.40183  0.70290  0.37498  1.0000
  C   C10       1.0  0.59817  0.29709  0.62502  1.0000
  C   C11       1.0  0.38741  0.81977  0.37302  1.0000
  C   C12       1.0  0.61259  0.18023  0.62698  1.0000
  C   C13       1.0  0.47004  0.81058  0.23812  1.0000
  C   C14       1.0  0.52996  0.18942  0.76188  1.0000
  C   C15       1.0  0.42560  0.87771  0.30425  1.0000
  C   C16       1.0  0.57440  0.12229  0.69575  1.0000
  C   C17       1.0  0.42886  0.00517  0.30521  1.0000
  C   C18       1.0  0.57114  0.99483  0.69479  1.0000
  C   C19       1.0  0.38283  0.07042  0.37177  1.0000
  C   C20       1.0  0.61717  0.92958  0.62823  1.0000
  C   C21       1.0  0.48499  0.06727  0.24287  1.0000
  C   C22       1.0  0.51502  0.93273  0.75713  1.0000
  C   C23       1.0  0.39787  0.19127  0.37463  1.0000
  C   C24       1.0  0.60213  0.80873  0.62537  1.0000
  C   C25       1.0  0.64787  0.89226  0.01399  1.0000
  C   C26       1.0  0.35213  0.10774  0.98601  1.0000
  C   C27       1.0  0.35129  0.85591  0.99148  1.0000
  C   C28       1.0  0.64871  0.14409  0.00852  1.0000
  C   C29       1.0  0.49967  0.93663  0.00120  1.0000
  C   C30       1.0  0.50032  0.06337  0.99880  1.0000
  C   C31       1.0  0.64245  0.77252  0.01451  1.0000
  C   C32       1.0  0.35755  0.22748  0.98549  1.0000
  C   C33       1.0  0.35632  0.73749  0.99288  1.0000
  C   C34       1.0  0.64368  0.26251  0.00712  1.0000
  C   C35       1.0  0.49586  0.18827  0.25000  1.0000
  C   C36       1.0  0.50415  0.81173  0.75000  1.0000
  C   C37       1.0  0.06075  0.87821  0.13786  1.0000
  C   C38       1.0  0.93925  0.12179  0.86214  1.0000
  C   C39       1.0  0.08433  0.07466  0.12840  1.0000
  C   C40       1.0  0.91566  0.92534  0.87160  1.0000
  C   C41       1.0  0.80184  0.94127  0.43983  1.0000
  C   C42       1.0  0.19815  0.05872  0.56017  1.0000
  C   C43       1.0  0.83874  0.13940  0.43604  1.0000
  C   C44       1.0  0.16126  0.86060  0.56396  1.0000
  C   C45       1.0  0.99816  0.88918  0.21167  1.0000
  C   C46       1.0  0.00184  0.11082  0.78833  1.0000
  C   C47       1.0  0.02346  0.09454  0.20192  1.0000
  C   C48       1.0  0.97654  0.90546  0.79808  1.0000
  C   C49       1.0  0.97884  0.00038  0.24627  1.0000
  C   C50       1.0  0.02116  0.99962  0.75373  1.0000
  C   C51       1.0  0.91545  0.01703  0.32548  1.0000
  C   C52       1.0  0.08455  0.98297  0.67452  1.0000
  C   C53       1.0  0.86401  0.92161  0.36679  1.0000
  C   C54       1.0  0.13599  0.07839  0.63321  1.0000
  C   C55       1.0  0.90393  0.12879  0.36333  1.0000
  C   C56       1.0  0.09608  0.87121  0.63667  1.0000
  S   S1        1.0  0.22167  0.44602  0.47406  1.0000
  S   S2        1.0  0.77833  0.55398  0.52594  1.0000
  S   S3        1.0  0.17427  0.42729  0.10361  1.0000
  S   S4        1.0  0.82573  0.57271  0.89639  1.0000
  S   S5        1.0  0.80205  0.53214  0.22406  1.0000
  S   S6        1.0  0.19795  0.46786  0.77594  1.0000
  N   N1        1.0  0.49907  0.69591  0.00296  1.0000
  N   N2        1.0  0.50093  0.30409  0.99704  1.0000
  N   N3        1.0  0.44896  0.64045  0.31213  1.0000
  N   N4        1.0  0.55104  0.35955  0.68787  1.0000
  N   N5        1.0  0.45467  0.24982  0.31526  1.0000
  N   N6        1.0  0.54533  0.75018  0.68474  1.0000
  N   N7        1.0  0.10414  0.96838  0.09592  1.0000
  N   N8        1.0  0.89585  0.03163  0.90408  1.0000
  N   N9        1.0  0.78618  0.04765  0.47423  1.0000
  N   N10       1.0  0.21381  0.95234  0.52576  1.0000
  O   O1        1.0  0.24373  0.43230  0.38299  1.0000
  O   O2        1.0  0.75627  0.56770  0.61701  1.0000
  O   O3        1.0  0.21619  0.33816  0.51382  1.0000
  O   O4        1.0  0.78381  0.66184  0.48618  1.0000
  O   O5        1.0  0.34339  0.54761  0.53204  1.0000
  O   O6        1.0  0.65661  0.45238  0.46796  1.0000
  O   O7        1.0  0.27588  0.50666  0.06094  1.0000
  O   O8        1.0  0.72412  0.49334  0.93906  1.0000
  O   O9        1.0  0.27769  0.38129  0.17826  1.0000
  O   O10       1.0  0.72231  0.61871  0.82174  1.0000
  O   O11       1.0  0.05248  0.33436  0.04003  1.0000
  O   O12       1.0  0.94753  0.66564  0.95997  1.0000
  O   O13       1.0  0.70671  0.56158  0.13869  1.0000
  O   O14       1.0  0.29329  0.43842  0.86131  1.0000
  O   O15       1.0  0.69812  0.44629  0.26125  1.0000
  O   O16       1.0  0.30189  0.55371  0.73876  1.0000
  O   O17       1.0  0.89309  0.63634  0.28672  1.0000
  O   O18       1.0  0.10692  0.36366  0.71328  1.0000
