data_image0
_chemical_formula_structural       Bi2H38C24S2N4O8
_chemical_formula_sum              "Bi2 H38 C24 S2 N4 O8"
_cell_length_a       8.44823
_cell_length_b       8.98335
_cell_length_c       11.4023
_cell_angle_alpha    111.184
_cell_angle_beta     90.0005
_cell_angle_gamma    89.9997

_space_group_name_H-M_alt    "P 1"
_space_group_IT_number       1

loop_
  _space_group_symop_operation_xyz
  'x, y, z'

loop_
  _atom_site_type_symbol
  _atom_site_label
  _atom_site_symmetry_multiplicity
  _atom_site_fract_x
  _atom_site_fract_y
  _atom_site_fract_z
  _atom_site_occupancy
  Bi  Bi1       1.0  0.08887  0.00866  0.24482  1.0000
  Bi  Bi2       1.0  0.91113  0.00866  0.74482  1.0000
  H   H1        1.0  0.31974  0.42153  0.12710  1.0000
  H   H2        1.0  0.68026  0.42153  0.62709  1.0000
  H   H3        1.0  0.54376  0.50063  0.28032  1.0000
  H   H4        1.0  0.45624  0.50063  0.78032  1.0000
  H   H5        1.0  0.58400  0.78617  0.41676  1.0000
  H   H6        1.0  0.41601  0.78616  0.91676  1.0000
  H   H7        1.0  0.06495  0.49834  0.05553  1.0000
  H   H8        1.0  0.93505  0.49834  0.55553  1.0000
  H   H9        1.0  0.13223  0.64735  0.99735  1.0000
  H   H10       1.0  0.86777  0.64734  0.49734  1.0000
  H   H11       1.0  0.79606  0.77159  0.28579  1.0000
  H   H12       1.0  0.20394  0.77159  0.78579  1.0000
  H   H13       1.0  0.97551  0.67818  0.30499  1.0000
  H   H14       1.0  0.02449  0.67819  0.80499  1.0000
  H   H15       1.0  0.83040  0.56494  0.19476  1.0000
  H   H16       1.0  0.16960  0.56494  0.69476  1.0000
  H   H17       1.0  0.89870  0.78992  0.98228  1.0000
  H   H18       1.0  0.10130  0.78992  0.48228  1.0000
  H   H19       1.0  0.74521  0.81023  0.09364  1.0000
  H   H20       1.0  0.25479  0.81023  0.59365  1.0000
  H   H21       1.0  0.80053  0.61632  0.98958  1.0000
  H   H22       1.0  0.19947  0.61632  0.48959  1.0000
  H   H23       1.0  0.32535  0.06467  0.50503  1.0000
  H   H24       1.0  0.67465  0.06467  0.00503  1.0000
  H   H25       1.0  0.52220  0.07434  0.44961  1.0000
  H   H26       1.0  0.47780  0.07433  0.94960  1.0000
  H   H27       1.0  0.39788  0.22843  0.21006  1.0000
  H   H28       1.0  0.60212  0.22843  0.71006  1.0000
  H   H29       1.0  0.47522  0.03777  0.19361  1.0000
  H   H30       1.0  0.52478  0.03778  0.69361  1.0000
  H   H31       1.0  0.56236  0.21229  0.30642  1.0000
  H   H32       1.0  0.43764  0.21229  0.80642  1.0000
  H   H33       1.0  0.20702  0.29626  0.51203  1.0000
  H   H34       1.0  0.79298  0.29625  0.01204  1.0000
  H   H35       1.0  0.25006  0.37870  0.39394  1.0000
  H   H36       1.0  0.74994  0.37870  0.89395  1.0000
  H   H37       1.0  0.40251  0.36831  0.49934  1.0000
  H   H38       1.0  0.59749  0.36831  0.99934  1.0000
  C   C1        1.0  0.26157  0.82280  0.25021  1.0000
  C   C2        1.0  0.73843  0.82280  0.75021  1.0000
  C   C3        1.0  0.23731  0.66351  0.17367  1.0000
  C   C4        1.0  0.76269  0.66351  0.67366  1.0000
  C   C5        1.0  0.34049  0.54673  0.18406  1.0000
  C   C6        1.0  0.65951  0.54673  0.68406  1.0000
  C   C7        1.0  0.46450  0.59182  0.27130  1.0000
  C   C8        1.0  0.53550  0.59182  0.77129  1.0000
  C   C9        1.0  0.48771  0.75167  0.34819  1.0000
  C   C10       1.0  0.51229  0.75167  0.84818  1.0000
  C   C11       1.0  0.38527  0.86852  0.33721  1.0000
  C   C12       1.0  0.61473  0.86852  0.83720  1.0000
  C   C13       1.0  0.09899  0.62499  0.08292  1.0000
  C   C14       1.0  0.90102  0.62499  0.58292  1.0000
  C   C15       1.0  0.88625  0.68343  0.23693  1.0000
  C   C16       1.0  0.11375  0.68343  0.73694  1.0000
  C   C17       1.0  0.84569  0.73606  0.04518  1.0000
  C   C18       1.0  0.15431  0.73606  0.54519  1.0000
  C   C19       1.0  0.39871  0.04238  0.42063  1.0000
  C   C20       1.0  0.60129  0.04238  0.92063  1.0000
  C   C21       1.0  0.45081  0.15810  0.26094  1.0000
  C   C22       1.0  0.54919  0.15811  0.76094  1.0000
  C   C23       1.0  0.29725  0.30721  0.44624  1.0000
  C   C24       1.0  0.70275  0.30721  0.94624  1.0000
  S   S1        1.0  0.87299  0.09680  0.50093  1.0000
  S   S2        1.0  0.12701  0.09680  0.00093  1.0000
  N   N1        1.0  0.96218  0.73075  0.13954  1.0000
  N   N2        1.0  0.03782  0.73075  0.63954  1.0000
  N   N3        1.0  0.33685  0.14758  0.35596  1.0000
  N   N4        1.0  0.66315  0.14758  0.85596  1.0000
  O   O1        1.0  0.03684  0.02959  0.45297  1.0000
  O   O2        1.0  0.96316  0.02959  0.95297  1.0000
  O   O3        1.0  0.79589  0.97231  0.54512  1.0000
  O   O4        1.0  0.20411  0.97231  0.04512  1.0000
  O   O5        1.0  0.78096  0.11236  0.39673  1.0000
  O   O6        1.0  0.21903  0.11236  0.89673  1.0000
  O   O7        1.0  0.89250  0.24638  0.60962  1.0000
  O   O8        1.0  0.10749  0.24638  0.10962  1.0000
