data_image0
_chemical_formula_structural       Ba2H8C16O12
_chemical_formula_sum              "Ba2 H8 C16 O12"
_cell_length_a       7.49573
_cell_length_b       7.44711
_cell_length_c       8.14285
_cell_angle_alpha    69.2309
_cell_angle_beta     67.8335
_cell_angle_gamma    78.7173

_space_group_name_H-M_alt    "P 1"
_space_group_IT_number       1

loop_
  _space_group_symop_operation_xyz
  'x, y, z'

loop_
  _atom_site_type_symbol
  _atom_site_label
  _atom_site_symmetry_multiplicity
  _atom_site_fract_x
  _atom_site_fract_y
  _atom_site_fract_z
  _atom_site_occupancy
  Ba  Ba1       1.0  0.14702  0.07241  0.16245  1.0000
  Ba  Ba2       1.0  0.85298  0.92760  0.83755  1.0000
  H   H1        1.0  0.03025  0.36202  0.75519  1.0000
  H   H2        1.0  0.96975  0.63798  0.24481  1.0000
  H   H3        1.0  0.77531  0.45878  0.02169  1.0000
  H   H4        1.0  0.22469  0.54122  0.97831  1.0000
  H   H5        1.0  0.33323  0.05930  0.47923  1.0000
  H   H6        1.0  0.66677  0.94070  0.52077  1.0000
  H   H7        1.0  0.44235  0.75306  0.27807  1.0000
  H   H8        1.0  0.55765  0.24693  0.72193  1.0000
  C   C1        1.0  0.62738  0.16756  0.15225  1.0000
  C   C2        1.0  0.37262  0.83243  0.84775  1.0000
  C   C3        1.0  0.50685  0.28964  0.27171  1.0000
  C   C4        1.0  0.49315  0.71035  0.72829  1.0000
  C   C5        1.0  0.35650  0.21166  0.43558  1.0000
  C   C6        1.0  0.64350  0.78835  0.56442  1.0000
  C   C7        1.0  0.23717  0.32646  0.54337  1.0000
  C   C8        1.0  0.76283  0.67354  0.45663  1.0000
  C   C9        1.0  0.26178  0.52609  0.48058  1.0000
  C   C10       1.0  0.73822  0.47391  0.51942  1.0000
  C   C11       1.0  0.41370  0.60278  0.31849  1.0000
  C   C12       1.0  0.58630  0.39722  0.68151  1.0000
  C   C13       1.0  0.53922  0.48613  0.21662  1.0000
  C   C14       1.0  0.46078  0.51387  0.78338  1.0000
  C   C15       1.0  0.12987  0.65402  0.58682  1.0000
  C   C16       1.0  0.87013  0.34599  0.41318  1.0000
  O   O1        1.0  0.54873  0.03839  0.14088  1.0000
  O   O2        1.0  0.45127  0.96161  0.85912  1.0000
  O   O3        1.0  0.80593  0.20301  0.06014  1.0000
  O   O4        1.0  0.19407  0.79699  0.93986  1.0000
  O   O5        1.0  0.13992  0.83573  0.51903  1.0000
  O   O6        1.0  0.86008  0.16427  0.48097  1.0000
  O   O7        1.0  0.00604  0.57525  0.74653  1.0000
  O   O8        1.0  0.99397  0.42475  0.25347  1.0000
  O   O9        1.0  0.09604  0.24662  0.70671  1.0000
  O   O10       1.0  0.90396  0.75338  0.29329  1.0000
  O   O11       1.0  0.68944  0.56664  0.06226  1.0000
  O   O12       1.0  0.31056  0.43336  0.93774  1.0000
