data_image0
_chemical_formula_structural       Cu4Mo8H32C20N12O26
_chemical_formula_sum              "Cu4 Mo8 H32 C20 N12 O26"
_cell_length_a       9.74794
_cell_length_b       11.8291
_cell_length_c       12.0863
_cell_angle_alpha    113.166
_cell_angle_beta     105.829
_cell_angle_gamma    104.761

_space_group_name_H-M_alt    "P 1"
_space_group_IT_number       1

loop_
  _space_group_symop_operation_xyz
  'x, y, z'

loop_
  _atom_site_type_symbol
  _atom_site_label
  _atom_site_symmetry_multiplicity
  _atom_site_fract_x
  _atom_site_fract_y
  _atom_site_fract_z
  _atom_site_occupancy
  Cu  Cu1       1.0  0.26968  0.76825  0.53808  1.0000
  Cu  Cu2       1.0  0.73032  0.23175  0.46192  1.0000
  Cu  Cu3       1.0  0.69670  0.69698  0.39298  1.0000
  Cu  Cu4       1.0  0.30330  0.30302  0.60702  1.0000
  Mo  Mo1       1.0  0.31645  0.74863  0.99971  1.0000
  Mo  Mo2       1.0  0.68355  0.25137  0.00028  1.0000
  Mo  Mo3       1.0  0.29768  0.66561  0.22565  1.0000
  Mo  Mo4       1.0  0.92962  0.56133  0.22731  1.0000
  Mo  Mo5       1.0  0.70232  0.33439  0.77435  1.0000
  Mo  Mo6       1.0  0.07038  0.43867  0.77269  1.0000
  Mo  Mo7       1.0  0.05907  0.36234  0.99868  1.0000
  Mo  Mo8       1.0  0.94094  0.63767  0.00132  1.0000
  H   H1        1.0  0.61883  0.87552  0.65796  1.0000
  H   H2        1.0  0.04092  0.78150  0.65782  1.0000
  H   H3        1.0  0.38117  0.12448  0.34204  1.0000
  H   H4        1.0  0.95907  0.21849  0.34218  1.0000
  H   H5        1.0  0.73873  0.99713  0.82619  1.0000
  H   H6        1.0  0.08726  0.82937  0.82595  1.0000
  H   H7        1.0  0.26126  0.00287  0.17381  1.0000
  H   H8        1.0  0.91274  0.17062  0.17405  1.0000
  H   H9        1.0  0.16426  0.45440  0.44257  1.0000
  H   H10       1.0  0.27873  0.98561  0.44236  1.0000
  H   H11       1.0  0.83574  0.54560  0.55743  1.0000
  H   H12       1.0  0.72127  0.01439  0.55764  1.0000
  H   H13       1.0  0.62465  0.82991  0.89272  1.0000
  H   H14       1.0  0.26719  0.06412  0.89360  1.0000
  H   H15       1.0  0.37535  0.17009  0.10728  1.0000
  H   H16       1.0  0.73281  0.93588  0.10640  1.0000
  H   H17       1.0  0.49319  0.88452  0.81902  1.0000
  H   H18       1.0  0.32559  0.93514  0.81859  1.0000
  H   H19       1.0  0.50681  0.11548  0.18098  1.0000
  H   H20       1.0  0.67441  0.06486  0.18141  1.0000
  H   H21       1.0  0.55118  0.58193  0.79430  1.0000
  H   H22       1.0  0.24360  0.21410  0.79629  1.0000
  H   H23       1.0  0.44882  0.41807  0.20570  1.0000
  H   H24       1.0  0.75640  0.78590  0.20371  1.0000
  H   H25       1.0  0.75603  0.72940  0.66783  1.0000
  H   H26       1.0  0.91321  0.93756  0.66821  1.0000
  H   H27       1.0  0.24397  0.27059  0.33217  1.0000
  H   H28       1.0  0.08678  0.06244  0.33179  1.0000
  H   H29       1.0  0.84487  0.82032  0.84272  1.0000
  H   H30       1.0  0.99724  0.02300  0.84310  1.0000
  H   H31       1.0  0.15513  0.17968  0.15728  1.0000
  H   H32       1.0  0.00276  0.97700  0.15690  1.0000
  C   C1        1.0  0.68203  0.88820  0.75580  1.0000
  C   C2        1.0  0.07439  0.86748  0.75584  1.0000
  C   C3        1.0  0.31797  0.11180  0.24420  1.0000
  C   C4        1.0  0.92561  0.13252  0.24416  1.0000
  C   C5        1.0  0.26893  0.51542  0.53470  1.0000
  C   C6        1.0  0.26647  0.01786  0.53508  1.0000
  C   C7        1.0  0.73106  0.48458  0.46530  1.0000
  C   C8        1.0  0.73352  0.98214  0.46491  1.0000
  C   C9        1.0  0.56522  0.82814  0.80046  1.0000
  C   C10       1.0  0.23530  0.97304  0.80091  1.0000
  C   C11       1.0  0.43478  0.17186  0.19954  1.0000
  C   C12       1.0  0.76470  0.02696  0.19908  1.0000
  C   C13       1.0  0.46635  0.57899  0.71223  1.0000
  C   C14       1.0  0.24651  0.13401  0.71368  1.0000
  C   C15       1.0  0.53366  0.42101  0.28777  1.0000
  C   C16       1.0  0.75349  0.86598  0.28632  1.0000
  C   C17       1.0  0.80604  0.83139  0.75429  1.0000
  C   C18       1.0  0.94882  0.92266  0.75447  1.0000
  C   C19       1.0  0.19395  0.16861  0.24571  1.0000
  C   C20       1.0  0.05118  0.07734  0.24553  1.0000
  N   N1        1.0  0.33475  0.64960  0.59366  1.0000
  N   N2        1.0  0.25978  0.94332  0.59404  1.0000
  N   N3        1.0  0.66525  0.35040  0.40634  1.0000
  N   N4        1.0  0.74022  0.05668  0.40596  1.0000
  N   N5        1.0  0.34728  0.46789  0.60481  1.0000
  N   N6        1.0  0.25828  0.13648  0.60595  1.0000
  N   N7        1.0  0.65272  0.53211  0.39519  1.0000
  N   N8        1.0  0.74172  0.86352  0.39405  1.0000
  N   N9        1.0  0.45993  0.68754  0.70586  1.0000
  N   N10       1.0  0.24672  0.01885  0.70683  1.0000
  N   N11       1.0  0.54007  0.31246  0.29414  1.0000
  N   N12       1.0  0.75328  0.98115  0.29317  1.0000
  O   O1        1.0  0.35052  0.80255  0.18148  1.0000
  O   O2        1.0  0.83159  0.37941  0.18164  1.0000
  O   O3        1.0  0.64948  0.19745  0.81852  1.0000
  O   O4        1.0  0.16841  0.62060  0.81836  1.0000
  O   O5        1.0  0.34707  0.76452  0.39389  1.0000
  O   O6        1.0  0.04704  0.63045  0.39508  1.0000
  O   O7        1.0  0.65293  0.23549  0.60611  1.0000
  O   O8        1.0  0.95297  0.36956  0.60492  1.0000
  O   O9        1.0  0.15029  0.54749  0.99969  1.0000
  O   O10       1.0  0.84972  0.45252  0.00031  1.0000
  O   O11       1.0  0.05077  0.69026  0.18701  1.0000
  O   O12       1.0  0.13503  0.49656  0.18524  1.0000
  O   O13       1.0  0.94923  0.30974  0.81299  1.0000
  O   O14       1.0  0.86497  0.50345  0.81476  1.0000
  O   O15       1.0  0.37167  0.89820  0.99997  1.0000
  O   O16       1.0  0.62834  0.10181  0.00003  1.0000
  O   O17       1.0  0.44634  0.61270  0.22389  1.0000
  O   O18       1.0  0.77944  0.61269  0.22688  1.0000
  O   O19       1.0  0.55366  0.38730  0.77611  1.0000
  O   O20       1.0  0.22056  0.38731  0.77312  1.0000
  O   O21       1.0  0.20542  0.30788  0.99777  1.0000
  O   O22       1.0  0.79459  0.69212  0.00223  1.0000
  O   O23       1.0  0.08479  0.76274  0.00132  1.0000
  O   O24       1.0  0.91522  0.23726  0.99869  1.0000
  O   O25       1.0  0.46991  0.70323  0.99832  1.0000
  O   O26       1.0  0.53009  0.29677  0.00168  1.0000
