data_image0
_chemical_formula_structural       Cu2H26C16N6O8
_chemical_formula_sum              "Cu2 H26 C16 N6 O8"
_cell_length_a       5.15287
_cell_length_b       8.913
_cell_length_c       12.6286
_cell_angle_alpha    84.1802
_cell_angle_beta     77.9095
_cell_angle_gamma    86.1213

_space_group_name_H-M_alt    "P 1"
_space_group_IT_number       1

loop_
  _space_group_symop_operation_xyz
  'x, y, z'

loop_
  _atom_site_type_symbol
  _atom_site_label
  _atom_site_symmetry_multiplicity
  _atom_site_fract_x
  _atom_site_fract_y
  _atom_site_fract_z
  _atom_site_occupancy
  Cu  Cu1       1.0  0.64806  0.44494  0.62893  1.0000
  Cu  Cu2       1.0  0.86311  0.96205  0.43381  1.0000
  H   H1        1.0  0.20164  0.14712  0.93144  1.0000
  H   H2        1.0  0.95708  0.29938  0.93975  1.0000
  H   H3        1.0  0.29039  0.33457  0.94212  1.0000
  H   H4        1.0  0.11474  0.22114  0.74710  1.0000
  H   H5        1.0  0.62488  0.26950  0.79303  1.0000
  H   H6        1.0  0.55309  0.17408  0.69565  1.0000
  H   H7        1.0  0.41970  0.58220  0.98790  1.0000
  H   H8        1.0  0.62750  0.62539  0.85978  1.0000
  H   H9        1.0  0.11260  0.67773  0.57729  1.0000
  H   H10       1.0  0.00046  0.70003  0.36525  1.0000
  H   H11       1.0  0.90142  0.82808  0.27331  1.0000
  H   H12       1.0  0.70434  0.50586  0.15299  1.0000
  H   H13       1.0  0.94015  0.61412  0.05841  1.0000
  H   H14       1.0  0.12044  0.91646  0.65057  1.0000
  H   H15       1.0  0.94821  0.78465  0.75094  1.0000
  H   H16       1.0  0.53383  0.83190  0.74408  1.0000
  H   H17       1.0  0.28166  0.95866  0.80605  1.0000
  H   H18       1.0  0.31739  0.74708  0.12148  1.0000
  H   H19       1.0  0.55322  0.88590  0.11693  1.0000
  H   H20       1.0  0.21122  0.94170  0.12434  1.0000
  H   H21       1.0  0.43310  0.74687  0.30342  1.0000
  H   H22       1.0  0.39997  0.18893  0.45353  1.0000
  H   H23       1.0  0.28557  0.43380  0.36401  1.0000
  H   H24       1.0  0.44412  0.30575  0.26879  1.0000
  H   H25       1.0  0.84547  0.39307  0.31908  1.0000
  H   H26       1.0  0.98830  0.24587  0.23983  1.0000
  C   C1        1.0  0.16528  0.26712  0.90646  1.0000
  C   C2        1.0  0.22560  0.29747  0.78276  1.0000
  C   C3        1.0  0.12780  0.45752  0.74527  1.0000
  C   C4        1.0  0.25693  0.68863  0.62967  1.0000
  C   C5        1.0  0.51756  0.73463  0.55262  1.0000
  C   C6        1.0  0.14532  0.81380  0.70413  1.0000
  C   C7        1.0  0.32243  0.84241  0.78293  1.0000
  C   C8        1.0  0.26178  0.74234  0.88907  1.0000
  C   C9        1.0  0.34892  0.85371  0.15169  1.0000
  C   C10       1.0  0.30340  0.83929  0.27558  1.0000
  C   C11       1.0  0.38205  0.98496  0.31301  1.0000
  C   C12       1.0  0.22327  0.19877  0.41611  1.0000
  C   C13       1.0  0.98263  0.23030  0.50553  1.0000
  C   C14       1.0  0.25986  0.33085  0.32675  1.0000
  C   C15       1.0  0.03080  0.35429  0.26626  1.0000
  C   C16       1.0  0.09732  0.46487  0.16624  1.0000
  N   N1        1.0  0.51127  0.26994  0.73555  1.0000
  N   N2        1.0  0.31283  0.54177  0.68349  1.0000
  N   N3        1.0  0.45422  0.64540  0.91370  1.0000
  N   N4        1.0  0.02467  0.80667  0.32774  1.0000
  N   N5        1.0  0.18425  0.05882  0.37454  1.0000
  N   N6        1.0  0.89665  0.53590  0.12614  1.0000
  O   O1        1.0  0.88235  0.49342  0.77267  1.0000
  O   O2        1.0  0.70411  0.63360  0.52852  1.0000
  O   O3        1.0  0.53674  0.87200  0.51604  1.0000
  O   O4        1.0  0.03669  0.75614  0.95003  1.0000
  O   O5        1.0  0.61863  0.02551  0.28322  1.0000
  O   O6        1.0  0.79790  0.13591  0.53101  1.0000
  O   O7        1.0  0.97736  0.35283  0.54954  1.0000
  O   O8        1.0  0.33685  0.48825  0.12355  1.0000
