data_image0
_chemical_formula_structural       Zn2H16C20S4N12
_chemical_formula_sum              "Zn2 H16 C20 S4 N12"
_cell_length_a       8.56296
_cell_length_b       9.07755
_cell_length_c       9.07756
_cell_angle_alpha    116.584
_cell_angle_beta     89.9999
_cell_angle_gamma    90.0001

_space_group_name_H-M_alt    "P 1"
_space_group_IT_number       1

loop_
  _space_group_symop_operation_xyz
  'x, y, z'

loop_
  _atom_site_type_symbol
  _atom_site_label
  _atom_site_symmetry_multiplicity
  _atom_site_fract_x
  _atom_site_fract_y
  _atom_site_fract_z
  _atom_site_occupancy
  Zn  Zn1       1.0  1.00000  1.00000  0.00000  1.0000
  Zn  Zn2       1.0  0.50000  0.50000  0.50000  1.0000
  H   H1        1.0  0.75000  0.70815  0.79184  1.0000
  H   H2        1.0  0.25000  0.79185  0.70815  1.0000
  H   H3        1.0  0.25000  0.29185  0.20815  1.0000
  H   H4        1.0  0.75000  0.20815  0.29185  1.0000
  H   H5        1.0  0.94952  0.07513  0.70035  1.0000
  H   H6        1.0  0.44952  0.42487  0.79965  1.0000
  H   H7        1.0  0.55049  0.79965  0.42487  1.0000
  H   H8        1.0  0.05048  0.70035  0.07513  1.0000
  H   H9        1.0  0.05048  0.92486  0.29965  1.0000
  H   H10       1.0  0.55048  0.57513  0.20035  1.0000
  H   H11       1.0  0.44952  0.20035  0.57513  1.0000
  H   H12       1.0  0.94952  0.29965  0.92486  1.0000
  H   H13       1.0  0.75000  0.02295  0.47705  1.0000
  H   H14       1.0  0.25000  0.47705  0.02295  1.0000
  H   H15       1.0  0.25000  0.97705  0.52295  1.0000
  H   H16       1.0  0.75000  0.52295  0.97705  1.0000
  C   C1        1.0  0.75000  0.77861  0.72139  1.0000
  C   C2        1.0  0.25000  0.72139  0.77861  1.0000
  C   C3        1.0  0.25000  0.22139  0.27861  1.0000
  C   C4        1.0  0.75000  0.27861  0.22139  1.0000
  C   C5        1.0  0.85802  0.98291  0.67176  1.0000
  C   C6        1.0  0.35802  0.51709  0.82824  1.0000
  C   C7        1.0  0.64199  0.82824  0.51709  1.0000
  C   C8        1.0  0.14198  0.67176  0.98291  1.0000
  C   C9        1.0  0.14198  0.01709  0.32824  1.0000
  C   C10       1.0  0.64199  0.48292  0.17176  1.0000
  C   C11       1.0  0.35801  0.17176  0.48291  1.0000
  C   C12       1.0  0.85801  0.32824  0.01709  1.0000
  C   C13       1.0  0.75000  0.95252  0.54748  1.0000
  C   C14       1.0  0.25000  0.54748  0.95252  1.0000
  C   C15       1.0  0.25000  0.04747  0.45252  1.0000
  C   C16       1.0  0.75000  0.45252  0.04748  1.0000
  C   C17       1.0  0.71391  0.88086  0.11914  1.0000
  C   C18       1.0  0.21390  0.61914  0.38085  1.0000
  C   C19       1.0  0.78609  0.38086  0.61915  1.0000
  C   C20       1.0  0.28609  0.11915  0.88086  1.0000
  S   S1        1.0  0.53090  0.85794  0.14206  1.0000
  S   S2        1.0  0.03089  0.64206  0.35794  1.0000
  S   S3        1.0  0.96910  0.35795  0.64206  1.0000
  S   S4        1.0  0.46910  0.14206  0.85795  1.0000
  N   N1        1.0  0.85380  0.90129  0.76419  1.0000
  N   N2        1.0  0.35379  0.59871  0.73581  1.0000
  N   N3        1.0  0.64621  0.73581  0.59871  1.0000
  N   N4        1.0  0.14620  0.76419  0.90129  1.0000
  N   N5        1.0  0.14621  0.09871  0.23581  1.0000
  N   N6        1.0  0.64621  0.40129  0.26419  1.0000
  N   N7        1.0  0.35379  0.26419  0.40129  1.0000
  N   N8        1.0  0.85379  0.23581  0.09871  1.0000
  N   N9        1.0  0.85009  0.89755  0.10245  1.0000
  N   N10       1.0  0.35008  0.60245  0.39755  1.0000
  N   N11       1.0  0.64991  0.39755  0.60245  1.0000
  N   N12       1.0  0.14991  0.10245  0.89755  1.0000
