data_image0
_chemical_formula_structural       ZnH8C10S2N6
_chemical_formula_sum              "Zn1 H8 C10 S2 N6"
_cell_length_a       6.91754
_cell_length_b       7.26031
_cell_length_c       7.26029
_cell_angle_alpha    91.1767
_cell_angle_beta     109.07
_cell_angle_gamma    109.068

_space_group_name_H-M_alt    "P 1"
_space_group_IT_number       1

loop_
  _space_group_symop_operation_xyz
  'x, y, z'

loop_
  _atom_site_type_symbol
  _atom_site_label
  _atom_site_symmetry_multiplicity
  _atom_site_fract_x
  _atom_site_fract_y
  _atom_site_fract_z
  _atom_site_occupancy
  Zn  Zn1       1.0  1.00000  0.50000  0.50000  1.0000
  H   H1        1.0  0.68349  0.05958  0.27986  1.0000
  H   H2        1.0  0.31649  0.72014  0.94043  1.0000
  H   H3        1.0  0.31649  0.94042  0.72015  1.0000
  H   H4        1.0  0.68351  0.27985  0.05958  1.0000
  H   H5        1.0  0.29773  0.28151  0.71711  1.0000
  H   H6        1.0  0.70229  0.28290  0.71848  1.0000
  H   H7        1.0  0.70227  0.71847  0.28289  1.0000
  H   H8        1.0  0.29772  0.71709  0.28152  1.0000
  C   C1        1.0  0.82611  0.03374  0.37848  1.0000
  C   C2        1.0  0.17390  0.62151  0.96626  1.0000
  C   C3        1.0  0.17390  0.96626  0.62151  1.0000
  C   C4        1.0  0.82613  0.37848  0.03375  1.0000
  C   C5        1.0  0.16462  0.15491  0.62014  1.0000
  C   C6        1.0  0.83539  0.37984  0.84510  1.0000
  C   C7        1.0  0.83537  0.84509  0.37984  1.0000
  C   C8        1.0  0.16462  0.62013  0.15490  1.0000
  C   C9        1.0  0.49101  0.28974  0.28971  1.0000
  C   C10       1.0  0.50901  0.71030  0.71029  1.0000
  S   S1        1.0  0.26207  0.13793  0.13793  1.0000
  S   S2        1.0  0.73794  0.86211  0.86208  1.0000
  N   N1        1.0  0.99088  0.18881  0.49828  1.0000
  N   N2        1.0  0.00911  0.50173  0.81118  1.0000
  N   N3        1.0  0.00911  0.81118  0.50173  1.0000
  N   N4        1.0  0.99088  0.49829  0.18881  1.0000
  N   N5        1.0  0.66312  0.39929  0.39929  1.0000
  N   N6        1.0  0.33688  0.60071  0.60072  1.0000
