data_image0
_chemical_formula_structural       Hg2H36C36S4N16
_chemical_formula_sum              "Hg2 H36 C36 S4 N16"
_cell_length_a       8.19196
_cell_length_b       11.4759
_cell_length_c       11.4759
_cell_angle_alpha    112.013
_cell_angle_beta     89.1521
_cell_angle_gamma    89.1519

_space_group_name_H-M_alt    "P 1"
_space_group_IT_number       1

loop_
  _space_group_symop_operation_xyz
  'x, y, z'

loop_
  _atom_site_type_symbol
  _atom_site_label
  _atom_site_symmetry_multiplicity
  _atom_site_fract_x
  _atom_site_fract_y
  _atom_site_fract_z
  _atom_site_occupancy
  Hg  Hg1       1.0  0.75000  0.03569  0.96431  1.0000
  Hg  Hg2       1.0  0.25000  0.96431  0.03569  1.0000
  H   H1        1.0  0.31252  0.64196  0.84027  1.0000
  H   H2        1.0  0.18748  0.15974  0.35804  1.0000
  H   H3        1.0  0.68749  0.35804  0.15974  1.0000
  H   H4        1.0  0.81252  0.84027  0.64197  1.0000
  H   H5        1.0  0.14823  0.63715  0.65858  1.0000
  H   H6        1.0  0.35176  0.34142  0.36285  1.0000
  H   H7        1.0  0.85177  0.36285  0.34143  1.0000
  H   H8        1.0  0.64824  0.65859  0.63716  1.0000
  H   H9        1.0  0.94592  0.46150  0.56973  1.0000
  H   H10       1.0  0.55408  0.43027  0.53850  1.0000
  H   H11       1.0  0.05408  0.53850  0.43027  1.0000
  H   H12       1.0  0.44593  0.56974  0.46151  1.0000
  H   H13       1.0  0.91460  0.30744  0.67635  1.0000
  H   H14       1.0  0.58540  0.32364  0.69255  1.0000
  H   H15       1.0  0.08541  0.69256  0.32365  1.0000
  H   H16       1.0  0.41460  0.67635  0.30745  1.0000
  H   H17       1.0  0.38728  0.25881  0.02679  1.0000
  H   H18       1.0  0.11272  0.97321  0.74119  1.0000
  H   H19       1.0  0.61272  0.74119  0.97321  1.0000
  H   H20       1.0  0.88728  0.02679  0.25881  1.0000
  H   H21       1.0  0.38744  0.34502  0.92574  1.0000
  H   H22       1.0  0.11256  0.07425  0.65498  1.0000
  H   H23       1.0  0.61256  0.65498  0.07426  1.0000
  H   H24       1.0  0.88744  0.92574  0.34502  1.0000
  H   H25       1.0  0.27601  0.53589  0.10422  1.0000
  H   H26       1.0  0.22399  0.89577  0.46411  1.0000
  H   H27       1.0  0.72399  0.46411  0.89577  1.0000
  H   H28       1.0  0.77602  0.10423  0.53589  1.0000
  H   H29       1.0  0.46661  0.48185  0.13961  1.0000
  H   H30       1.0  0.03339  0.86039  0.51814  1.0000
  H   H31       1.0  0.53339  0.51815  0.86039  1.0000
  H   H32       1.0  0.96662  0.13961  0.48185  1.0000
  H   H33       1.0  0.28233  0.44851  0.20485  1.0000
  H   H34       1.0  0.21767  0.79515  0.55149  1.0000
  H   H35       1.0  0.71767  0.55149  0.79515  1.0000
  H   H36       1.0  0.78233  0.20485  0.44851  1.0000
  C   C1        1.0  0.22257  0.56906  0.80131  1.0000
  C   C2        1.0  0.27743  0.19869  0.43093  1.0000
  C   C3        1.0  0.77744  0.43094  0.19869  1.0000
  C   C4        1.0  0.72257  0.80132  0.56907  1.0000
  C   C5        1.0  0.13148  0.56534  0.69821  1.0000
  C   C6        1.0  0.36852  0.30180  0.43465  1.0000
  C   C7        1.0  0.86853  0.43466  0.30180  1.0000
  C   C8        1.0  0.63148  0.69821  0.56535  1.0000
  C   C9        1.0  0.01963  0.46911  0.65049  1.0000
  C   C10       1.0  0.48037  0.34951  0.53089  1.0000
  C   C11       1.0  0.98038  0.53090  0.34951  1.0000
  C   C12       1.0  0.51963  0.65050  0.46912  1.0000
  C   C13       1.0  0.00135  0.38324  0.70837  1.0000
  C   C14       1.0  0.49865  0.29163  0.61676  1.0000
  C   C15       1.0  0.99866  0.61676  0.29163  1.0000
  C   C16       1.0  0.50134  0.70837  0.38325  1.0000
  C   C17       1.0  0.09559  0.39711  0.81390  1.0000
  C   C18       1.0  0.40441  0.18610  0.60289  1.0000
  C   C19       1.0  0.90442  0.60289  0.18610  1.0000
  C   C20       1.0  0.59558  0.81390  0.39711  1.0000
  C   C21       1.0  0.06566  0.31388  0.88174  1.0000
  C   C22       1.0  0.43434  0.11826  0.68612  1.0000
  C   C23       1.0  0.93434  0.68612  0.11826  1.0000
  C   C24       1.0  0.56566  0.88174  0.31388  1.0000
  C   C25       1.0  0.07279  0.21854  0.01578  1.0000
  C   C26       1.0  0.42721  0.98421  0.78146  1.0000
  C   C27       1.0  0.92721  0.78146  0.98421  1.0000
  C   C28       1.0  0.57279  0.01578  0.21854  1.0000
  C   C29       1.0  0.32794  0.33638  0.00805  1.0000
  C   C30       1.0  0.17206  0.99195  0.66362  1.0000
  C   C31       1.0  0.67206  0.66362  0.99195  1.0000
  C   C32       1.0  0.82794  0.00805  0.33638  1.0000
  C   C33       1.0  0.33762  0.45851  0.12148  1.0000
  C   C34       1.0  0.16238  0.87852  0.54148  1.0000
  C   C35       1.0  0.66238  0.54148  0.87852  1.0000
  C   C36       1.0  0.83762  0.12148  0.45852  1.0000
  S   S1        1.0  0.12558  0.17807  0.14040  1.0000
  S   S2        1.0  0.37442  0.85960  0.82193  1.0000
  S   S3        1.0  0.87442  0.82193  0.85960  1.0000
  S   S4        1.0  0.62558  0.14040  0.17807  1.0000
  N   N1        1.0  0.20639  0.48783  0.85913  1.0000
  N   N2        1.0  0.29361  0.14087  0.51216  1.0000
  N   N3        1.0  0.79362  0.51216  0.14087  1.0000
  N   N4        1.0  0.70639  0.85914  0.48784  1.0000
  N   N5        1.0  0.93016  0.24770  0.86677  1.0000
  N   N6        1.0  0.56984  0.13323  0.75229  1.0000
  N   N7        1.0  0.06984  0.75229  0.13322  1.0000
  N   N8        1.0  0.43016  0.86677  0.24771  1.0000
  N   N9        1.0  0.93489  0.18912  0.94978  1.0000
  N   N10       1.0  0.56510  0.05022  0.81088  1.0000
  N   N11       1.0  0.06511  0.81088  0.05022  1.0000
  N   N12       1.0  0.43489  0.94978  0.18912  1.0000
  N   N13       1.0  0.15992  0.29684  0.97285  1.0000
  N   N14       1.0  0.34008  0.02715  0.70316  1.0000
  N   N15       1.0  0.84008  0.70316  0.02715  1.0000
  N   N16       1.0  0.65992  0.97285  0.29684  1.0000
