data_image0
_chemical_formula_structural       Hg2H28C32S4N16
_chemical_formula_sum              "Hg2 H28 C32 S4 N16"
_cell_length_a       8.32577
_cell_length_b       10.7827
_cell_length_c       12.263
_cell_angle_alpha    116.105
_cell_angle_beta     107.004
_cell_angle_gamma    89.9917

_space_group_name_H-M_alt    "P 1"
_space_group_IT_number       1

loop_
  _space_group_symop_operation_xyz
  'x, y, z'

loop_
  _atom_site_type_symbol
  _atom_site_label
  _atom_site_symmetry_multiplicity
  _atom_site_fract_x
  _atom_site_fract_y
  _atom_site_fract_z
  _atom_site_occupancy
  Hg  Hg1       1.0  0.25043  0.93320  0.99990  1.0000
  Hg  Hg2       1.0  0.74957  0.06679  0.00010  1.0000
  H   H1        1.0  0.62920  0.33944  0.23948  1.0000
  H   H2        1.0  0.87098  0.09968  0.76045  1.0000
  H   H3        1.0  0.37079  0.66055  0.76051  1.0000
  H   H4        1.0  0.12902  0.90032  0.23955  1.0000
  H   H5        1.0  0.37641  0.40459  0.11819  1.0000
  H   H6        1.0  0.12337  0.28653  0.88182  1.0000
  H   H7        1.0  0.62358  0.59541  0.88181  1.0000
  H   H8        1.0  0.87662  0.71347  0.11818  1.0000
  H   H9        1.0  0.26852  0.62699  0.23890  1.0000
  H   H10       1.0  0.23105  0.38832  0.76124  1.0000
  H   H11       1.0  0.73148  0.37301  0.76110  1.0000
  H   H12       1.0  0.76895  0.61169  0.23876  1.0000
  H   H13       1.0  0.41879  0.76990  0.47519  1.0000
  H   H14       1.0  0.08077  0.29491  0.52501  1.0000
  H   H15       1.0  0.58121  0.23010  0.52481  1.0000
  H   H16       1.0  0.91923  0.70509  0.47499  1.0000
  H   H17       1.0  0.84282  0.46815  0.58272  1.0000
  H   H18       1.0  0.65723  0.88532  0.41736  1.0000
  H   H19       1.0  0.15718  0.53185  0.41728  1.0000
  H   H20       1.0  0.34277  0.11468  0.58264  1.0000
  H   H21       1.0  0.99445  0.55853  0.74253  1.0000
  H   H22       1.0  0.50544  0.81586  0.25752  1.0000
  H   H23       1.0  0.00556  0.44147  0.25747  1.0000
  H   H24       1.0  0.49456  0.18414  0.74248  1.0000
  H   H25       1.0  0.01432  0.59395  0.61726  1.0000
  H   H26       1.0  0.48588  0.97672  0.38282  1.0000
  H   H27       1.0  0.98568  0.40606  0.38274  1.0000
  H   H28       1.0  0.51413  0.02328  0.61718  1.0000
  C   C1        1.0  0.57987  0.43536  0.28814  1.0000
  C   C2        1.0  0.92002  0.14711  0.71184  1.0000
  C   C3        1.0  0.42013  0.56463  0.71186  1.0000
  C   C4        1.0  0.07998  0.85290  0.28816  1.0000
  C   C5        1.0  0.43811  0.47179  0.22052  1.0000
  C   C6        1.0  0.06158  0.25139  0.77952  1.0000
  C   C7        1.0  0.56188  0.52821  0.77948  1.0000
  C   C8        1.0  0.93842  0.74861  0.22048  1.0000
  C   C9        1.0  0.37889  0.59447  0.28785  1.0000
  C   C10       1.0  0.12075  0.30677  0.71225  1.0000
  C   C11       1.0  0.62111  0.40553  0.71215  1.0000
  C   C12       1.0  0.87925  0.69323  0.28776  1.0000
  C   C13       1.0  0.46140  0.67430  0.41887  1.0000
  C   C14       1.0  0.03821  0.25555  0.58125  1.0000
  C   C15       1.0  0.53860  0.32570  0.58113  1.0000
  C   C16       1.0  0.96179  0.74445  0.41875  1.0000
  C   C17       1.0  0.60322  0.62939  0.47883  1.0000
  C   C18       1.0  0.89647  0.15058  0.52127  1.0000
  C   C19       1.0  0.39678  0.37061  0.52117  1.0000
  C   C20       1.0  0.10353  0.84942  0.47873  1.0000
  C   C21       1.0  0.68824  0.71026  0.61765  1.0000
  C   C22       1.0  0.81151  0.09266  0.38246  1.0000
  C   C23       1.0  0.31176  0.28974  0.38235  1.0000
  C   C24       1.0  0.18849  0.90733  0.61754  1.0000
  C   C25       1.0  0.84774  0.77545  0.81744  1.0000
  C   C26       1.0  0.65233  0.95771  0.18261  1.0000
  C   C27       1.0  0.15225  0.22455  0.18255  1.0000
  C   C28       1.0  0.34767  0.04229  0.81739  1.0000
  C   C29       1.0  0.92413  0.56618  0.65557  1.0000
  C   C30       1.0  0.57596  0.91045  0.34449  1.0000
  C   C31       1.0  0.07587  0.43382  0.34443  1.0000
  C   C32       1.0  0.42404  0.08954  0.65552  1.0000
  S   S1        1.0  0.98502  0.77668  0.95282  1.0000
  S   S2        1.0  0.51539  0.82333  0.04716  1.0000
  S   S3        1.0  0.01498  0.22332  0.04718  1.0000
  S   S4        1.0  0.48462  0.17667  0.95284  1.0000
  N   N1        1.0  0.66256  0.51215  0.41407  1.0000
  N   N2        1.0  0.83736  0.09789  0.58592  1.0000
  N   N3        1.0  0.33744  0.48785  0.58592  1.0000
  N   N4        1.0  0.16265  0.90210  0.41408  1.0000
  N   N5        1.0  0.63725  0.82545  0.69146  1.0000
  N   N6        1.0  0.86244  0.13404  0.30866  1.0000
  N   N7        1.0  0.36274  0.17455  0.30854  1.0000
  N   N8        1.0  0.13756  0.86596  0.69134  1.0000
  N   N9        1.0  0.73616  0.86487  0.81455  1.0000
  N   N10       1.0  0.76373  0.05016  0.18555  1.0000
  N   N11       1.0  0.26384  0.13513  0.18545  1.0000
  N   N12       1.0  0.23627  0.94984  0.81445  1.0000
  N   N13       1.0  0.82069  0.67643  0.69279  1.0000
  N   N14       1.0  0.67934  0.98345  0.30725  1.0000
  N   N15       1.0  0.17931  0.32357  0.30721  1.0000
  N   N16       1.0  0.32066  0.01655  0.69275  1.0000
