data_image0
_chemical_formula_structural       Cd2H36C54N8O10
_chemical_formula_sum              "Cd2 H36 C54 N8 O10"
_cell_length_a       9.47353
_cell_length_b       10.6604
_cell_length_c       13.591
_cell_angle_alpha    93.8641
_cell_angle_beta     102.442
_cell_angle_gamma    104.854

_space_group_name_H-M_alt    "P 1"
_space_group_IT_number       1

loop_
  _space_group_symop_operation_xyz
  'x, y, z'

loop_
  _atom_site_type_symbol
  _atom_site_label
  _atom_site_symmetry_multiplicity
  _atom_site_fract_x
  _atom_site_fract_y
  _atom_site_fract_z
  _atom_site_occupancy
  Cd  Cd1       1.0  0.56000  0.65619  0.17905  1.0000
  Cd  Cd2       1.0  0.44000  0.34380  0.82095  1.0000
  H   H1        1.0  0.58903  0.74446  0.01123  1.0000
  H   H2        1.0  0.41097  0.25555  0.98878  1.0000
  H   H3        1.0  0.42487  0.64689  0.97221  1.0000
  H   H4        1.0  0.57514  0.35311  0.02779  1.0000
  H   H5        1.0  0.85112  0.58907  0.36035  1.0000
  H   H6        1.0  0.14889  0.41094  0.63966  1.0000
  H   H7        1.0  0.51712  0.34373  0.17835  1.0000
  H   H8        1.0  0.48289  0.65627  0.82166  1.0000
  H   H9        1.0  0.33168  0.14148  0.20353  1.0000
  H   H10       1.0  0.66833  0.85852  0.79647  1.0000
  H   H11       1.0  0.09986  0.16501  0.25829  1.0000
  H   H12       1.0  0.90014  0.83499  0.74170  1.0000
  H   H13       1.0  0.03511  0.79042  0.33588  1.0000
  H   H14       1.0  0.96488  0.20958  0.66412  1.0000
  H   H15       1.0  0.23118  0.96956  0.29441  1.0000
  H   H16       1.0  0.76883  0.03044  0.70559  1.0000
  H   H17       1.0  0.43808  0.91194  0.22604  1.0000
  H   H18       1.0  0.56192  0.08806  0.77396  1.0000
  H   H19       1.0  0.69929  0.13212  0.33572  1.0000
  H   H20       1.0  0.30071  0.86788  0.66428  1.0000
  H   H21       1.0  0.49488  0.02882  0.41631  1.0000
  H   H22       1.0  0.50512  0.97118  0.58369  1.0000
  H   H23       1.0  0.39592  0.16708  0.52439  1.0000
  H   H24       1.0  0.60408  0.83293  0.47561  1.0000
  H   H25       1.0  0.50193  0.40831  0.55067  1.0000
  H   H26       1.0  0.49806  0.59169  0.44933  1.0000
  H   H27       1.0  0.70727  0.51290  0.47072  1.0000
  H   H28       1.0  0.29274  0.48711  0.52929  1.0000
  H   H29       1.0  0.81723  0.33401  0.06465  1.0000
  H   H30       1.0  0.18277  0.66599  0.93535  1.0000
  H   H31       1.0  0.98561  0.72978  0.00736  1.0000
  H   H32       1.0  0.01438  0.27022  0.99264  1.0000
  H   H33       1.0  0.89395  0.77146  0.53129  1.0000
  H   H34       1.0  0.10605  0.22854  0.46870  1.0000
  H   H35       1.0  0.90706  0.07286  0.33461  1.0000
  H   H36       1.0  0.09294  0.92713  0.66539  1.0000
  C   C1        1.0  0.41386  0.34878  0.19927  1.0000
  C   C2        1.0  0.58614  0.65122  0.80074  1.0000
  C   C3        1.0  0.31002  0.23627  0.21471  1.0000
  C   C4        1.0  0.68998  0.76373  0.78529  1.0000
  C   C5        1.0  0.18365  0.24921  0.24496  1.0000
  C   C6        1.0  0.81635  0.75079  0.75503  1.0000
  C   C7        1.0  0.16307  0.37476  0.26013  1.0000
  C   C8        1.0  0.83693  0.62524  0.73987  1.0000
  C   C9        1.0  0.04063  0.39998  0.29590  1.0000
  C   C10       1.0  0.95937  0.60002  0.70410  1.0000
  C   C11       1.0  0.02803  0.52756  0.31219  1.0000
  C   C12       1.0  0.97196  0.47244  0.68780  1.0000
  C   C13       1.0  0.13164  0.63862  0.29087  1.0000
  C   C14       1.0  0.86836  0.36138  0.70913  1.0000
  C   C15       1.0  0.12474  0.76874  0.30555  1.0000
  C   C16       1.0  0.87525  0.23126  0.69445  1.0000
  C   C17       1.0  0.23328  0.86812  0.28212  1.0000
  C   C18       1.0  0.76672  0.13188  0.71789  1.0000
  C   C19       1.0  0.34845  0.83688  0.24418  1.0000
  C   C20       1.0  0.65154  0.16312  0.75582  1.0000
  C   C21       1.0  0.27090  0.48353  0.23977  1.0000
  C   C22       1.0  0.72910  0.51647  0.76023  1.0000
  C   C23       1.0  0.25323  0.61528  0.25292  1.0000
  C   C24       1.0  0.74677  0.38472  0.74707  1.0000
  C   C25       1.0  0.84493  0.38408  0.35541  1.0000
  C   C26       1.0  0.15507  0.61592  0.64459  1.0000
  C   C27       1.0  0.71715  0.32905  0.39781  1.0000
  C   C28       1.0  0.28286  0.67095  0.60219  1.0000
  C   C29       1.0  0.65531  0.19227  0.38257  1.0000
  C   C30       1.0  0.34469  0.80774  0.61744  1.0000
  C   C31       1.0  0.54066  0.13489  0.42791  1.0000
  C   C32       1.0  0.45935  0.86512  0.57209  1.0000
  C   C33       1.0  0.48510  0.21232  0.48843  1.0000
  C   C34       1.0  0.51490  0.78768  0.51157  1.0000
  C   C35       1.0  0.54455  0.34826  0.50278  1.0000
  C   C36       1.0  0.45545  0.65175  0.49722  1.0000
  C   C37       1.0  0.65986  0.40680  0.45780  1.0000
  C   C38       1.0  0.34014  0.59320  0.54221  1.0000
  C   C39       1.0  0.89674  0.40645  0.03583  1.0000
  C   C40       1.0  0.10326  0.59355  0.96417  1.0000
  C   C41       1.0  0.88897  0.53642  0.03966  1.0000
  C   C42       1.0  0.11102  0.46358  0.96034  1.0000
  C   C43       1.0  0.99323  0.62937  0.00369  1.0000
  C   C44       1.0  0.00677  0.37063  0.99631  1.0000
  C   C45       1.0  0.93998  0.87158  0.51766  1.0000
  C   C46       1.0  0.06002  0.12841  0.48233  1.0000
  C   C47       1.0  0.88790  0.91230  0.42404  1.0000
  C   C48       1.0  0.11210  0.08770  0.57595  1.0000
  C   C49       1.0  0.94884  0.04102  0.40692  1.0000
  C   C50       1.0  0.05117  0.95897  0.59307  1.0000
  C   C51       1.0  0.77274  0.57851  0.08276  1.0000
  C   C52       1.0  0.22726  0.42149  0.91724  1.0000
  C   C53       1.0  0.76838  0.82084  0.34137  1.0000
  C   C54       1.0  0.23163  0.17915  0.65862  1.0000
  N   N1        1.0  0.39330  0.46759  0.20975  1.0000
  N   N2        1.0  0.60670  0.53241  0.79025  1.0000
  N   N3        1.0  0.35720  0.71451  0.23046  1.0000
  N   N4        1.0  0.64280  0.28549  0.76953  1.0000
  N   N5        1.0  0.92630  0.31226  0.32219  1.0000
  N   N6        1.0  0.07370  0.68774  0.67780  1.0000
  N   N7        1.0  0.90309  0.51555  0.35062  1.0000
  N   N8        1.0  0.09691  0.48445  0.64939  1.0000
  O   O1        1.0  0.78374  0.69939  0.09931  1.0000
  O   O2        1.0  0.21626  0.30061  0.90069  1.0000
  O   O3        1.0  0.66509  0.49013  0.10285  1.0000
  O   O4        1.0  0.33491  0.50987  0.89715  1.0000
  O   O5        1.0  0.69756  0.86832  0.27017  1.0000
  O   O6        1.0  0.30244  0.13168  0.72982  1.0000
  O   O7        1.0  0.74146  0.69644  0.34500  1.0000
  O   O8        1.0  0.25855  0.30355  0.65500  1.0000
  O   O9        1.0  0.48666  0.72752  0.02093  1.0000
  O   O10       1.0  0.51334  0.27248  0.97907  1.0000
