data_image0
_chemical_formula_structural       MnH20C20N2O6
_chemical_formula_sum              "Mn1 H20 C20 N2 O6"
_cell_length_a       5.50831
_cell_length_b       7.90853
_cell_length_c       10.8425
_cell_angle_alpha    108.919
_cell_angle_beta     98.1503
_cell_angle_gamma    96.7907

_space_group_name_H-M_alt    "P 1"
_space_group_IT_number       1

loop_
  _space_group_symop_operation_xyz
  'x, y, z'

loop_
  _atom_site_type_symbol
  _atom_site_label
  _atom_site_symmetry_multiplicity
  _atom_site_fract_x
  _atom_site_fract_y
  _atom_site_fract_z
  _atom_site_occupancy
  Mn  Mn1       1.0  0.00014  0.99957  0.99968  1.0000
  H   H1        1.0  0.26850  0.58298  0.25167  1.0000
  H   H2        1.0  0.73195  0.41702  0.74837  1.0000
  H   H3        1.0  0.50909  0.68585  0.19158  1.0000
  H   H4        1.0  0.49152  0.31422  0.80839  1.0000
  H   H5        1.0  0.09027  0.79864  0.44218  1.0000
  H   H6        1.0  0.90989  0.20149  0.55778  1.0000
  H   H7        1.0  0.78410  0.95941  0.33798  1.0000
  H   H8        1.0  0.21585  0.04063  0.66198  1.0000
  H   H9        1.0  0.68290  0.27771  0.11407  1.0000
  H   H10       1.0  0.31805  0.72357  0.88564  1.0000
  H   H11       1.0  0.66698  0.49176  0.33046  1.0000
  H   H12       1.0  0.33335  0.50949  0.66944  1.0000
  H   H13       1.0  0.35418  0.34952  0.48506  1.0000
  H   H14       1.0  0.64428  0.64962  0.51542  1.0000
  H   H15       1.0  0.34534  0.14547  0.26113  1.0000
  H   H16       1.0  0.65331  0.85357  0.73927  1.0000
  H   H17       1.0  0.55985  0.90743  0.06787  1.0000
  H   H18       1.0  0.44059  0.09227  0.93217  1.0000
  H   H19       1.0  0.76159  0.77055  0.06298  1.0000
  H   H20       1.0  0.23873  0.22895  0.93682  1.0000
  C   C1        1.0  0.14595  0.75531  0.15015  1.0000
  C   C2        1.0  0.85422  0.24433  0.84969  1.0000
  C   C3        1.0  0.34754  0.70931  0.23950  1.0000
  C   C4        1.0  0.65289  0.29064  0.76046  1.0000
  C   C5        1.0  0.42756  0.85987  0.37377  1.0000
  C   C6        1.0  0.57253  0.14021  0.62619  1.0000
  C   C7        1.0  0.27121  0.88623  0.46726  1.0000
  C   C8        1.0  0.72899  0.11380  0.53274  1.0000
  C   C9        1.0  0.65767  0.97684  0.40832  1.0000
  C   C10       1.0  0.34244  0.02318  0.59169  1.0000
  C   C11       1.0  0.82823  0.29601  0.19849  1.0000
  C   C12       1.0  0.17233  0.70491  0.80139  1.0000
  C   C13       1.0  0.82065  0.41673  0.32230  1.0000
  C   C14       1.0  0.17931  0.58403  0.67765  1.0000
  C   C15       1.0  0.00507  0.44054  0.43348  1.0000
  C   C16       1.0  0.99432  0.55975  0.56662  1.0000
  C   C17       1.0  0.19946  0.34057  0.40733  1.0000
  C   C18       1.0  0.79953  0.65916  0.59301  1.0000
  C   C19       1.0  0.19665  0.22333  0.28071  1.0000
  C   C20       1.0  0.80245  0.77627  0.71961  1.0000
  N   N1        1.0  0.01030  0.19432  0.17525  1.0000
  N   N2        1.0  0.98955  0.80598  0.82496  1.0000
  O   O1        1.0  0.21830  0.87153  0.09601  1.0000
  O   O2        1.0  0.78191  0.12822  0.90395  1.0000
  O   O3        1.0  0.92152  0.68430  0.13686  1.0000
  O   O4        1.0  0.07858  0.31517  0.86272  1.0000
  O   O5        1.0  0.68324  0.85382  0.01656  1.0000
  O   O6        1.0  0.31716  0.14595  0.98342  1.0000
