data_image0
_chemical_formula_structural       NiH20C20N2O6
_chemical_formula_sum              "Ni1 H20 C20 N2 O6"
_cell_length_a       5.5698
_cell_length_b       7.89646
_cell_length_c       11.4333
_cell_angle_alpha    114.438
_cell_angle_beta     91.8154
_cell_angle_gamma    103.03

_space_group_name_H-M_alt    "P 1"
_space_group_IT_number       1

loop_
  _space_group_symop_operation_xyz
  'x, y, z'

loop_
  _atom_site_type_symbol
  _atom_site_label
  _atom_site_symmetry_multiplicity
  _atom_site_fract_x
  _atom_site_fract_y
  _atom_site_fract_z
  _atom_site_occupancy
  Ni  Ni1       1.0  0.99998  0.50002  0.50001  1.0000
  H   H1        1.0  0.86344  0.24488  0.56717  1.0000
  H   H2        1.0  0.13655  0.75515  0.43285  1.0000
  H   H3        1.0  0.61143  0.31870  0.55301  1.0000
  H   H4        1.0  0.38857  0.68133  0.44701  1.0000
  H   H5        1.0  0.43750  0.84381  0.29971  1.0000
  H   H6        1.0  0.56249  0.15617  0.70026  1.0000
  H   H7        1.0  0.71963  0.95282  0.25963  1.0000
  H   H8        1.0  0.28040  0.04718  0.74036  1.0000
  H   H9        1.0  0.16723  0.55354  0.14016  1.0000
  H   H10       1.0  0.83282  0.44643  0.85984  1.0000
  H   H11       1.0  0.07364  0.28527  0.91790  1.0000
  H   H12       1.0  0.92642  0.71470  0.08210  1.0000
  H   H13       1.0  0.30244  0.24262  0.37651  1.0000
  H   H14       1.0  0.69754  0.75741  0.62351  1.0000
  H   H15       1.0  0.31213  0.01031  0.15266  1.0000
  H   H16       1.0  0.68785  0.98971  0.84735  1.0000
  H   H17       1.0  0.68749  0.17272  0.03113  1.0000
  H   H18       1.0  0.31248  0.82725  0.96888  1.0000
  H   H19       1.0  0.70725  0.39815  0.26062  1.0000
  H   H20       1.0  0.29271  0.60185  0.73937  1.0000
  C   C1        1.0  0.76636  0.76893  0.34796  1.0000
  C   C2        1.0  0.23365  0.23106  0.65204  1.0000
  C   C3        1.0  0.61038  0.81950  0.26075  1.0000
  C   C4        1.0  0.38965  0.18049  0.73923  1.0000
  C   C5        1.0  0.55258  0.65597  0.12574  1.0000
  C   C6        1.0  0.44748  0.34401  0.87424  1.0000
  C   C7        1.0  0.31356  0.53044  0.07858  1.0000
  C   C8        1.0  0.68648  0.46952  0.92139  1.0000
  C   C9        1.0  0.26192  0.37820  0.95460  1.0000
  C   C10       1.0  0.73814  0.62178  0.04538  1.0000
  C   C11       1.0  0.17420  0.22423  0.29568  1.0000
  C   C12       1.0  0.82578  0.77580  0.70433  1.0000
  C   C13       1.0  0.17480  0.09327  0.16916  1.0000
  C   C14       1.0  0.82515  0.90672  0.83085  1.0000
  C   C15       1.0  0.00113  0.06850  0.06791  1.0000
  C   C16       1.0  0.99884  0.93149  0.93210  1.0000
  C   C17       1.0  0.82855  0.18021  0.10249  1.0000
  C   C18       1.0  0.17140  0.81978  0.89752  1.0000
  C   C19       1.0  0.83734  0.30877  0.23057  1.0000
  C   C20       1.0  0.16263  0.69123  0.76943  1.0000
  N   N1        1.0  0.00874  0.33153  0.32580  1.0000
  N   N2        1.0  0.99125  0.66848  0.67420  1.0000
  O   O1        1.0  0.65473  0.67500  0.40718  1.0000
  O   O2        1.0  0.34525  0.32501  0.59282  1.0000
  O   O3        1.0  0.00090  0.81372  0.34940  1.0000
  O   O4        1.0  0.99911  0.18629  0.65061  1.0000
  O   O5        1.0  0.76510  0.28993  0.51018  1.0000
  O   O6        1.0  0.23490  0.71010  0.48983  1.0000
