data_image0
_chemical_formula_structural       Cu2H32C40N4O8
_chemical_formula_sum              "Cu2 H32 C40 N4 O8"
_cell_length_a       9.5137
_cell_length_b       10.4801
_cell_length_c       10.559
_cell_angle_alpha    116.392
_cell_angle_beta     96.9552
_cell_angle_gamma    103.733

_space_group_name_H-M_alt    "P 1"
_space_group_IT_number       1

loop_
  _space_group_symop_operation_xyz
  'x, y, z'

loop_
  _atom_site_type_symbol
  _atom_site_label
  _atom_site_symmetry_multiplicity
  _atom_site_fract_x
  _atom_site_fract_y
  _atom_site_fract_z
  _atom_site_occupancy
  Cu  Cu1       1.0  0.38397  0.82393  0.54769  1.0000
  Cu  Cu2       1.0  0.61603  0.17607  0.45231  1.0000
  H   H1        1.0  0.12374  0.11981  0.33428  1.0000
  H   H2        1.0  0.87625  0.88017  0.66573  1.0000
  H   H3        1.0  0.05959  0.95590  0.35392  1.0000
  H   H4        1.0  0.94041  0.04409  0.64609  1.0000
  H   H5        1.0  0.18377  0.09780  0.10739  1.0000
  H   H6        1.0  0.81623  0.90219  0.89262  1.0000
  H   H7        1.0  0.14762  0.93775  0.84228  1.0000
  H   H8        1.0  0.85239  0.06225  0.15772  1.0000
  H   H9        1.0  0.99719  0.54081  0.88308  1.0000
  H   H10       1.0  0.00281  0.45918  0.11691  1.0000
  H   H11       1.0  0.03563  0.70218  0.15070  1.0000
  H   H12       1.0  0.96437  0.29780  0.84930  1.0000
  H   H13       1.0  0.01656  0.51320  0.64941  1.0000
  H   H14       1.0  0.98345  0.48679  0.35058  1.0000
  H   H15       1.0  0.94598  0.64369  0.62158  1.0000
  H   H16       1.0  0.05402  0.35631  0.37842  1.0000
  H   H17       1.0  0.22146  0.03417  0.61572  1.0000
  H   H18       1.0  0.77855  0.96583  0.38427  1.0000
  H   H19       1.0  0.20566  0.25738  0.83268  1.0000
  H   H20       1.0  0.79435  0.74263  0.16731  1.0000
  H   H21       1.0  0.57233  0.22752  0.09227  1.0000
  H   H22       1.0  0.42767  0.77249  0.90773  1.0000
  H   H23       1.0  0.57493  0.00818  0.86239  1.0000
  H   H24       1.0  0.42507  0.99182  0.13761  1.0000
  H   H25       1.0  0.33643  0.51513  0.00163  1.0000
  H   H26       1.0  0.66357  0.48488  0.99837  1.0000
  H   H27       1.0  0.32874  0.73341  0.22927  1.0000
  H   H28       1.0  0.67126  0.26660  0.77073  1.0000
  H   H29       1.0  0.39280  0.52710  0.47530  1.0000
  H   H30       1.0  0.60719  0.47289  0.52469  1.0000
  H   H31       1.0  0.41581  0.30427  0.26334  1.0000
  H   H32       1.0  0.58418  0.69573  0.73665  1.0000
  C   C1        1.0  0.29745  0.03220  0.38080  1.0000
  C   C2        1.0  0.70256  0.96780  0.61920  1.0000
  C   C3        1.0  0.13679  0.01067  0.30983  1.0000
  C   C4        1.0  0.86321  0.98932  0.69017  1.0000
  C   C5        1.0  0.10970  0.91138  0.14739  1.0000
  C   C6        1.0  0.89030  0.08860  0.85261  1.0000
  C   C7        1.0  0.14421  0.97550  0.05892  1.0000
  C   C8        1.0  0.85578  0.02449  0.94109  1.0000
  C   C9        1.0  0.12365  0.88520  0.90956  1.0000
  C   C10       1.0  0.87634  0.11480  0.09045  1.0000
  C   C11       1.0  0.06854  0.72772  0.84334  1.0000
  C   C12       1.0  0.93146  0.27228  0.15666  1.0000
  C   C13       1.0  0.03854  0.66329  0.93237  1.0000
  C   C14       1.0  0.96146  0.33670  0.06763  1.0000
  C   C15       1.0  0.05885  0.75388  0.08239  1.0000
  C   C16       1.0  0.94114  0.24610  0.91761  1.0000
  C   C17       1.0  0.04212  0.63263  0.68019  1.0000
  C   C18       1.0  0.95788  0.36737  0.31981  1.0000
  C   C19       1.0  0.18134  0.68168  0.63300  1.0000
  C   C20       1.0  0.81866  0.31833  0.36700  1.0000
  C   C21       1.0  0.29841  0.08299  0.72276  1.0000
  C   C22       1.0  0.70160  0.91702  0.27723  1.0000
  C   C23       1.0  0.29063  0.20685  0.84418  1.0000
  C   C24       1.0  0.70937  0.79315  0.15581  1.0000
  C   C25       1.0  0.38731  0.26082  0.98145  1.0000
  C   C26       1.0  0.61270  0.73919  0.01855  1.0000
  C   C27       1.0  0.49155  0.18777  0.98877  1.0000
  C   C28       1.0  0.50846  0.81224  0.01122  1.0000
  C   C29       1.0  0.49403  0.06601  0.86097  1.0000
  C   C30       1.0  0.50598  0.93400  0.13902  1.0000
  C   C31       1.0  0.37831  0.39029  0.11250  1.0000
  C   C32       1.0  0.62168  0.60971  0.88749  1.0000
  C   C33       1.0  0.35068  0.51238  0.10428  1.0000
  C   C34       1.0  0.64932  0.48762  0.89572  1.0000
  C   C35       1.0  0.34613  0.63461  0.22975  1.0000
  C   C36       1.0  0.65387  0.36540  0.77026  1.0000
  C   C37       1.0  0.38491  0.51978  0.36831  1.0000
  C   C38       1.0  0.61508  0.48021  0.63168  1.0000
  C   C39       1.0  0.39532  0.39545  0.24872  1.0000
  C   C40       1.0  0.60467  0.60455  0.75127  1.0000
  N   N1        1.0  0.39894  0.01354  0.73026  1.0000
  N   N2        1.0  0.60106  0.98646  0.26974  1.0000
  N   N3        1.0  0.36337  0.63852  0.35992  1.0000
  N   N4        1.0  0.63662  0.36148  0.64008  1.0000
  O   O1        1.0  0.31953  0.93170  0.40604  1.0000
  O   O2        1.0  0.68048  0.06831  0.59397  1.0000
  O   O3        1.0  0.39845  0.14990  0.39978  1.0000
  O   O4        1.0  0.60155  0.85010  0.60021  1.0000
  O   O5        1.0  0.30112  0.66635  0.67874  1.0000
  O   O6        1.0  0.69888  0.33366  0.32127  1.0000
  O   O7        1.0  0.16841  0.74235  0.55073  1.0000
  O   O8        1.0  0.83159  0.25765  0.44927  1.0000
