data_image0
_chemical_formula_structural       CuH16C16N4O4
_chemical_formula_sum              "Cu1 H16 C16 N4 O4"
_cell_length_a       7.1616
_cell_length_b       7.179
_cell_length_c       8.92246
_cell_angle_alpha    98.3135
_cell_angle_beta     105.811
_cell_angle_gamma    98.1595

_space_group_name_H-M_alt    "P 1"
_space_group_IT_number       1

loop_
  _space_group_symop_operation_xyz
  'x, y, z'

loop_
  _atom_site_type_symbol
  _atom_site_label
  _atom_site_symmetry_multiplicity
  _atom_site_fract_x
  _atom_site_fract_y
  _atom_site_fract_z
  _atom_site_occupancy
  Cu  Cu1       1.0  0.00000  0.00000  0.00000  1.0000
  H   H1        1.0  0.10689  0.21716  0.56945  1.0000
  H   H2        1.0  0.89310  0.78284  0.43054  1.0000
  H   H3        1.0  0.26374  0.05544  0.53573  1.0000
  H   H4        1.0  0.73626  0.94456  0.46428  1.0000
  H   H5        1.0  0.18142  0.55877  0.53947  1.0000
  H   H6        1.0  0.81858  0.44122  0.46053  1.0000
  H   H7        1.0  0.57145  0.17076  0.46936  1.0000
  H   H8        1.0  0.42855  0.82923  0.53065  1.0000
  H   H9        1.0  0.36414  0.33512  0.21421  1.0000
  H   H10       1.0  0.63587  0.66488  0.78579  1.0000
  H   H11       1.0  0.43332  0.65295  0.12607  1.0000
  H   H12       1.0  0.56668  0.34705  0.87392  1.0000
  H   H13       1.0  0.19836  0.65824  0.85165  1.0000
  H   H14       1.0  0.80163  0.34176  0.14835  1.0000
  H   H15       1.0  0.95851  0.29543  0.76277  1.0000
  H   H16       1.0  0.04148  0.70457  0.23723  1.0000
  C   C1        1.0  0.06995  0.11437  0.32241  1.0000
  C   C2        1.0  0.93002  0.88564  0.67758  1.0000
  C   C3        1.0  0.20017  0.17673  0.49601  1.0000
  C   C4        1.0  0.79983  0.82326  0.50399  1.0000
  C   C5        1.0  0.35874  0.34397  0.50619  1.0000
  C   C6        1.0  0.64126  0.65602  0.49382  1.0000
  C   C7        1.0  0.32031  0.53105  0.52108  1.0000
  C   C8        1.0  0.67969  0.46895  0.47892  1.0000
  C   C9        1.0  0.54057  0.31555  0.48520  1.0000
  C   C10       1.0  0.45944  0.68445  0.51481  1.0000
  C   C11       1.0  0.28566  0.37055  0.10318  1.0000
  C   C12       1.0  0.71434  0.62945  0.89681  1.0000
  C   C13       1.0  0.19943  0.53588  0.91068  1.0000
  C   C14       1.0  0.80056  0.46412  0.08932  1.0000
  C   C15       1.0  0.08147  0.35683  0.86792  1.0000
  C   C16       1.0  0.91853  0.64317  0.13209  1.0000
  N   N1        1.0  0.13647  0.25552  0.98863  1.0000
  N   N2        1.0  0.86352  0.74448  0.01137  1.0000
  N   N3        1.0  0.32593  0.54087  0.05940  1.0000
  N   N4        1.0  0.67407  0.45913  0.94061  1.0000
  O   O1        1.0  0.15784  0.03605  0.22737  1.0000
  O   O2        1.0  0.84217  0.96394  0.77262  1.0000
  O   O3        1.0  0.89813  0.14631  0.28196  1.0000
  O   O4        1.0  0.10191  0.85368  0.71804  1.0000
