data_image0
_chemical_formula_structural       Ni2H40C32N8O12
_chemical_formula_sum              "Ni2 H40 C32 N8 O12"
_cell_length_a       7.90711
_cell_length_b       10.6927
_cell_length_c       11.3314
_cell_angle_alpha    103.697
_cell_angle_beta     102.326
_cell_angle_gamma    103.962

_space_group_name_H-M_alt    "P 1"
_space_group_IT_number       1

loop_
  _space_group_symop_operation_xyz
  'x, y, z'

loop_
  _atom_site_type_symbol
  _atom_site_label
  _atom_site_symmetry_multiplicity
  _atom_site_fract_x
  _atom_site_fract_y
  _atom_site_fract_z
  _atom_site_occupancy
  Ni  Ni1       1.0  0.50000  0.50000  1.00000  1.0000
  Ni  Ni2       1.0  0.50000  0.00000  0.00000  1.0000
  H   H1        1.0  0.41851  0.71954  0.68811  1.0000
  H   H2        1.0  0.58149  0.28046  0.31189  1.0000
  H   H3        1.0  0.46784  0.60352  0.56928  1.0000
  H   H4        1.0  0.53216  0.39648  0.43072  1.0000
  H   H5        1.0  0.23265  0.52253  0.38319  1.0000
  H   H6        1.0  0.76735  0.47747  0.61681  1.0000
  H   H7        1.0  0.09547  0.56795  0.73491  1.0000
  H   H8        1.0  0.90453  0.43205  0.26509  1.0000
  H   H9        1.0  0.47629  0.64072  0.19908  1.0000
  H   H10       1.0  0.52371  0.35928  0.80091  1.0000
  H   H11       1.0  0.52662  0.76021  0.13322  1.0000
  H   H12       1.0  0.47338  0.23979  0.86678  1.0000
  H   H13       1.0  0.15931  0.33464  0.74743  1.0000
  H   H14       1.0  0.84069  0.66536  0.25256  1.0000
  H   H15       1.0  0.17461  0.43465  0.13293  1.0000
  H   H16       1.0  0.82539  0.56535  0.86707  1.0000
  H   H17       1.0  0.84545  0.28956  0.00307  1.0000
  H   H18       1.0  0.15456  0.71044  0.99693  1.0000
  H   H19       1.0  0.81152  0.22947  0.76589  1.0000
  H   H20       1.0  0.18848  0.77053  0.23411  1.0000
  H   H21       1.0  0.08921  0.98883  0.57047  1.0000
  H   H22       1.0  0.91079  0.01117  0.42953  1.0000
  H   H23       1.0  0.24238  0.15249  0.66399  1.0000
  H   H24       1.0  0.75761  0.84752  0.33601  1.0000
  H   H25       1.0  0.25357  0.80408  0.49833  1.0000
  H   H26       1.0  0.74643  0.19592  0.50167  1.0000
  H   H27       1.0  0.50922  0.23480  0.60425  1.0000
  H   H28       1.0  0.49078  0.76520  0.39575  1.0000
  H   H29       1.0  0.25501  0.81262  0.83822  1.0000
  H   H30       1.0  0.74499  0.18739  0.16178  1.0000
  H   H31       1.0  0.37531  0.72490  0.89340  1.0000
  H   H32       1.0  0.62469  0.27510  0.10660  1.0000
  H   H33       1.0  0.20244  0.15562  0.97987  1.0000
  H   H34       1.0  0.79755  0.84438  0.02013  1.0000
  H   H35       1.0  0.03514  0.20929  0.17234  1.0000
  H   H36       1.0  0.96486  0.79071  0.82766  1.0000
  H   H37       1.0  0.16457  0.10183  0.33044  1.0000
  H   H38       1.0  0.83544  0.89817  0.66957  1.0000
  H   H39       1.0  0.38770  0.98307  0.26049  1.0000
  H   H40       1.0  0.61231  0.01693  0.73951  1.0000
  C   C1        1.0  0.44757  0.53952  0.73277  1.0000
  C   C2        1.0  0.55243  0.46048  0.26723  1.0000
  C   C3        1.0  0.38852  0.61175  0.63781  1.0000
  C   C4        1.0  0.61148  0.38825  0.36219  1.0000
  C   C5        1.0  0.18766  0.55197  0.56737  1.0000
  C   C6        1.0  0.81233  0.44803  0.43263  1.0000
  C   C7        1.0  0.13023  0.51241  0.43453  1.0000
  C   C8        1.0  0.86977  0.48758  0.56546  1.0000
  C   C9        1.0  0.05443  0.53841  0.63161  1.0000
  C   C10       1.0  0.94557  0.46158  0.36839  1.0000
  C   C11       1.0  0.11188  0.33756  0.83062  1.0000
  C   C12       1.0  0.88812  0.66244  0.16937  1.0000
  C   C13       1.0  0.12555  0.39238  0.03067  1.0000
  C   C14       1.0  0.87445  0.60762  0.96933  1.0000
  C   C15       1.0  0.93918  0.28468  0.83814  1.0000
  C   C16       1.0  0.06082  0.71532  0.16186  1.0000
  C   C17       1.0  0.26139  0.98768  0.74288  1.0000
  C   C18       1.0  0.73861  0.01232  0.25712  1.0000
  C   C19       1.0  0.22855  0.04458  0.63084  1.0000
  C   C20       1.0  0.77145  0.95543  0.36916  1.0000
  C   C21       1.0  0.36443  0.02217  0.55867  1.0000
  C   C22       1.0  0.63557  0.97784  0.44134  1.0000
  C   C23       1.0  0.36044  0.89040  0.49804  1.0000
  C   C24       1.0  0.63955  0.10960  0.50196  1.0000
  C   C25       1.0  0.50533  0.13154  0.55943  1.0000
  C   C26       1.0  0.49467  0.86846  0.44057  1.0000
  C   C27       1.0  0.21555  0.12805  0.06640  1.0000
  C   C28       1.0  0.78444  0.87194  0.93360  1.0000
  C   C29       1.0  0.13366  0.15675  0.16025  1.0000
  C   C30       1.0  0.86634  0.84325  0.83976  1.0000
  C   C31       1.0  0.31564  0.03618  0.20827  1.0000
  C   C32       1.0  0.68437  0.96382  0.79173  1.0000
  N   N1        1.0  0.22727  0.40427  0.95158  1.0000
  N   N2        1.0  0.77273  0.59573  0.04842  1.0000
  N   N3        1.0  0.95089  0.31992  0.96523  1.0000
  N   N4        1.0  0.04912  0.68008  0.03477  1.0000
  N   N5        1.0  0.32885  0.05329  0.09744  1.0000
  N   N6        1.0  0.67115  0.94671  0.90256  1.0000
  N   N7        1.0  0.19811  0.09762  0.24844  1.0000
  N   N8        1.0  0.80190  0.90238  0.75157  1.0000
  O   O1        1.0  0.49081  0.43389  0.69316  1.0000
  O   O2        1.0  0.50919  0.56610  0.30683  1.0000
  O   O3        1.0  0.44621  0.58865  0.84754  1.0000
  O   O4        1.0  0.55379  0.41135  0.15246  1.0000
  O   O5        1.0  0.45042  0.66606  0.11816  1.0000
  O   O6        1.0  0.54958  0.33394  0.88184  1.0000
  O   O7        1.0  0.37801  0.06742  0.84703  1.0000
  O   O8        1.0  0.62199  0.93258  0.15297  1.0000
  O   O9        1.0  0.17882  0.86470  0.72302  1.0000
  O   O10       1.0  0.82118  0.13531  0.27698  1.0000
  O   O11       1.0  0.31490  0.79551  0.91924  1.0000
  O   O12       1.0  0.68510  0.20449  0.08076  1.0000
