data_image0
_chemical_formula_structural       U2H10C14N2O14
_chemical_formula_sum              "U2 H10 C14 N2 O14"
_cell_length_a       6.26823
_cell_length_b       8.12639
_cell_length_c       11.8072
_cell_angle_alpha    106.907
_cell_angle_beta     96.957
_cell_angle_gamma    114.651

_space_group_name_H-M_alt    "P 1"
_space_group_IT_number       1

loop_
  _space_group_symop_operation_xyz
  'x, y, z'

loop_
  _atom_site_type_symbol
  _atom_site_label
  _atom_site_symmetry_multiplicity
  _atom_site_fract_x
  _atom_site_fract_y
  _atom_site_fract_z
  _atom_site_occupancy
  U   U1        1.0  0.75430  0.91756  0.84658  1.0000
  U   U2        1.0  0.24571  0.08245  0.15341  1.0000
  H   H1        1.0  0.95051  0.31200  0.14228  1.0000
  H   H2        1.0  0.04949  0.68801  0.85772  1.0000
  H   H3        1.0  0.75052  0.02839  0.09218  1.0000
  H   H4        1.0  0.24948  0.97161  0.90782  1.0000
  H   H5        1.0  0.18965  0.06074  0.53602  1.0000
  H   H6        1.0  0.81034  0.93925  0.46398  1.0000
  H   H7        1.0  0.02946  0.76061  0.33801  1.0000
  H   H8        1.0  0.97055  0.23939  0.66198  1.0000
  H   H9        1.0  0.39948  0.54455  0.54073  1.0000
  H   H10       1.0  0.60052  0.45545  0.45928  1.0000
  C   C1        1.0  0.36300  0.95042  0.63736  1.0000
  C   C2        1.0  0.63700  0.04957  0.36264  1.0000
  C   C3        1.0  0.22366  0.93851  0.53123  1.0000
  C   C4        1.0  0.77632  0.06148  0.46876  1.0000
  C   C5        1.0  0.13901  0.77503  0.42311  1.0000
  C   C6        1.0  0.86101  0.22497  0.57690  1.0000
  C   C7        1.0  0.20581  0.63106  0.42483  1.0000
  C   C8        1.0  0.79419  0.36893  0.57518  1.0000
  C   C9        1.0  0.34708  0.65431  0.53524  1.0000
  C   C10       1.0  0.65294  0.34570  0.46477  1.0000
  C   C11       1.0  0.45907  0.12244  0.75840  1.0000
  C   C12       1.0  0.54093  0.87756  0.24160  1.0000
  C   C13       1.0  0.13860  0.45850  0.31178  1.0000
  C   C14       1.0  0.86140  0.54151  0.68822  1.0000
  N   N1        1.0  0.42385  0.81000  0.63945  1.0000
  N   N2        1.0  0.57615  0.18999  0.36054  1.0000
  O   O1        1.0  0.96362  0.09482  0.79624  1.0000
  O   O2        1.0  0.03638  0.90519  0.20376  1.0000
  O   O3        1.0  0.54059  0.72775  0.88514  1.0000
  O   O4        1.0  0.45939  0.27226  0.11484  1.0000
  O   O5        1.0  0.51943  0.07739  0.85209  1.0000
  O   O6        1.0  0.48056  0.92261  0.14792  1.0000
  O   O7        1.0  0.47600  0.27983  0.76223  1.0000
  O   O8        1.0  0.52400  0.72017  0.23777  1.0000
  O   O9        1.0  0.99679  0.44207  0.21465  1.0000
  O   O10       1.0  0.00322  0.55793  0.78535  1.0000
  O   O11       1.0  0.21578  0.33895  0.31463  1.0000
  O   O12       1.0  0.78421  0.66103  0.68538  1.0000
  O   O13       1.0  0.89042  0.10229  0.06387  1.0000
  O   O14       1.0  0.10958  0.89771  0.93613  1.0000
