data_image0
_chemical_formula_structural       Ca2H20C8N4O20
_chemical_formula_sum              "Ca2 H20 C8 N4 O20"
_cell_length_a       7.38605
_cell_length_b       7.38605
_cell_length_c       10.4594
_cell_angle_alpha    81.1998
_cell_angle_beta     81.1999
_cell_angle_gamma    65.9193

_space_group_name_H-M_alt    "P 1"
_space_group_IT_number       1

loop_
  _space_group_symop_operation_xyz
  'x, y, z'

loop_
  _atom_site_type_symbol
  _atom_site_label
  _atom_site_symmetry_multiplicity
  _atom_site_fract_x
  _atom_site_fract_y
  _atom_site_fract_z
  _atom_site_occupancy
  Ca  Ca1       1.0  0.18639  0.81361  0.25000  1.0000
  Ca  Ca2       1.0  0.81361  0.18639  0.75000  1.0000
  H   H1        1.0  0.34214  0.28444  0.51584  1.0000
  H   H2        1.0  0.28444  0.34213  0.01584  1.0000
  H   H3        1.0  0.65786  0.71556  0.48415  1.0000
  H   H4        1.0  0.71556  0.65787  0.98415  1.0000
  H   H5        1.0  0.11809  0.50185  0.54339  1.0000
  H   H6        1.0  0.50185  0.11809  0.04339  1.0000
  H   H7        1.0  0.88191  0.49815  0.45661  1.0000
  H   H8        1.0  0.49815  0.88191  0.95661  1.0000
  H   H9        1.0  0.36608  0.56252  0.62613  1.0000
  H   H10       1.0  0.56252  0.36608  0.12613  1.0000
  H   H11       1.0  0.63392  0.43748  0.37386  1.0000
  H   H12       1.0  0.43748  0.63392  0.87386  1.0000
  H   H13       1.0  0.21944  0.37482  0.32360  1.0000
  H   H14       1.0  0.37482  0.21944  0.82360  1.0000
  H   H15       1.0  0.78056  0.62518  0.67640  1.0000
  H   H16       1.0  0.62518  0.78056  0.17640  1.0000
  H   H17       1.0  0.26043  0.85236  0.51611  1.0000
  H   H18       1.0  0.85236  0.26043  0.01611  1.0000
  H   H19       1.0  0.73957  0.14764  0.48389  1.0000
  H   H20       1.0  0.14764  0.73957  0.98389  1.0000
  C   C1        1.0  0.26656  0.44490  0.48877  1.0000
  C   C2        1.0  0.44490  0.26656  0.98877  1.0000
  C   C3        1.0  0.73344  0.55510  0.51123  1.0000
  C   C4        1.0  0.55510  0.73344  0.01123  1.0000
  C   C5        1.0  0.38787  0.55327  0.52030  1.0000
  C   C6        1.0  0.55327  0.38787  0.02030  1.0000
  C   C7        1.0  0.61213  0.44673  0.47970  1.0000
  C   C8        1.0  0.44673  0.61213  0.97970  1.0000
  N   N1        1.0  0.74501  0.95974  0.30779  1.0000
  N   N2        1.0  0.95975  0.74498  0.80780  1.0000
  N   N3        1.0  0.25500  0.04026  0.69221  1.0000
  N   N4        1.0  0.04027  0.25498  0.19221  1.0000
  O   O1        1.0  0.24893  0.48169  0.35080  1.0000
  O   O2        1.0  0.48169  0.24893  0.85079  1.0000
  O   O3        1.0  0.75107  0.51831  0.64920  1.0000
  O   O4        1.0  0.51830  0.75107  0.14920  1.0000
  O   O5        1.0  0.31806  0.75013  0.45246  1.0000
  O   O6        1.0  0.75013  0.31806  0.95245  1.0000
  O   O7        1.0  0.68194  0.24987  0.54754  1.0000
  O   O8        1.0  0.24987  0.68194  0.04754  1.0000
  O   O9        1.0  0.82775  0.84179  0.21922  1.0000
  O   O10       1.0  0.84179  0.82774  0.71922  1.0000
  O   O11       1.0  0.17225  0.15821  0.78078  1.0000
  O   O12       1.0  0.15821  0.17225  0.28078  1.0000
  O   O13       1.0  0.86356  0.98338  0.37709  1.0000
  O   O14       1.0  0.98338  0.86357  0.87709  1.0000
  O   O15       1.0  0.13644  0.01662  0.62291  1.0000
  O   O16       1.0  0.01662  0.13644  0.12291  1.0000
  O   O17       1.0  0.56221  0.04684  0.32790  1.0000
  O   O18       1.0  0.04682  0.56222  0.82791  1.0000
  O   O19       1.0  0.43779  0.95316  0.67211  1.0000
  O   O20       1.0  0.95316  0.43780  0.17211  1.0000
