data_image0
_chemical_formula_structural       Ca4H36C8Cl8O16
_chemical_formula_sum              "Ca4 H36 C8 Cl8 O16"
_cell_length_a       5.76896
_cell_length_b       6.26821
_cell_length_c       21.7981
_cell_angle_alpha    88.3243
_cell_angle_beta     90.0002
_cell_angle_gamma    89.9996

_space_group_name_H-M_alt    "P 1"
_space_group_IT_number       1

loop_
  _space_group_symop_operation_xyz
  'x, y, z'

loop_
  _atom_site_type_symbol
  _atom_site_label
  _atom_site_symmetry_multiplicity
  _atom_site_fract_x
  _atom_site_fract_y
  _atom_site_fract_z
  _atom_site_occupancy
  Ca  Ca1       1.0  0.24819  0.95440  0.65315  1.0000
  Ca  Ca2       1.0  0.25180  0.95438  0.15315  1.0000
  Ca  Ca3       1.0  0.75180  0.04561  0.34685  1.0000
  Ca  Ca4       1.0  0.74821  0.04561  0.84685  1.0000
  H   H1        1.0  0.76045  0.03611  0.51057  1.0000
  H   H2        1.0  0.73954  0.03610  0.01058  1.0000
  H   H3        1.0  0.23952  0.96389  0.48943  1.0000
  H   H4        1.0  0.26043  0.96390  0.98943  1.0000
  H   H5        1.0  0.65171  0.33165  0.57233  1.0000
  H   H6        1.0  0.84827  0.33165  0.07233  1.0000
  H   H7        1.0  0.34828  0.66835  0.42767  1.0000
  H   H8        1.0  0.15174  0.66836  0.92767  1.0000
  H   H9        1.0  0.48762  0.35809  0.50279  1.0000
  H   H10       1.0  0.01237  0.35808  0.00279  1.0000
  H   H11       1.0  0.51239  0.64192  0.49721  1.0000
  H   H12       1.0  0.98763  0.64190  0.99720  1.0000
  H   H13       1.0  0.68949  0.80862  0.58553  1.0000
  H   H14       1.0  0.81049  0.80860  0.08553  1.0000
  H   H15       1.0  0.31050  0.19140  0.41448  1.0000
  H   H16       1.0  0.18949  0.19137  0.91448  1.0000
  H   H17       1.0  0.22036  0.38207  0.57781  1.0000
  H   H18       1.0  0.27962  0.38207  0.07781  1.0000
  H   H19       1.0  0.77963  0.61795  0.42219  1.0000
  H   H20       1.0  0.72038  0.61792  0.92218  1.0000
  H   H21       1.0  0.80819  0.19871  0.69054  1.0000
  H   H22       1.0  0.69180  0.19869  0.19054  1.0000
  H   H23       1.0  0.19180  0.80130  0.30946  1.0000
  H   H24       1.0  0.30821  0.80129  0.80946  1.0000
  H   H25       1.0  0.94490  0.35375  0.64541  1.0000
  H   H26       1.0  0.55510  0.35373  0.14541  1.0000
  H   H27       1.0  0.05511  0.64626  0.35459  1.0000
  H   H28       1.0  0.44491  0.64625  0.85459  1.0000
  H   H29       1.0  0.46878  0.53413  0.70748  1.0000
  H   H30       1.0  0.03121  0.53412  0.20748  1.0000
  H   H31       1.0  0.53122  0.46586  0.29252  1.0000
  H   H32       1.0  0.96879  0.46587  0.79252  1.0000
  H   H33       1.0  0.64479  0.72116  0.71519  1.0000
  H   H34       1.0  0.85521  0.72114  0.21519  1.0000
  H   H35       1.0  0.35522  0.27884  0.28481  1.0000
  H   H36       1.0  0.14479  0.27886  0.78481  1.0000
  C   C1        1.0  0.57884  0.03815  0.52609  1.0000
  C   C2        1.0  0.92115  0.03815  0.02608  1.0000
  C   C3        1.0  0.42115  0.96184  0.47392  1.0000
  C   C4        1.0  0.07885  0.96186  0.97392  1.0000
  C   C5        1.0  0.51449  0.26055  0.54460  1.0000
  C   C6        1.0  0.98548  0.26053  0.04460  1.0000
  C   C7        1.0  0.48551  0.73944  0.45540  1.0000
  C   C8        1.0  0.01453  0.73947  0.95541  1.0000
  Cl  Cl1       1.0  0.97613  0.79778  0.75936  1.0000
  Cl  Cl2       1.0  0.52388  0.79778  0.25936  1.0000
  Cl  Cl3       1.0  0.02387  0.20221  0.24064  1.0000
  Cl  Cl4       1.0  0.47613  0.20222  0.74064  1.0000
  Cl  Cl5       1.0  0.00746  0.65223  0.58952  1.0000
  Cl  Cl6       1.0  0.49253  0.65221  0.08952  1.0000
  Cl  Cl7       1.0  0.99255  0.34779  0.41048  1.0000
  Cl  Cl8       1.0  0.50747  0.34778  0.91047  1.0000
  O   O1        1.0  0.54972  0.89878  0.57915  1.0000
  O   O2        1.0  0.95025  0.89878  0.07915  1.0000
  O   O3        1.0  0.45028  0.10123  0.42085  1.0000
  O   O4        1.0  0.04975  0.10121  0.92086  1.0000
  O   O5        1.0  0.30224  0.24330  0.57905  1.0000
  O   O6        1.0  0.19774  0.24330  0.07906  1.0000
  O   O7        1.0  0.69774  0.75671  0.42095  1.0000
  O   O8        1.0  0.80226  0.75670  0.92094  1.0000
  O   O9        1.0  0.93867  0.20513  0.66147  1.0000
  O   O10       1.0  0.56131  0.20512  0.16147  1.0000
  O   O11       1.0  0.06133  0.79488  0.33853  1.0000
  O   O12       1.0  0.43869  0.79487  0.83853  1.0000
  O   O13       1.0  0.49803  0.68403  0.69497  1.0000
  O   O14       1.0  0.00197  0.68402  0.19497  1.0000
  O   O15       1.0  0.50196  0.31597  0.30503  1.0000
  O   O16       1.0  0.99805  0.31597  0.80504  1.0000
