data_image0
_chemical_formula_structural       Rb4H52C72O4
_chemical_formula_sum              "Rb4 H52 C72 O4"
_cell_length_a       5.55259
_cell_length_b       11.701
_cell_length_c       21.1151
_cell_angle_alpha    89.9992
_cell_angle_beta     89.9995
_cell_angle_gamma    92.9787

_space_group_name_H-M_alt    "P 1"
_space_group_IT_number       1

loop_
  _space_group_symop_operation_xyz
  'x, y, z'

loop_
  _atom_site_type_symbol
  _atom_site_label
  _atom_site_symmetry_multiplicity
  _atom_site_fract_x
  _atom_site_fract_y
  _atom_site_fract_z
  _atom_site_occupancy
  Rb  Rb1       1.0  0.24320  0.94891  0.95124  1.0000
  Rb  Rb2       1.0  0.24323  0.44890  0.54876  1.0000
  Rb  Rb3       1.0  0.75678  0.05109  0.04876  1.0000
  Rb  Rb4       1.0  0.75679  0.55109  0.45124  1.0000
  H   H1        1.0  0.33845  0.52437  0.96227  1.0000
  H   H2        1.0  0.33847  0.02436  0.53773  1.0000
  H   H3        1.0  0.66159  0.47564  0.03773  1.0000
  H   H4        1.0  0.66150  0.97562  0.46227  1.0000
  H   H5        1.0  0.56172  0.46001  0.86824  1.0000
  H   H6        1.0  0.56170  0.96002  0.63176  1.0000
  H   H7        1.0  0.43831  0.53999  0.13176  1.0000
  H   H8        1.0  0.43828  0.03998  0.36824  1.0000
  H   H9        1.0  0.85063  0.59710  0.81446  1.0000
  H   H10       1.0  0.85059  0.09710  0.68554  1.0000
  H   H11       1.0  0.14938  0.40291  0.18553  1.0000
  H   H12       1.0  0.14939  0.90290  0.31446  1.0000
  H   H13       1.0  0.66478  0.81405  0.06842  1.0000
  H   H14       1.0  0.66474  0.31404  0.43157  1.0000
  H   H15       1.0  0.33522  0.18595  0.93158  1.0000
  H   H16       1.0  0.33525  0.68594  0.56842  1.0000
  H   H17       1.0  0.45209  0.83692  0.17069  1.0000
  H   H18       1.0  0.45201  0.33694  0.32931  1.0000
  H   H19       1.0  0.54794  0.16307  0.82932  1.0000
  H   H20       1.0  0.54798  0.66305  0.67068  1.0000
  H   H21       1.0  0.04188  0.74047  0.18676  1.0000
  H   H22       1.0  0.04181  0.24050  0.31325  1.0000
  H   H23       1.0  0.95813  0.25951  0.81325  1.0000
  H   H24       1.0  0.95817  0.75951  0.68675  1.0000
  H   H25       1.0  0.84568  0.63305  0.09772  1.0000
  H   H26       1.0  0.84564  0.13306  0.40229  1.0000
  H   H27       1.0  0.15435  0.36694  0.90229  1.0000
  H   H28       1.0  0.15433  0.86696  0.59770  1.0000
  H   H29       1.0  0.04700  0.62224  0.99394  1.0000
  H   H30       1.0  0.04697  0.12224  0.50607  1.0000
  H   H31       1.0  0.95301  0.37776  0.00606  1.0000
  H   H32       1.0  0.95297  0.87778  0.49393  1.0000
  H   H33       1.0  0.22821  0.68664  0.82844  1.0000
  H   H34       1.0  0.22823  0.18666  0.67156  1.0000
  H   H35       1.0  0.77178  0.31336  0.17156  1.0000
  H   H36       1.0  0.77181  0.81335  0.32844  1.0000
  H   H37       1.0  0.49354  0.80744  0.75867  1.0000
  H   H38       1.0  0.49354  0.30745  0.74133  1.0000
  H   H39       1.0  0.50645  0.19257  0.24133  1.0000
  H   H40       1.0  0.50646  0.69255  0.25868  1.0000
  H   H41       1.0  0.38749  0.00635  0.73198  1.0000
  H   H42       1.0  0.38747  0.50635  0.76802  1.0000
  H   H43       1.0  0.61250  0.99365  0.26801  1.0000
  H   H44       1.0  0.61253  0.49365  0.23200  1.0000
  H   H45       1.0  0.01347  0.08295  0.77745  1.0000
  H   H46       1.0  0.01348  0.58296  0.72255  1.0000
  H   H47       1.0  0.98652  0.91705  0.22253  1.0000
  H   H48       1.0  0.98655  0.41704  0.27745  1.0000
  H   H49       1.0  0.74333  0.96077  0.84515  1.0000
  H   H50       1.0  0.74333  0.46080  0.65484  1.0000
  H   H51       1.0  0.25666  0.03923  0.15484  1.0000
  H   H52       1.0  0.25670  0.53922  0.34516  1.0000
  C   C1        1.0  0.67811  0.77475  0.93501  1.0000
  C   C2        1.0  0.67812  0.27475  0.56500  1.0000
  C   C3        1.0  0.32192  0.22526  0.06499  1.0000
  C   C4        1.0  0.32186  0.72524  0.43500  1.0000
  C   C5        1.0  0.50630  0.69370  0.96433  1.0000
  C   C6        1.0  0.50628  0.19370  0.53568  1.0000
  C   C7        1.0  0.49372  0.30629  0.03567  1.0000
  C   C8        1.0  0.49370  0.80630  0.46432  1.0000
  C   C9        1.0  0.46444  0.58411  0.93813  1.0000
  C   C10       1.0  0.46442  0.08410  0.56186  1.0000
  C   C11       1.0  0.53557  0.41589  0.06187  1.0000
  C   C12       1.0  0.53557  0.91589  0.43814  1.0000
  C   C13       1.0  0.58802  0.54757  0.88531  1.0000
  C   C14       1.0  0.58801  0.04757  0.61468  1.0000
  C   C15       1.0  0.41198  0.45243  0.11468  1.0000
  C   C16       1.0  0.41199  0.95243  0.38532  1.0000
  C   C17       1.0  0.75252  0.62446  0.85608  1.0000
  C   C18       1.0  0.75249  0.12447  0.64392  1.0000
  C   C19       1.0  0.24748  0.37555  0.14392  1.0000
  C   C20       1.0  0.24750  0.87554  0.35609  1.0000
  C   C21       1.0  0.79461  0.73665  0.87802  1.0000
  C   C22       1.0  0.79462  0.23666  0.62198  1.0000
  C   C23       1.0  0.20538  0.26337  0.12198  1.0000
  C   C24       1.0  0.20537  0.76334  0.37803  1.0000
  C   C25       1.0  0.37387  0.71715  0.02340  1.0000
  C   C26       1.0  0.37383  0.21716  0.47659  1.0000
  C   C27       1.0  0.62613  0.28284  0.97661  1.0000
  C   C28       1.0  0.62615  0.78284  0.52340  1.0000
  C   C29       1.0  0.48041  0.77979  0.07413  1.0000
  C   C30       1.0  0.48037  0.27981  0.42587  1.0000
  C   C31       1.0  0.51960  0.22019  0.92588  1.0000
  C   C32       1.0  0.51961  0.72020  0.57413  1.0000
  C   C33       1.0  0.36179  0.78976  0.13205  1.0000
  C   C34       1.0  0.36175  0.28978  0.36795  1.0000
  C   C35       1.0  0.63825  0.21023  0.86796  1.0000
  C   C36       1.0  0.63824  0.71022  0.63205  1.0000
  C   C37       1.0  0.13311  0.73649  0.14114  1.0000
  C   C38       1.0  0.13309  0.23650  0.35887  1.0000
  C   C39       1.0  0.86691  0.26350  0.85887  1.0000
  C   C40       1.0  0.86692  0.76349  0.64112  1.0000
  C   C41       1.0  0.02310  0.67554  0.09108  1.0000
  C   C42       1.0  0.02308  0.17554  0.40893  1.0000
  C   C43       1.0  0.97692  0.32445  0.90892  1.0000
  C   C44       1.0  0.97693  0.82445  0.59106  1.0000
  C   C45       1.0  0.13884  0.66788  0.03282  1.0000
  C   C46       1.0  0.13881  0.16787  0.46719  1.0000
  C   C47       1.0  0.86117  0.33212  0.96719  1.0000
  C   C48       1.0  0.86117  0.83212  0.53280  1.0000
  C   C49       1.0  0.96074  0.81308  0.84049  1.0000
  C   C50       1.0  0.96069  0.31309  0.65951  1.0000
  C   C51       1.0  0.03925  0.18692  0.15951  1.0000
  C   C52       1.0  0.03932  0.68691  0.34049  1.0000
  C   C53       1.0  0.17595  0.77221  0.81552  1.0000
  C   C54       1.0  0.17592  0.27222  0.68448  1.0000
  C   C55       1.0  0.82403  0.22780  0.18448  1.0000
  C   C56       1.0  0.82409  0.72779  0.31551  1.0000
  C   C57       1.0  0.32722  0.84082  0.77671  1.0000
  C   C58       1.0  0.32721  0.34083  0.72330  1.0000
  C   C59       1.0  0.67276  0.15919  0.22328  1.0000
  C   C60       1.0  0.67280  0.65918  0.27670  1.0000
  C   C61       1.0  0.26963  0.95283  0.76237  1.0000
  C   C62       1.0  0.26962  0.45284  0.73764  1.0000
  C   C63       1.0  0.73038  0.04717  0.23763  1.0000
  C   C64       1.0  0.73037  0.54717  0.26237  1.0000
  C   C65       1.0  0.05905  0.99529  0.78756  1.0000
  C   C66       1.0  0.05907  0.49530  0.71244  1.0000
  C   C67       1.0  0.94096  0.00471  0.21243  1.0000
  C   C68       1.0  0.94095  0.50471  0.28756  1.0000
  C   C69       1.0  0.90679  0.92665  0.82606  1.0000
  C   C70       1.0  0.90677  0.42667  0.67394  1.0000
  C   C71       1.0  0.09321  0.07335  0.17393  1.0000
  C   C72       1.0  0.09323  0.57334  0.32607  1.0000
  O   O1        1.0  0.72497  0.87759  0.95831  1.0000
  O   O2        1.0  0.72499  0.37758  0.54168  1.0000
  O   O3        1.0  0.27502  0.12242  0.04169  1.0000
  O   O4        1.0  0.27501  0.62241  0.45832  1.0000
