data_image0
_chemical_formula_structural       Sr2H28C48N8O16
_chemical_formula_sum              "Sr2 H28 C48 N8 O16"
_cell_length_a       9.48674
_cell_length_b       9.49809
_cell_length_c       13.492
_cell_angle_alpha    99.0805
_cell_angle_beta     110.012
_cell_angle_gamma    106.636

_space_group_name_H-M_alt    "P 1"
_space_group_IT_number       1

loop_
  _space_group_symop_operation_xyz
  'x, y, z'

loop_
  _atom_site_type_symbol
  _atom_site_label
  _atom_site_symmetry_multiplicity
  _atom_site_fract_x
  _atom_site_fract_y
  _atom_site_fract_z
  _atom_site_occupancy
  Sr  Sr1       1.0  0.94069  0.19069  0.74998  1.0000
  Sr  Sr2       1.0  0.05931  0.80931  0.25002  1.0000
  H   H1        1.0  0.91737  0.46840  0.35021  1.0000
  H   H2        1.0  0.61811  0.56695  0.14977  1.0000
  H   H3        1.0  0.08263  0.53160  0.64979  1.0000
  H   H4        1.0  0.38189  0.43305  0.85023  1.0000
  H   H5        1.0  0.33641  0.05201  0.95990  1.0000
  H   H6        1.0  0.59206  0.37582  0.53972  1.0000
  H   H7        1.0  0.66359  0.94799  0.04010  1.0000
  H   H8        1.0  0.40794  0.62418  0.46028  1.0000
  H   H9        1.0  0.35951  0.25362  0.06952  1.0000
  H   H10       1.0  0.68419  0.28941  0.43026  1.0000
  H   H11       1.0  0.64049  0.74638  0.93048  1.0000
  H   H12       1.0  0.31582  0.71059  0.56974  1.0000
  H   H13       1.0  0.98185  0.13775  0.24514  1.0000
  H   H14       1.0  0.39270  0.73738  0.25499  1.0000
  H   H15       1.0  0.01815  0.86225  0.75486  1.0000
  H   H16       1.0  0.60730  0.26262  0.74501  1.0000
  H   H17       1.0  0.37233  0.81576  0.88002  1.0000
  H   H18       1.0  0.43542  0.49174  0.61965  1.0000
  H   H19       1.0  0.62767  0.18424  0.11998  1.0000
  H   H20       1.0  0.56458  0.50825  0.38035  1.0000
  H   H21       1.0  0.30601  0.46682  0.16059  1.0000
  H   H22       1.0  0.80666  0.14493  0.33909  1.0000
  H   H23       1.0  0.69399  0.53318  0.83941  1.0000
  H   H24       1.0  0.19334  0.85507  0.66091  1.0000
  H   H25       1.0  0.12979  0.58393  0.05877  1.0000
  H   H26       1.0  0.02493  0.07158  0.44152  1.0000
  H   H27       1.0  0.87020  0.41607  0.94123  1.0000
  H   H28       1.0  0.97507  0.92842  0.55848  1.0000
  C   C1        1.0  0.26563  0.53375  0.91795  1.0000
  C   C2        1.0  0.11547  0.34773  0.58192  1.0000
  C   C3        1.0  0.73437  0.46625  0.08205  1.0000
  C   C4        1.0  0.88453  0.65227  0.41808  1.0000
  C   C5        1.0  0.29681  0.94806  0.98338  1.0000
  C   C6        1.0  0.46462  0.31301  0.51642  1.0000
  C   C7        1.0  0.70319  0.05194  0.01662  1.0000
  C   C8        1.0  0.53538  0.68699  0.48358  1.0000
  C   C9        1.0  0.27559  0.22923  0.10849  1.0000
  C   C10       1.0  0.62089  0.16681  0.39127  1.0000
  C   C11       1.0  0.72441  0.77077  0.89151  1.0000
  C   C12       1.0  0.37911  0.83320  0.60873  1.0000
  C   C13       1.0  0.09006  0.44034  0.26173  1.0000
  C   C14       1.0  0.67861  0.82822  0.23810  1.0000
  C   C15       1.0  0.90994  0.55967  0.73827  1.0000
  C   C16       1.0  0.32139  0.17177  0.76190  1.0000
  C   C17       1.0  0.06690  0.16701  0.20731  1.0000
  C   C18       1.0  0.45984  0.85995  0.29280  1.0000
  C   C19       1.0  0.93310  0.83299  0.79269  1.0000
  C   C20       1.0  0.54016  0.14005  0.70720  1.0000
  C   C21       1.0  0.25556  0.68171  0.96446  1.0000
  C   C22       1.0  0.21705  0.29109  0.53541  1.0000
  C   C23       1.0  0.74444  0.31829  0.03554  1.0000
  C   C24       1.0  0.78295  0.70891  0.46459  1.0000
  C   C25       1.0  0.31555  0.81624  0.93785  1.0000
  C   C26       1.0  0.37825  0.37737  0.56194  1.0000
  C   C27       1.0  0.68445  0.18376  0.06215  1.0000
  C   C28       1.0  0.62175  0.62263  0.43806  1.0000
  C   C29       1.0  0.19923  0.08008  0.11020  1.0000
  C   C30       1.0  0.46993  0.08897  0.38973  1.0000
  C   C31       1.0  0.80077  0.91992  0.88980  1.0000
  C   C32       1.0  0.53007  0.91103  0.61026  1.0000
  C   C33       1.0  0.24556  0.34993  0.15965  1.0000
  C   C34       1.0  0.69057  0.08564  0.34011  1.0000
  C   C35       1.0  0.75444  0.65007  0.84036  1.0000
  C   C36       1.0  0.30943  0.91436  0.65989  1.0000
  C   C37       1.0  0.17863  0.68658  0.03612  1.0000
  C   C38       1.0  0.15026  0.14276  0.46396  1.0000
  C   C39       1.0  0.82137  0.31342  0.96388  1.0000
  C   C40       1.0  0.84974  0.85724  0.53604  1.0000
  C   C41       1.0  0.22233  0.94418  0.05720  1.0000
  C   C42       1.0  0.38692  0.16503  0.44275  1.0000
  C   C43       1.0  0.77767  0.05582  0.94280  1.0000
  C   C44       1.0  0.61308  0.83497  0.55725  1.0000
  C   C45       1.0  0.13693  0.31938  0.20921  1.0000
  C   C46       1.0  0.61034  0.92775  0.29069  1.0000
  C   C47       1.0  0.86308  0.68063  0.79079  1.0000
  C   C48       1.0  0.38966  0.07225  0.70931  1.0000
  N   N1        1.0  0.09844  0.05121  0.16157  1.0000
  N   N2        1.0  0.38969  0.93716  0.33858  1.0000
  N   N3        1.0  0.90156  0.94879  0.83843  1.0000
  N   N4        1.0  0.61032  0.06284  0.66142  1.0000
  N   N5        1.0  0.16427  0.81352  0.08259  1.0000
  N   N6        1.0  0.23084  0.08185  0.41750  1.0000
  N   N7        1.0  0.83573  0.18648  0.91741  1.0000
  N   N8        1.0  0.76916  0.91815  0.58250  1.0000
  O   O1        1.0  0.37981  0.54578  0.88280  1.0000
  O   O2        1.0  0.16295  0.49674  0.61713  1.0000
  O   O3        1.0  0.62019  0.45422  0.11720  1.0000
  O   O4        1.0  0.83705  0.50326  0.38287  1.0000
  O   O5        1.0  0.16878  0.41000  0.91384  1.0000
  O   O6        1.0  0.99554  0.25533  0.58608  1.0000
  O   O7        1.0  0.83122  0.59000  0.08616  1.0000
  O   O8        1.0  0.00446  0.74467  0.41391  1.0000
  O   O9        1.0  0.14211  0.57460  0.25442  1.0000
  O   O10       1.0  0.82026  0.88732  0.24526  1.0000
  O   O11       1.0  0.85789  0.42540  0.74558  1.0000
  O   O12       1.0  0.17974  0.11268  0.75474  1.0000
  O   O13       1.0  0.99674  0.39242  0.30907  1.0000
  O   O14       1.0  0.58344  0.68792  0.19096  1.0000
  O   O15       1.0  0.00325  0.60758  0.69093  1.0000
  O   O16       1.0  0.41656  0.31208  0.80904  1.0000
