data_image0
_chemical_formula_structural       Cu2H36C40N4O8
_chemical_formula_sum              "Cu2 H36 C40 N4 O8"
_cell_length_a       9.80688
_cell_length_b       9.92791
_cell_length_c       11.793
_cell_angle_alpha    114.209
_cell_angle_beta     89.7291
_cell_angle_gamma    117.161

_space_group_name_H-M_alt    "P 1"
_space_group_IT_number       1

loop_
  _space_group_symop_operation_xyz
  'x, y, z'

loop_
  _atom_site_type_symbol
  _atom_site_label
  _atom_site_symmetry_multiplicity
  _atom_site_fract_x
  _atom_site_fract_y
  _atom_site_fract_z
  _atom_site_occupancy
  Cu  Cu1       1.0  0.12670  0.98745  0.49935  1.0000
  Cu  Cu2       1.0  0.87328  0.01256  0.50065  1.0000
  H   H1        1.0  0.11617  0.78375  0.09964  1.0000
  H   H2        1.0  0.88384  0.21624  0.90035  1.0000
  H   H3        1.0  0.07622  0.68608  0.86446  1.0000
  H   H4        1.0  0.92379  0.31392  0.13554  1.0000
  H   H5        1.0  0.87231  0.70103  0.75346  1.0000
  H   H6        1.0  0.12769  0.29898  0.24655  1.0000
  H   H7        1.0  0.70467  0.80673  0.87608  1.0000
  H   H8        1.0  0.29533  0.19327  0.12392  1.0000
  H   H9        1.0  0.74388  0.90043  0.10976  1.0000
  H   H10       1.0  0.25613  0.09957  0.89025  1.0000
  H   H11       1.0  0.64391  0.82754  0.69584  1.0000
  H   H12       1.0  0.35610  0.17246  0.30415  1.0000
  H   H13       1.0  0.51015  0.99914  0.74819  1.0000
  H   H14       1.0  0.48985  0.00086  0.25181  1.0000
  H   H15       1.0  0.21811  0.85545  0.69684  1.0000
  H   H16       1.0  0.78189  0.14455  0.30316  1.0000
  H   H17       1.0  0.48375  0.51051  0.60863  1.0000
  H   H18       1.0  0.51626  0.48949  0.39137  1.0000
  H   H19       1.0  0.05966  0.53887  0.60694  1.0000
  H   H20       1.0  0.94034  0.46112  0.39305  1.0000
  H   H21       1.0  0.45664  0.22528  0.64508  1.0000
  H   H22       1.0  0.54335  0.77472  0.35492  1.0000
  H   H23       1.0  0.85187  0.29030  0.71764  1.0000
  H   H24       1.0  0.14812  0.70969  0.28236  1.0000
  H   H25       1.0  0.72275  0.37726  0.76012  1.0000
  H   H26       1.0  0.27725  0.62274  0.23988  1.0000
  H   H27       1.0  0.82252  0.39213  0.63526  1.0000
  H   H28       1.0  0.17748  0.60787  0.36474  1.0000
  H   H29       1.0  0.60770  0.58778  0.21845  1.0000
  H   H30       1.0  0.39230  0.41222  0.78155  1.0000
  H   H31       1.0  0.79436  0.40927  0.99505  1.0000
  H   H32       1.0  0.20564  0.59073  0.00495  1.0000
  H   H33       1.0  0.74035  0.42568  0.14284  1.0000
  H   H34       1.0  0.25965  0.57432  0.85716  1.0000
  H   H35       1.0  0.62938  0.23370  0.99893  1.0000
  H   H36       1.0  0.37063  0.76630  0.00107  1.0000
  C   C1        1.0  0.95773  0.90828  0.25925  1.0000
  C   C2        1.0  0.04227  0.09172  0.74075  1.0000
  C   C3        1.0  0.93235  0.84773  0.11841  1.0000
  C   C4        1.0  0.06765  0.15227  0.88159  1.0000
  C   C5        1.0  0.02560  0.78658  0.04915  1.0000
  C   C6        1.0  0.97441  0.21343  0.95086  1.0000
  C   C7        1.0  0.00300  0.73253  0.91807  1.0000
  C   C8        1.0  0.99701  0.26747  0.08193  1.0000
  C   C9        1.0  0.88822  0.74064  0.85573  1.0000
  C   C10       1.0  0.11180  0.25936  0.14427  1.0000
  C   C11       1.0  0.79455  0.80056  0.92431  1.0000
  C   C12       1.0  0.20547  0.19944  0.07569  1.0000
  C   C13       1.0  0.81617  0.85358  0.05515  1.0000
  C   C14       1.0  0.18384  0.14642  0.94485  1.0000
  C   C15       1.0  0.16581  0.31753  0.55700  1.0000
  C   C16       1.0  0.83418  0.68248  0.44300  1.0000
  C   C17       1.0  0.26220  0.50616  0.60420  1.0000
  C   C18       1.0  0.73779  0.49384  0.39580  1.0000
  C   C19       1.0  0.42706  0.58753  0.62935  1.0000
  C   C20       1.0  0.57294  0.41247  0.37065  1.0000
  C   C21       1.0  0.51601  0.76442  0.68006  1.0000
  C   C22       1.0  0.48400  0.23557  0.31993  1.0000
  C   C23       1.0  0.44079  0.86086  0.70768  1.0000
  C   C24       1.0  0.55922  0.13914  0.29232  1.0000
  C   C25       1.0  0.27658  0.78052  0.68026  1.0000
  C   C26       1.0  0.72342  0.21949  0.31975  1.0000
  C   C27       1.0  0.18768  0.60373  0.62849  1.0000
  C   C28       1.0  0.81232  0.39627  0.37151  1.0000
  C   C29       1.0  0.47625  0.12415  0.57920  1.0000
  C   C30       1.0  0.52374  0.87584  0.42080  1.0000
  C   C31       1.0  0.62812  0.14660  0.58647  1.0000
  C   C32       1.0  0.37188  0.85340  0.41353  1.0000
  C   C33       1.0  0.76417  0.31086  0.68136  1.0000
  C   C34       1.0  0.23583  0.68914  0.31865  1.0000
  C   C35       1.0  0.55831  0.54775  0.11988  1.0000
  C   C36       1.0  0.44169  0.45225  0.88012  1.0000
  C   C37       1.0  0.59178  0.43874  0.01863  1.0000
  C   C38       1.0  0.40822  0.56126  0.98137  1.0000
  C   C39       1.0  0.69467  0.37352  0.04073  1.0000
  C   C40       1.0  0.30533  0.62648  0.95927  1.0000
  N   N1        1.0  0.34994  0.98105  0.49457  1.0000
  N   N2        1.0  0.65006  0.01895  0.50543  1.0000
  N   N3        1.0  0.46807  0.60873  0.10238  1.0000
  N   N4        1.0  0.53193  0.39127  0.89763  1.0000
  O   O1        1.0  0.07850  0.92111  0.31374  1.0000
  O   O2        1.0  0.92149  0.07889  0.68627  1.0000
  O   O3        1.0  0.85698  0.94239  0.31427  1.0000
  O   O4        1.0  0.14302  0.05762  0.68572  1.0000
  O   O5        1.0  0.23997  0.23651  0.54393  1.0000
  O   O6        1.0  0.76001  0.76348  0.45607  1.0000
  O   O7        1.0  0.01680  0.25342  0.53673  1.0000
  O   O8        1.0  0.98319  0.74660  0.46327  1.0000
