data_image0
_chemical_formula_structural       Cd2H28C24S4N8
_chemical_formula_sum              "Cd2 H28 C24 S4 N8"
_cell_length_a       3.87327
_cell_length_b       11.9306
_cell_length_c       15.111
_cell_angle_alpha    90.0005
_cell_angle_beta     94.6462
_cell_angle_gamma    90.0004

_space_group_name_H-M_alt    "P 1"
_space_group_IT_number       1

loop_
  _space_group_symop_operation_xyz
  'x, y, z'

loop_
  _atom_site_type_symbol
  _atom_site_label
  _atom_site_symmetry_multiplicity
  _atom_site_fract_x
  _atom_site_fract_y
  _atom_site_fract_z
  _atom_site_occupancy
  Cd  Cd1       1.0  0.50000  0.99999  0.99999  1.0000
  Cd  Cd2       1.0  0.49998  0.50000  0.50001  1.0000
  H   H1        1.0  0.42117  0.74925  0.31384  1.0000
  H   H2        1.0  0.42122  0.75075  0.81385  1.0000
  H   H3        1.0  0.57882  0.25075  0.68616  1.0000
  H   H4        1.0  0.57877  0.24925  0.18615  1.0000
  H   H5        1.0  0.71454  0.75386  0.08010  1.0000
  H   H6        1.0  0.71454  0.74614  0.58011  1.0000
  H   H7        1.0  0.28549  0.24613  0.91990  1.0000
  H   H8        1.0  0.28544  0.25385  0.41989  1.0000
  H   H9        1.0  0.40092  0.66320  0.12280  1.0000
  H   H10       1.0  0.40093  0.83679  0.62281  1.0000
  H   H11       1.0  0.59911  0.33680  0.87721  1.0000
  H   H12       1.0  0.59907  0.16320  0.37720  1.0000
  H   H13       1.0  0.79505  0.68595  0.18642  1.0000
  H   H14       1.0  0.79506  0.81405  0.68643  1.0000
  H   H15       1.0  0.20495  0.31404  0.81358  1.0000
  H   H16       1.0  0.20494  0.18595  0.31357  1.0000
  H   H17       1.0  0.95170  0.99621  0.41101  1.0000
  H   H18       1.0  0.95169  0.50380  0.91102  1.0000
  H   H19       1.0  0.04831  0.00380  0.58898  1.0000
  H   H20       1.0  0.04831  0.49621  0.08899  1.0000
  H   H21       1.0  0.32988  0.91539  0.44413  1.0000
  H   H22       1.0  0.32985  0.58462  0.94414  1.0000
  H   H23       1.0  0.67015  0.08462  0.55586  1.0000
  H   H24       1.0  0.67015  0.41539  0.05587  1.0000
  H   H25       1.0  0.93496  0.84585  0.41482  1.0000
  H   H26       1.0  0.93497  0.65416  0.91483  1.0000
  H   H27       1.0  0.06504  0.15416  0.58517  1.0000
  H   H28       1.0  0.06504  0.34585  0.08518  1.0000
  C   C1        1.0  0.16810  0.99880  0.16790  1.0000
  C   C2        1.0  0.16807  0.50120  0.66792  1.0000
  C   C3        1.0  0.83192  0.00119  0.83208  1.0000
  C   C4        1.0  0.83188  0.49880  0.33210  1.0000
  C   C5        1.0  0.17798  0.91361  0.30411  1.0000
  C   C6        1.0  0.17794  0.58640  0.80414  1.0000
  C   C7        1.0  0.82207  0.08639  0.69587  1.0000
  C   C8        1.0  0.82203  0.41361  0.19588  1.0000
  C   C9        1.0  0.43248  0.82354  0.18349  1.0000
  C   C10       1.0  0.43249  0.67646  0.68350  1.0000
  C   C11       1.0  0.56756  0.17645  0.81650  1.0000
  C   C12       1.0  0.56748  0.32354  0.31651  1.0000
  C   C13       1.0  0.35145  0.82126  0.27178  1.0000
  C   C14       1.0  0.35151  0.67876  0.77178  1.0000
  C   C15       1.0  0.64854  0.17875  0.72823  1.0000
  C   C16       1.0  0.64851  0.32125  0.22823  1.0000
  C   C17       1.0  0.59993  0.72711  0.14074  1.0000
  C   C18       1.0  0.59995  0.77290  0.64074  1.0000
  C   C19       1.0  0.40010  0.27289  0.85927  1.0000
  C   C20       1.0  0.40005  0.22710  0.35926  1.0000
  C   C21       1.0  0.09244  0.91879  0.39900  1.0000
  C   C22       1.0  0.09245  0.58121  0.89901  1.0000
  C   C23       1.0  0.90756  0.08121  0.60099  1.0000
  C   C24       1.0  0.90756  0.41879  0.10100  1.0000
  S   S1        1.0  0.05250  0.10897  0.09511  1.0000
  S   S2        1.0  0.05248  0.39103  0.59513  1.0000
  S   S3        1.0  0.94749  0.89102  0.90487  1.0000
  S   S4        1.0  0.94750  0.60898  0.40489  1.0000
  N   N1        1.0  0.34865  0.91391  0.13297  1.0000
  N   N2        1.0  0.34865  0.58609  0.63298  1.0000
  N   N3        1.0  0.65137  0.08608  0.86702  1.0000
  N   N4        1.0  0.65132  0.41390  0.36703  1.0000
  N   N5        1.0  0.07897  0.00131  0.25174  1.0000
  N   N6        1.0  0.07895  0.49869  0.75175  1.0000
  N   N7        1.0  0.92103  0.99869  0.74825  1.0000
  N   N8        1.0  0.92102  0.50131  0.24825  1.0000
