data_image0
_chemical_formula_structural       Cu2H32C40N4O10F8
_chemical_formula_sum              "Cu2 H32 C40 N4 O10 F8"
_cell_length_a       7.47222
_cell_length_b       11.663
_cell_length_c       11.663
_cell_angle_alpha    97.4162
_cell_angle_beta     99.2791
_cell_angle_gamma    99.2809

_space_group_name_H-M_alt    "P 1"
_space_group_IT_number       1

loop_
  _space_group_symop_operation_xyz
  'x, y, z'

loop_
  _atom_site_type_symbol
  _atom_site_label
  _atom_site_symmetry_multiplicity
  _atom_site_fract_x
  _atom_site_fract_y
  _atom_site_fract_z
  _atom_site_occupancy
  Cu  Cu1       1.0  0.21632  0.44690  0.69215  1.0000
  Cu  Cu2       1.0  0.71632  0.69215  0.44690  1.0000
  H   H1        1.0  0.98886  0.42009  0.12568  1.0000
  H   H2        1.0  0.48887  0.12567  0.42009  1.0000
  H   H3        1.0  0.17809  0.81705  0.07650  1.0000
  H   H4        1.0  0.67808  0.07651  0.81704  1.0000
  H   H5        1.0  0.09276  0.82593  0.52540  1.0000
  H   H6        1.0  0.59275  0.52539  0.82592  1.0000
  H   H7        1.0  0.33487  0.83126  0.55803  1.0000
  H   H8        1.0  0.83486  0.55802  0.83125  1.0000
  H   H9        1.0  0.86241  0.22439  0.17703  1.0000
  H   H10       1.0  0.36241  0.17702  0.22439  1.0000
  H   H11       1.0  0.17273  0.68912  0.71179  1.0000
  H   H12       1.0  0.67273  0.71179  0.68913  1.0000
  H   H13       1.0  0.13972  0.84914  0.86394  1.0000
  H   H14       1.0  0.63972  0.86395  0.84914  1.0000
  H   H15       1.0  0.28145  0.47147  0.95802  1.0000
  H   H16       1.0  0.78145  0.95801  0.47147  1.0000
  H   H17       1.0  0.03898  0.02778  0.87128  1.0000
  H   H18       1.0  0.53899  0.87128  0.02777  1.0000
  H   H19       1.0  0.20196  0.56999  0.28273  1.0000
  H   H20       1.0  0.70195  0.28272  0.56999  1.0000
  H   H21       1.0  0.18160  0.15267  0.48384  1.0000
  H   H22       1.0  0.68161  0.48383  0.15267  1.0000
  H   H23       1.0  0.94738  0.18338  0.37762  1.0000
  H   H24       1.0  0.44737  0.37760  0.18338  1.0000
  H   H25       1.0  0.20342  0.75384  0.34342  1.0000
  H   H26       1.0  0.70341  0.34341  0.75383  1.0000
  H   H27       1.0  0.36985  0.88426  0.36094  1.0000
  H   H28       1.0  0.86984  0.36094  0.88425  1.0000
  H   H29       1.0  0.13031  0.89058  0.32804  1.0000
  H   H30       1.0  0.63030  0.32803  0.89057  1.0000
  H   H31       1.0  0.25695  0.62438  0.12356  1.0000
  H   H32       1.0  0.75696  0.12356  0.62437  1.0000
  C   C1        1.0  0.21630  0.15890  0.66936  1.0000
  C   C2        1.0  0.71630  0.66935  0.15890  1.0000
  C   C3        1.0  0.27583  0.17468  0.89818  1.0000
  C   C4        1.0  0.77584  0.89818  0.17467  1.0000
  C   C5        1.0  0.02731  0.40018  0.21417  1.0000
  C   C6        1.0  0.52731  0.21416  0.40019  1.0000
  C   C7        1.0  0.19321  0.74916  0.00730  1.0000
  C   C8        1.0  0.69321  0.00730  0.74916  1.0000
  C   C9        1.0  0.19643  0.46223  0.41624  1.0000
  C   C10       1.0  0.69643  0.41623  0.46223  1.0000
  C   C11       1.0  0.13024  0.35061  0.44364  1.0000
  C   C12       1.0  0.63024  0.44363  0.35061  1.0000
  C   C13       1.0  0.21129  0.03037  0.65030  1.0000
  C   C14       1.0  0.71129  0.65030  0.03036  1.0000
  C   C15       1.0  0.22599  0.86647  0.50661  1.0000
  C   C16       1.0  0.72598  0.50661  0.86646  1.0000
  C   C17       1.0  0.95767  0.29094  0.24251  1.0000
  C   C18       1.0  0.45767  0.24250  0.29095  1.0000
  C   C19       1.0  0.19105  0.67881  0.80409  1.0000
  C   C20       1.0  0.69105  0.80409  0.67882  1.0000
  C   C21       1.0  0.17140  0.76760  0.89048  1.0000
  C   C22       1.0  0.67140  0.89049  0.76761  1.0000
  C   C23       1.0  0.25190  0.55718  0.94252  1.0000
  C   C24       1.0  0.75190  0.94252  0.55718  1.0000
  C   C25       1.0  0.10955  0.10391  0.93729  1.0000
  C   C26       1.0  0.60956  0.93729  0.10389  1.0000
  C   C27       1.0  0.14433  0.48393  0.30112  1.0000
  C   C28       1.0  0.64432  0.30111  0.48393  1.0000
  C   C29       1.0  0.22840  0.22419  0.78167  1.0000
  C   C30       1.0  0.72840  0.78167  0.22419  1.0000
  C   C31       1.0  0.19245  0.21249  0.56593  1.0000
  C   C32       1.0  0.69245  0.56593  0.21249  1.0000
  C   C33       1.0  0.32730  0.55958  0.49997  1.0000
  C   C34       1.0  0.82729  0.49998  0.55957  1.0000
  C   C35       1.0  0.00804  0.26710  0.35579  1.0000
  C   C36       1.0  0.50803  0.35578  0.26711  1.0000
  C   C37       1.0  0.23261  0.84847  0.37686  1.0000
  C   C38       1.0  0.73260  0.37685  0.84846  1.0000
  C   C39       1.0  0.23579  0.64230  0.03353  1.0000
  C   C40       1.0  0.73580  0.03353  0.64230  1.0000
  N   N1        1.0  0.18128  0.32221  0.55730  1.0000
  N   N2        1.0  0.68128  0.55730  0.32221  1.0000
  N   N3        1.0  0.22922  0.57499  0.82969  1.0000
  N   N4        1.0  0.72922  0.82969  0.57499  1.0000
  O   O1        1.0  0.25404  0.99337  0.54490  1.0000
  O   O2        1.0  0.75404  0.54490  0.99336  1.0000
  O   O3        1.0  0.16593  0.96234  0.71735  1.0000
  O   O4        1.0  0.66593  0.71734  0.96234  1.0000
  O   O5        1.0  0.20959  0.33096  0.80090  1.0000
  O   O6        1.0  0.70959  0.80090  0.33095  1.0000
  O   O7        1.0  0.34830  0.56081  0.61235  1.0000
  O   O8        1.0  0.84829  0.61234  0.56081  1.0000
  O   O9        1.0  0.41246  0.64097  0.45733  1.0000
  O   O10       1.0  0.91246  0.45733  0.64097  1.0000
  F   F1        1.0  0.40939  0.10682  0.89288  1.0000
  F   F2        1.0  0.90939  0.89287  0.10681  1.0000
  F   F3        1.0  0.35142  0.26873  0.98702  1.0000
  F   F4        1.0  0.85144  0.98701  0.26872  1.0000
  F   F5        1.0  0.98833  0.17838  0.95771  1.0000
  F   F6        1.0  0.48835  0.95771  0.17837  1.0000
  F   F7        1.0  0.17061  0.06701  0.04157  1.0000
  F   F8        1.0  0.67064  0.04156  0.06700  1.0000
