data_image0
_chemical_formula_structural       Na2H10C8N16O4
_chemical_formula_sum              "Na2 H10 C8 N16 O4"
_cell_length_a       6.63111
_cell_length_b       7.0963
_cell_length_c       10.3682
_cell_angle_alpha    105.994
_cell_angle_beta     99.44
_cell_angle_gamma    108.279

_space_group_name_H-M_alt    "P 1"
_space_group_IT_number       1

loop_
  _space_group_symop_operation_xyz
  'x, y, z'

loop_
  _atom_site_type_symbol
  _atom_site_label
  _atom_site_symmetry_multiplicity
  _atom_site_fract_x
  _atom_site_fract_y
  _atom_site_fract_z
  _atom_site_occupancy
  Na  Na1       1.0  0.52236  0.77246  0.41771  1.0000
  Na  Na2       1.0  0.47764  0.22754  0.58229  1.0000
  H   H1        1.0  0.26816  0.54892  0.06648  1.0000
  H   H2        1.0  0.73182  0.45107  0.93352  1.0000
  H   H3        1.0  0.19542  0.81496  0.58122  1.0000
  H   H4        1.0  0.80458  0.18504  0.41879  1.0000
  H   H5        1.0  0.09008  0.82228  0.43629  1.0000
  H   H6        1.0  0.90992  0.17772  0.56371  1.0000
  H   H7        1.0  0.81579  0.59322  0.26431  1.0000
  H   H8        1.0  0.18421  0.40678  0.73569  1.0000
  H   H9        1.0  0.82218  0.81382  0.25002  1.0000
  H   H10       1.0  0.17782  0.18619  0.74998  1.0000
  C   C1        1.0  0.22709  0.76702  0.95879  1.0000
  C   C2        1.0  0.77291  0.23298  0.04121  1.0000
  C   C3        1.0  0.23407  0.97279  0.97461  1.0000
  C   C4        1.0  0.76594  0.02721  0.02539  1.0000
  C   C5        1.0  0.31748  0.03657  0.21872  1.0000
  C   C6        1.0  0.68252  0.96343  0.78128  1.0000
  C   C7        1.0  0.26763  0.70597  0.07607  1.0000
  C   C8        1.0  0.73236  0.29402  0.92392  1.0000
  N   N1        1.0  0.28150  0.10763  0.10832  1.0000
  N   N2        1.0  0.71851  0.89238  0.89169  1.0000
  N   N3        1.0  0.36292  0.20174  0.33555  1.0000
  N   N4        1.0  0.63708  0.79826  0.66445  1.0000
  N   N5        1.0  0.31202  0.83989  0.20475  1.0000
  N   N6        1.0  0.68798  0.16011  0.79524  1.0000
  N   N7        1.0  0.19724  0.99545  0.84998  1.0000
  N   N8        1.0  0.80276  0.00455  0.15002  1.0000
  N   N9        1.0  0.18680  0.66689  0.81866  1.0000
  N   N10       1.0  0.81320  0.33311  0.18134  1.0000
  N   N11       1.0  0.16945  0.80363  0.75703  1.0000
  N   N12       1.0  0.83055  0.19637  0.24297  1.0000
  N   N13       1.0  0.30733  0.31298  0.15850  1.0000
  N   N14       1.0  0.69267  0.68702  0.84149  1.0000
  N   N15       1.0  0.35600  0.36379  0.29485  1.0000
  N   N16       1.0  0.64401  0.63622  0.70515  1.0000
  O   O1        1.0  0.23387  0.85366  0.50124  1.0000
  O   O2        1.0  0.76613  0.14633  0.49876  1.0000
  O   O3        1.0  0.82140  0.73670  0.31629  1.0000
  O   O4        1.0  0.17860  0.26330  0.68371  1.0000
