data_image0
_chemical_formula_structural       Ag4H36C20S4N4O12
_chemical_formula_sum              "Ag4 H36 C20 S4 N4 O12"
_cell_length_a       4.71743
_cell_length_b       11.4498
_cell_length_c       15.8167
_cell_angle_alpha    95.9492
_cell_angle_beta     90.0006
_cell_angle_gamma    89.9991

_space_group_name_H-M_alt    "P 1"
_space_group_IT_number       1

loop_
  _space_group_symop_operation_xyz
  'x, y, z'

loop_
  _atom_site_type_symbol
  _atom_site_label
  _atom_site_symmetry_multiplicity
  _atom_site_fract_x
  _atom_site_fract_y
  _atom_site_fract_z
  _atom_site_occupancy
  Ag  Ag1       1.0  0.53408  0.28365  0.14812  1.0000
  Ag  Ag2       1.0  0.03410  0.21634  0.35187  1.0000
  Ag  Ag3       1.0  0.46596  0.71633  0.85187  1.0000
  Ag  Ag4       1.0  0.96594  0.78368  0.64812  1.0000
  H   H1        1.0  0.18004  0.25522  0.89840  1.0000
  H   H2        1.0  0.68012  0.24479  0.60160  1.0000
  H   H3        1.0  0.81987  0.74476  0.10161  1.0000
  H   H4        1.0  0.31991  0.75523  0.39840  1.0000
  H   H5        1.0  0.03629  0.27184  0.00325  1.0000
  H   H6        1.0  0.53632  0.22818  0.49676  1.0000
  H   H7        1.0  0.96365  0.72816  0.99677  1.0000
  H   H8        1.0  0.46368  0.77185  0.50325  1.0000
  H   H9        1.0  0.37457  0.20853  0.98564  1.0000
  H   H10       1.0  0.87463  0.29147  0.51436  1.0000
  H   H11       1.0  0.62537  0.79147  0.01437  1.0000
  H   H12       1.0  0.12539  0.70853  0.48564  1.0000
  H   H13       1.0  0.06835  0.57657  0.12880  1.0000
  H   H14       1.0  0.56837  0.92342  0.37119  1.0000
  H   H15       1.0  0.93162  0.42340  0.87120  1.0000
  H   H16       1.0  0.43164  0.07660  0.62881  1.0000
  H   H17       1.0  0.93629  0.44334  0.16260  1.0000
  H   H18       1.0  0.43628  0.05667  0.33739  1.0000
  H   H19       1.0  0.06368  0.55666  0.83740  1.0000
  H   H20       1.0  0.56371  0.94336  0.66262  1.0000
  H   H21       1.0  0.77089  0.57772  0.19792  1.0000
  H   H22       1.0  0.27087  0.92228  0.30207  1.0000
  H   H23       1.0  0.22911  0.42227  0.80208  1.0000
  H   H24       1.0  0.72915  0.07775  0.69792  1.0000
  H   H25       1.0  0.15371  0.91230  0.06082  1.0000
  H   H26       1.0  0.65372  0.58767  0.43918  1.0000
  H   H27       1.0  0.84631  0.08768  0.93918  1.0000
  H   H28       1.0  0.34625  0.41234  0.56081  1.0000
  H   H29       1.0  0.40354  0.93616  0.14898  1.0000
  H   H30       1.0  0.90354  0.56384  0.35101  1.0000
  H   H31       1.0  0.59650  0.06384  0.85101  1.0000
  H   H32       1.0  0.09647  0.43618  0.64898  1.0000
  H   H33       1.0  0.41045  0.02854  0.06532  1.0000
  H   H34       1.0  0.91048  0.47144  0.43467  1.0000
  H   H35       1.0  0.58956  0.97145  0.93467  1.0000
  H   H36       1.0  0.08952  0.52858  0.56533  1.0000
  C   C1        1.0  0.36915  0.39411  0.98307  1.0000
  C   C2        1.0  0.86918  0.10589  0.51693  1.0000
  C   C3        1.0  0.63082  0.60589  0.01694  1.0000
  C   C4        1.0  0.13081  0.89411  0.48306  1.0000
  C   C5        1.0  0.67848  0.51482  0.06856  1.0000
  C   C6        1.0  0.17842  0.98517  0.43143  1.0000
  C   C7        1.0  0.32151  0.48516  0.93143  1.0000
  C   C8        1.0  0.82153  0.01485  0.56857  1.0000
  C   C9        1.0  0.23204  0.27646  0.96580  1.0000
  C   C10       1.0  0.73208  0.22355  0.53421  1.0000
  C   C11       1.0  0.76791  0.72355  0.03422  1.0000
  C   C12       1.0  0.26794  0.77645  0.46579  1.0000
  C   C13       1.0  0.87529  0.52893  0.14290  1.0000
  C   C14       1.0  0.37530  0.97106  0.35709  1.0000
  C   C15       1.0  0.12471  0.47106  0.85710  1.0000
  C   C16       1.0  0.62475  0.02895  0.64290  1.0000
  C   C17       1.0  0.27309  0.97655  0.10268  1.0000
  C   C18       1.0  0.77310  0.52343  0.39731  1.0000
  C   C19       1.0  0.72694  0.02344  0.89732  1.0000
  C   C20       1.0  0.22688  0.47658  0.60268  1.0000
  S   S1        1.0  0.02776  0.07215  0.15949  1.0000
  S   S2        1.0  0.52776  0.42784  0.34050  1.0000
  S   S3        1.0  0.97226  0.92784  0.84052  1.0000
  S   S4        1.0  0.47224  0.57215  0.65949  1.0000
  N   N1        1.0  0.54335  0.41121  0.05092  1.0000
  N   N2        1.0  0.04338  0.08879  0.44907  1.0000
  N   N3        1.0  0.45661  0.58878  0.94908  1.0000
  N   N4        1.0  0.95660  0.91122  0.55093  1.0000
  O   O1        1.0  0.85525  0.12285  0.09430  1.0000
  O   O2        1.0  0.35526  0.37713  0.40569  1.0000
  O   O3        1.0  0.14476  0.87713  0.90570  1.0000
  O   O4        1.0  0.64476  0.62287  0.59431  1.0000
  O   O5        1.0  0.20348  0.16509  0.20884  1.0000
  O   O6        1.0  0.70350  0.33489  0.29115  1.0000
  O   O7        1.0  0.79656  0.83490  0.79116  1.0000
  O   O8        1.0  0.29655  0.66511  0.70884  1.0000
  O   O9        1.0  0.86768  0.00341  0.21602  1.0000
  O   O10       1.0  0.36769  0.49657  0.28399  1.0000
  O   O11       1.0  0.13236  0.99657  0.78399  1.0000
  O   O12       1.0  0.63230  0.50343  0.71600  1.0000
