data_image0
_chemical_formula_structural       H16Pb4C24N8O16
_chemical_formula_sum              "H16 Pb4 C24 N8 O16"
_cell_length_a       7.09947
_cell_length_b       6.94078
_cell_length_c       16.1712
_cell_angle_alpha    90.0036
_cell_angle_beta     89.9996
_cell_angle_gamma    102.247

_space_group_name_H-M_alt    "P 1"
_space_group_IT_number       1

loop_
  _space_group_symop_operation_xyz
  'x, y, z'

loop_
  _atom_site_type_symbol
  _atom_site_label
  _atom_site_symmetry_multiplicity
  _atom_site_fract_x
  _atom_site_fract_y
  _atom_site_fract_z
  _atom_site_occupancy
  H   H1        1.0  0.08012  0.06237  0.25116  1.0000
  H   H2        1.0  0.91989  0.43761  0.75116  1.0000
  H   H3        1.0  0.91988  0.93763  0.74884  1.0000
  H   H4        1.0  0.08013  0.56237  0.24885  1.0000
  H   H5        1.0  0.30671  0.13238  0.46701  1.0000
  H   H6        1.0  0.69329  0.36767  0.96700  1.0000
  H   H7        1.0  0.69328  0.86766  0.53299  1.0000
  H   H8        1.0  0.30669  0.63232  0.03300  1.0000
  H   H9        1.0  0.10257  0.98872  0.41382  1.0000
  H   H10       1.0  0.89745  0.51127  0.91382  1.0000
  H   H11       1.0  0.89744  0.01126  0.58619  1.0000
  H   H12       1.0  0.10251  0.48877  0.08618  1.0000
  H   H13       1.0  0.11838  0.24384  0.42932  1.0000
  H   H14       1.0  0.88159  0.25615  0.92932  1.0000
  H   H15       1.0  0.88157  0.75614  0.57068  1.0000
  H   H16       1.0  0.11844  0.74389  0.07068  1.0000
  Pb  Pb1       1.0  0.74246  0.49848  0.41560  1.0000
  Pb  Pb2       1.0  0.25756  0.00152  0.91560  1.0000
  Pb  Pb3       1.0  0.25755  0.50152  0.58439  1.0000
  Pb  Pb4       1.0  0.74245  0.99848  0.08440  1.0000
  C   C1        1.0  0.53306  0.26687  0.24311  1.0000
  C   C2        1.0  0.46694  0.23312  0.74310  1.0000
  C   C3        1.0  0.46695  0.73313  0.75689  1.0000
  C   C4        1.0  0.53306  0.76688  0.25688  1.0000
  C   C5        1.0  0.36400  0.18157  0.20096  1.0000
  C   C6        1.0  0.63600  0.31841  0.70095  1.0000
  C   C7        1.0  0.63601  0.81844  0.79904  1.0000
  C   C8        1.0  0.36401  0.68157  0.29904  1.0000
  C   C9        1.0  0.30775  0.17469  0.33667  1.0000
  C   C10       1.0  0.69224  0.32530  0.83667  1.0000
  C   C11       1.0  0.69223  0.82532  0.66334  1.0000
  C   C12       1.0  0.30776  0.67470  0.16334  1.0000
  C   C13       1.0  0.72964  0.36236  0.21362  1.0000
  C   C14       1.0  0.27037  0.13764  0.71362  1.0000
  C   C15       1.0  0.27037  0.63763  0.78638  1.0000
  C   C16       1.0  0.72964  0.86236  0.28639  1.0000
  C   C17       1.0  0.31158  0.14579  0.11237  1.0000
  C   C18       1.0  0.68843  0.35419  0.61236  1.0000
  C   C19       1.0  0.68842  0.85422  0.88764  1.0000
  C   C20       1.0  0.31159  0.64578  0.38764  1.0000
  C   C21       1.0  0.20377  0.13192  0.41644  1.0000
  C   C22       1.0  0.79621  0.36810  0.91644  1.0000
  C   C23       1.0  0.79622  0.86810  0.58356  1.0000
  C   C24       1.0  0.20377  0.63191  0.08356  1.0000
  N   N1        1.0  0.49359  0.26193  0.32689  1.0000
  N   N2        1.0  0.50641  0.23809  0.82687  1.0000
  N   N3        1.0  0.50639  0.73809  0.67312  1.0000
  N   N4        1.0  0.49360  0.76191  0.17313  1.0000
  N   N5        1.0  0.22588  0.12778  0.26145  1.0000
  N   N6        1.0  0.77413  0.37221  0.76145  1.0000
  N   N7        1.0  0.77411  0.87222  0.73855  1.0000
  N   N8        1.0  0.22588  0.62779  0.23855  1.0000
  O   O1        1.0  0.84055  0.46667  0.26717  1.0000
  O   O2        1.0  0.15945  0.03329  0.76716  1.0000
  O   O3        1.0  0.15946  0.53331  0.73283  1.0000
  O   O4        1.0  0.84056  0.96670  0.23283  1.0000
  O   O5        1.0  0.78168  0.34116  0.13999  1.0000
  O   O6        1.0  0.21830  0.15888  0.63999  1.0000
  O   O7        1.0  0.21831  0.65885  0.86000  1.0000
  O   O8        1.0  0.78171  0.84115  0.36000  1.0000
  O   O9        1.0  0.44458  0.13203  0.06022  1.0000
  O   O10       1.0  0.55541  0.36789  0.56022  1.0000
  O   O11       1.0  0.55540  0.86791  0.93978  1.0000
  O   O12       1.0  0.44462  0.63209  0.43978  1.0000
  O   O13       1.0  0.13685  0.12782  0.09229  1.0000
  O   O14       1.0  0.86316  0.37220  0.59229  1.0000
  O   O15       1.0  0.86316  0.87223  0.90771  1.0000
  O   O16       1.0  0.13687  0.62777  0.40772  1.0000
