data_image0
_chemical_formula_structural       Mg4H32C24N8O24
_chemical_formula_sum              "Mg4 H32 C24 N8 O24"
_cell_length_a       7.44513
_cell_length_b       10.6556
_cell_length_c       12.0567
_cell_angle_alpha    103.796
_cell_angle_beta     90.0001
_cell_angle_gamma    90.0002

_space_group_name_H-M_alt    "P 1"
_space_group_IT_number       1

loop_
  _space_group_symop_operation_xyz
  'x, y, z'

loop_
  _atom_site_type_symbol
  _atom_site_label
  _atom_site_symmetry_multiplicity
  _atom_site_fract_x
  _atom_site_fract_y
  _atom_site_fract_z
  _atom_site_occupancy
  Mg  Mg1       1.0  0.99834  0.43066  0.18152  1.0000
  Mg  Mg2       1.0  0.49835  0.06934  0.31848  1.0000
  Mg  Mg3       1.0  0.00165  0.56933  0.81848  1.0000
  Mg  Mg4       1.0  0.50165  0.93066  0.68152  1.0000
  H   H1        1.0  0.67392  0.52119  0.14703  1.0000
  H   H2        1.0  0.17393  0.97882  0.35298  1.0000
  H   H3        1.0  0.32608  0.47881  0.85297  1.0000
  H   H4        1.0  0.82607  0.02118  0.64703  1.0000
  H   H5        1.0  0.80677  0.53963  0.04836  1.0000
  H   H6        1.0  0.30678  0.96037  0.45164  1.0000
  H   H7        1.0  0.19324  0.46037  0.95164  1.0000
  H   H8        1.0  0.69323  0.03962  0.54836  1.0000
  H   H9        1.0  0.01458  0.68788  0.18859  1.0000
  H   H10       1.0  0.51457  0.81213  0.31140  1.0000
  H   H11       1.0  0.98543  0.31213  0.81141  1.0000
  H   H12       1.0  0.48543  0.18787  0.68860  1.0000
  H   H13       1.0  0.18829  0.65336  0.25978  1.0000
  H   H14       1.0  0.68829  0.84664  0.24022  1.0000
  H   H15       1.0  0.81171  0.34664  0.74022  1.0000
  H   H16       1.0  0.31171  0.15337  0.75978  1.0000
  H   H17       1.0  0.72260  0.52059  0.60440  1.0000
  H   H18       1.0  0.22261  0.97941  0.89560  1.0000
  H   H19       1.0  0.27739  0.47941  0.39560  1.0000
  H   H20       1.0  0.77739  0.02059  0.10440  1.0000
  H   H21       1.0  0.93397  0.69525  0.39441  1.0000
  H   H22       1.0  0.43396  0.80476  0.10559  1.0000
  H   H23       1.0  0.06603  0.30475  0.60559  1.0000
  H   H24       1.0  0.56603  0.19524  0.89441  1.0000
  H   H25       1.0  0.90767  0.71540  0.54517  1.0000
  H   H26       1.0  0.40767  0.78459  0.95483  1.0000
  H   H27       1.0  0.09233  0.28460  0.45483  1.0000
  H   H28       1.0  0.59233  0.21541  0.04517  1.0000
  H   H29       1.0  0.72084  0.73218  0.46117  1.0000
  H   H30       1.0  0.22084  0.76782  0.03883  1.0000
  H   H31       1.0  0.27916  0.26781  0.53882  1.0000
  H   H32       1.0  0.77916  0.23219  0.96117  1.0000
  C   C1        1.0  0.78218  0.33245  0.35525  1.0000
  C   C2        1.0  0.28219  0.16755  0.14475  1.0000
  C   C3        1.0  0.21782  0.66755  0.64475  1.0000
  C   C4        1.0  0.71781  0.83245  0.85525  1.0000
  C   C5        1.0  0.72058  0.34704  0.46713  1.0000
  C   C6        1.0  0.22059  0.15296  0.03287  1.0000
  C   C7        1.0  0.27942  0.65296  0.53287  1.0000
  C   C8        1.0  0.77942  0.84704  0.96713  1.0000
  C   C9        1.0  0.81048  0.53710  0.44056  1.0000
  C   C10       1.0  0.31048  0.96290  0.05943  1.0000
  C   C11       1.0  0.18952  0.46290  0.55944  1.0000
  C   C12       1.0  0.68952  0.03710  0.94057  1.0000
  C   C13       1.0  0.80457  0.22269  0.25335  1.0000
  C   C14       1.0  0.30456  0.27732  0.24665  1.0000
  C   C15       1.0  0.19543  0.77731  0.74665  1.0000
  C   C16       1.0  0.69544  0.72268  0.75335  1.0000
  C   C17       1.0  0.65459  0.25520  0.53187  1.0000
  C   C18       1.0  0.15458  0.24480  0.96812  1.0000
  C   C19       1.0  0.34541  0.74480  0.46813  1.0000
  C   C20       1.0  0.84542  0.75520  0.03187  1.0000
  C   C21       1.0  0.84563  0.67762  0.46163  1.0000
  C   C22       1.0  0.34563  0.82239  0.03837  1.0000
  C   C23       1.0  0.15437  0.32238  0.53837  1.0000
  C   C24       1.0  0.65437  0.17761  0.96163  1.0000
  N   N1        1.0  0.83932  0.45106  0.34145  1.0000
  N   N2        1.0  0.33933  0.04895  0.15855  1.0000
  N   N3        1.0  0.16068  0.54894  0.65855  1.0000
  N   N4        1.0  0.66068  0.95105  0.84145  1.0000
  N   N5        1.0  0.74090  0.47661  0.51799  1.0000
  N   N6        1.0  0.24090  0.02339  0.98201  1.0000
  N   N7        1.0  0.25910  0.52339  0.48202  1.0000
  N   N8        1.0  0.75910  0.97661  0.01799  1.0000
  O   O1        1.0  0.89790  0.24726  0.17327  1.0000
  O   O2        1.0  0.39788  0.25275  0.32673  1.0000
  O   O3        1.0  0.10211  0.75274  0.82674  1.0000
  O   O4        1.0  0.60211  0.74725  0.67327  1.0000
  O   O5        1.0  0.73283  0.11212  0.24639  1.0000
  O   O6        1.0  0.23282  0.38788  0.25361  1.0000
  O   O7        1.0  0.26718  0.88788  0.75361  1.0000
  O   O8        1.0  0.76718  0.61212  0.74640  1.0000
  O   O9        1.0  0.61844  0.13935  0.47624  1.0000
  O   O10       1.0  0.11843  0.36065  0.02376  1.0000
  O   O11       1.0  0.38155  0.86066  0.52376  1.0000
  O   O12       1.0  0.88156  0.63935  0.97624  1.0000
  O   O13       1.0  0.63845  0.29272  0.63995  1.0000
  O   O14       1.0  0.13844  0.20727  0.86005  1.0000
  O   O15       1.0  0.36155  0.70727  0.36005  1.0000
  O   O16       1.0  0.86156  0.79273  0.13995  1.0000
  O   O17       1.0  0.77164  0.47996  0.09832  1.0000
  O   O18       1.0  0.27166  0.02004  0.40169  1.0000
  O   O19       1.0  0.22836  0.52004  0.90168  1.0000
  O   O20       1.0  0.72835  0.97996  0.59831  1.0000
  O   O21       1.0  0.08687  0.61793  0.20870  1.0000
  O   O22       1.0  0.58687  0.88207  0.29129  1.0000
  O   O23       1.0  0.91313  0.38207  0.79130  1.0000
  O   O24       1.0  0.41313  0.11793  0.70871  1.0000
