data_image0
_chemical_formula_structural       Ag2H48C44N10O6
_chemical_formula_sum              "Ag2 H48 C44 N10 O6"
_cell_length_a       7.81596
_cell_length_b       12.1715
_cell_length_c       12.3107
_cell_angle_alpha    80.7151
_cell_angle_beta     72.1288
_cell_angle_gamma    71.3164

_space_group_name_H-M_alt    "P 1"
_space_group_IT_number       1

loop_
  _space_group_symop_operation_xyz
  'x, y, z'

loop_
  _atom_site_type_symbol
  _atom_site_label
  _atom_site_symmetry_multiplicity
  _atom_site_fract_x
  _atom_site_fract_y
  _atom_site_fract_z
  _atom_site_occupancy
  Ag  Ag1       1.0  0.66907  0.24984  0.74904  1.0000
  Ag  Ag2       1.0  0.33093  0.75016  0.25096  1.0000
  H   H1        1.0  0.74408  0.86159  0.03081  1.0000
  H   H2        1.0  0.63659  0.63858  0.46871  1.0000
  H   H3        1.0  0.25592  0.13841  0.96919  1.0000
  H   H4        1.0  0.36341  0.36142  0.53129  1.0000
  H   H5        1.0  0.65798  0.00960  0.72704  1.0000
  H   H6        1.0  0.39962  0.48949  0.77068  1.0000
  H   H7        1.0  0.34202  0.99040  0.27296  1.0000
  H   H8        1.0  0.60038  0.51051  0.22932  1.0000
  H   H9        1.0  0.63712  0.88149  0.81617  1.0000
  H   H10       1.0  0.33813  0.61771  0.68152  1.0000
  H   H11       1.0  0.36288  0.11851  0.18383  1.0000
  H   H12       1.0  0.66187  0.38230  0.31848  1.0000
  H   H13       1.0  0.86222  0.89430  0.73714  1.0000
  H   H14       1.0  0.49726  0.60505  0.76220  1.0000
  H   H15       1.0  0.13778  0.10570  0.26286  1.0000
  H   H16       1.0  0.50274  0.39495  0.23780  1.0000
  H   H17       1.0  0.91610  0.04491  0.16147  1.0000
  H   H18       1.0  0.11948  0.45527  0.34119  1.0000
  H   H19       1.0  0.08390  0.95509  0.83853  1.0000
  H   H20       1.0  0.88052  0.54473  0.65881  1.0000
  H   H21       1.0  0.75891  0.95979  0.21711  1.0000
  H   H22       1.0  0.93334  0.54050  0.28347  1.0000
  H   H23       1.0  0.24109  0.04020  0.78289  1.0000
  H   H24       1.0  0.06666  0.45950  0.71653  1.0000
  H   H25       1.0  0.67157  0.11402  0.20760  1.0000
  H   H26       1.0  0.99072  0.38632  0.29283  1.0000
  H   H27       1.0  0.32843  0.88597  0.79240  1.0000
  H   H28       1.0  0.00928  0.61368  0.70717  1.0000
  H   H29       1.0  0.87984  0.26223  0.90452  1.0000
  H   H30       1.0  0.04769  0.23798  0.59650  1.0000
  H   H31       1.0  0.12016  0.73777  0.09548  1.0000
  H   H32       1.0  0.95230  0.76202  0.40350  1.0000
  H   H33       1.0  0.83615  0.23139  0.05397  1.0000
  H   H34       1.0  0.11933  0.26874  0.44710  1.0000
  H   H35       1.0  0.16385  0.76861  0.94603  1.0000
  H   H36       1.0  0.88067  0.73126  0.55290  1.0000
  H   H37       1.0  0.42492  0.21917  0.03212  1.0000
  H   H38       1.0  0.67483  0.28039  0.46807  1.0000
  H   H39       1.0  0.57508  0.78083  0.96788  1.0000
  H   H40       1.0  0.32518  0.71961  0.53193  1.0000
  H   H41       1.0  0.11927  0.37238  0.06943  1.0000
  H   H42       1.0  0.55869  0.12694  0.43063  1.0000
  H   H43       1.0  0.88073  0.62762  0.93057  1.0000
  H   H44       1.0  0.44132  0.87306  0.56937  1.0000
  H   H45       1.0  0.89359  0.42199  0.94159  1.0000
  H   H46       1.0  0.25881  0.07853  0.55847  1.0000
  H   H47       1.0  0.10641  0.57800  0.05841  1.0000
  H   H48       1.0  0.74119  0.92147  0.44153  1.0000
  C   C1        1.0  0.73262  0.99645  0.88313  1.0000
  C   C2        1.0  0.61409  0.50334  0.61593  1.0000
  C   C3        1.0  0.26738  0.00355  0.11687  1.0000
  C   C4        1.0  0.38591  0.49666  0.38407  1.0000
  C   C5        1.0  0.74707  0.94823  0.99338  1.0000
  C   C6        1.0  0.68914  0.55190  0.50626  1.0000
  C   C7        1.0  0.25293  0.05177  0.00662  1.0000
  C   C8        1.0  0.31086  0.44810  0.49374  1.0000
  C   C9        1.0  0.76211  0.03544  0.04770  1.0000
  C   C10       1.0  0.84451  0.46475  0.45252  1.0000
  C   C11       1.0  0.23789  0.96456  0.95230  1.0000
  C   C12       1.0  0.15549  0.53525  0.54749  1.0000
  C   C13       1.0  0.72134  0.94269  0.78591  1.0000
  C   C14       1.0  0.45343  0.55669  0.71250  1.0000
  C   C15       1.0  0.27866  0.05731  0.21409  1.0000
  C   C16       1.0  0.54657  0.44331  0.28750  1.0000
  C   C17       1.0  0.77753  0.03874  0.16443  1.0000
  C   C18       1.0  0.97847  0.46158  0.33654  1.0000
  C   C19       1.0  0.22247  0.96126  0.83557  1.0000
  C   C20       1.0  0.02153  0.53842  0.66346  1.0000
  C   C21       1.0  0.77538  0.24169  0.98197  1.0000
  C   C22       1.0  0.99869  0.25838  0.51863  1.0000
  C   C23       1.0  0.22462  0.75830  0.01803  1.0000
  C   C24       1.0  0.00131  0.74162  0.48137  1.0000
  C   C25       1.0  0.58887  0.45546  0.98943  1.0000
  C   C26       1.0  0.03411  0.04458  0.51052  1.0000
  C   C27       1.0  0.41114  0.54453  0.01057  1.0000
  C   C28       1.0  0.96590  0.95542  0.48948  1.0000
  C   C29       1.0  0.59013  0.33661  0.00023  1.0000
  C   C30       1.0  0.92660  0.16334  0.49986  1.0000
  C   C31       1.0  0.40987  0.66339  0.99977  1.0000
  C   C32       1.0  0.07341  0.83667  0.50014  1.0000
  C   C33       1.0  0.42242  0.30950  0.02847  1.0000
  C   C34       1.0  0.75911  0.19013  0.47173  1.0000
  C   C35       1.0  0.57758  0.69050  0.97154  1.0000
  C   C36       1.0  0.24089  0.80987  0.52827  1.0000
  C   C37       1.0  0.24883  0.39672  0.04890  1.0000
  C   C38       1.0  0.69251  0.10279  0.45136  1.0000
  C   C39       1.0  0.75117  0.60328  0.95110  1.0000
  C   C40       1.0  0.30750  0.89721  0.54864  1.0000
  C   C41       1.0  0.75763  0.48795  0.95914  1.0000
  C   C42       1.0  0.20616  0.01245  0.54064  1.0000
  C   C43       1.0  0.24237  0.51205  0.04086  1.0000
  C   C44       1.0  0.79385  0.98756  0.45936  1.0000
  N   N1        1.0  0.75920  0.12908  0.97036  1.0000
  N   N2        1.0  0.85875  0.37092  0.52971  1.0000
  N   N3        1.0  0.24080  0.87092  0.02964  1.0000
  N   N4        1.0  0.14125  0.62908  0.47029  1.0000
  N   N5        1.0  0.73875  0.10725  0.87063  1.0000
  N   N6        1.0  0.71830  0.39251  0.62868  1.0000
  N   N7        1.0  0.26125  0.89275  0.12937  1.0000
  N   N8        1.0  0.28170  0.60749  0.37132  1.0000
  N   N9        1.0  0.26796  0.25009  0.75008  1.0000
  N   N10       1.0  0.73204  0.74991  0.24992  1.0000
  O   O1        1.0  0.41215  0.19416  0.67740  1.0000
  O   O2        1.0  0.28663  0.30676  0.82185  1.0000
  O   O3        1.0  0.58785  0.80584  0.32259  1.0000
  O   O4        1.0  0.71337  0.69324  0.17815  1.0000
  O   O5        1.0  0.10578  0.24934  0.75094  1.0000
  O   O6        1.0  0.89422  0.75066  0.24906  1.0000
