data_image0
_chemical_formula_structural       Cd2H32C40S8N8Cl4
_chemical_formula_sum              "Cd2 H32 C40 S8 N8 Cl4"
_cell_length_a       7.54669
_cell_length_b       9.20839
_cell_length_c       18.1817
_cell_angle_alpha    89.9995
_cell_angle_beta     90.0001
_cell_angle_gamma    99.8033

_space_group_name_H-M_alt    "P 1"
_space_group_IT_number       1

loop_
  _space_group_symop_operation_xyz
  'x, y, z'

loop_
  _atom_site_type_symbol
  _atom_site_label
  _atom_site_symmetry_multiplicity
  _atom_site_fract_x
  _atom_site_fract_y
  _atom_site_fract_z
  _atom_site_occupancy
  Cd  Cd1       1.0  1.00000  1.00000  0.50000  1.0000
  Cd  Cd2       1.0  0.00000  0.50000  1.00000  1.0000
  H   H1        1.0  0.58695  0.88614  0.55043  1.0000
  H   H2        1.0  0.58695  0.38615  0.94957  1.0000
  H   H3        1.0  0.41305  0.11385  0.44957  1.0000
  H   H4        1.0  0.41304  0.61385  0.05043  1.0000
  H   H5        1.0  0.37651  0.66677  0.59671  1.0000
  H   H6        1.0  0.37651  0.16677  0.90329  1.0000
  H   H7        1.0  0.62349  0.33323  0.40329  1.0000
  H   H8        1.0  0.62349  0.83322  0.09671  1.0000
  H   H9        1.0  0.81339  0.41910  0.57700  1.0000
  H   H10       1.0  0.81340  0.91911  0.92299  1.0000
  H   H11       1.0  0.18660  0.58089  0.42299  1.0000
  H   H12       1.0  0.18660  0.08089  0.07701  1.0000
  H   H13       1.0  0.00881  0.65469  0.53604  1.0000
  H   H14       1.0  0.00881  0.15470  0.96396  1.0000
  H   H15       1.0  0.99119  0.34530  0.46396  1.0000
  H   H16       1.0  0.99119  0.84530  0.03604  1.0000
  H   H17       1.0  0.90451  0.48732  0.70835  1.0000
  H   H18       1.0  0.90451  0.98732  0.79166  1.0000
  H   H19       1.0  0.09549  0.51268  0.29165  1.0000
  H   H20       1.0  0.09549  0.01268  0.20835  1.0000
  H   H21       1.0  0.85440  0.54293  0.84107  1.0000
  H   H22       1.0  0.85439  0.04293  0.65893  1.0000
  H   H23       1.0  0.14561  0.45707  0.15893  1.0000
  H   H24       1.0  0.14561  0.95707  0.34107  1.0000
  H   H25       1.0  0.36779  0.48553  0.89820  1.0000
  H   H26       1.0  0.36778  0.98553  0.60180  1.0000
  H   H27       1.0  0.63222  0.51447  0.10180  1.0000
  H   H28       1.0  0.63222  0.01448  0.39820  1.0000
  H   H29       1.0  0.44422  0.43062  0.76799  1.0000
  H   H30       1.0  0.44422  0.93062  0.73200  1.0000
  H   H31       1.0  0.55578  0.56938  0.23200  1.0000
  H   H32       1.0  0.55578  0.06938  0.26799  1.0000
  C   C1        1.0  0.63301  0.78155  0.55957  1.0000
  C   C2        1.0  0.63301  0.28155  0.94043  1.0000
  C   C3        1.0  0.36699  0.21845  0.44043  1.0000
  C   C4        1.0  0.36698  0.71845  0.05957  1.0000
  C   C5        1.0  0.51630  0.65896  0.58555  1.0000
  C   C6        1.0  0.51630  0.15896  0.91445  1.0000
  C   C7        1.0  0.48370  0.34104  0.41445  1.0000
  C   C8        1.0  0.48369  0.84104  0.08555  1.0000
  C   C9        1.0  0.58071  0.52634  0.59316  1.0000
  C   C10       1.0  0.58071  0.02634  0.90685  1.0000
  C   C11       1.0  0.41928  0.47366  0.40685  1.0000
  C   C12       1.0  0.41929  0.97366  0.09316  1.0000
  C   C13       1.0  0.76089  0.52249  0.57492  1.0000
  C   C14       1.0  0.76089  0.02249  0.92508  1.0000
  C   C15       1.0  0.23911  0.47751  0.42508  1.0000
  C   C16       1.0  0.23911  0.97751  0.07493  1.0000
  C   C17       1.0  0.86790  0.65167  0.55087  1.0000
  C   C18       1.0  0.86790  0.15167  0.94913  1.0000
  C   C19       1.0  0.13210  0.34833  0.44913  1.0000
  C   C20       1.0  0.13210  0.84833  0.05088  1.0000
  C   C21       1.0  0.17867  0.45182  0.72799  1.0000
  C   C22       1.0  0.17867  0.95182  0.77200  1.0000
  C   C23       1.0  0.82133  0.54818  0.27200  1.0000
  C   C24       1.0  0.82133  0.04818  0.22799  1.0000
  C   C25       1.0  0.01092  0.48542  0.74872  1.0000
  C   C26       1.0  0.01092  0.98542  0.75128  1.0000
  C   C27       1.0  0.98908  0.51458  0.25128  1.0000
  C   C28       1.0  0.98908  0.01458  0.24872  1.0000
  C   C29       1.0  0.98205  0.51539  0.82210  1.0000
  C   C30       1.0  0.98204  0.01539  0.67790  1.0000
  C   C31       1.0  0.01795  0.48461  0.17790  1.0000
  C   C32       1.0  0.01796  0.98461  0.32210  1.0000
  C   C33       1.0  0.26930  0.48467  0.85418  1.0000
  C   C34       1.0  0.26929  0.98467  0.64582  1.0000
  C   C35       1.0  0.73071  0.51533  0.14582  1.0000
  C   C36       1.0  0.73071  0.01534  0.35418  1.0000
  C   C37       1.0  0.31158  0.45446  0.78182  1.0000
  C   C38       1.0  0.31157  0.95446  0.71818  1.0000
  C   C39       1.0  0.68843  0.54555  0.21818  1.0000
  C   C40       1.0  0.68843  0.04555  0.28182  1.0000
  S   S1        1.0  0.44968  0.35747  0.62171  1.0000
  S   S2        1.0  0.44969  0.85747  0.87829  1.0000
  S   S3        1.0  0.55031  0.64253  0.37828  1.0000
  S   S4        1.0  0.55031  0.14252  0.12171  1.0000
  S   S5        1.0  0.19794  0.40360  0.63473  1.0000
  S   S6        1.0  0.19794  0.90360  0.86527  1.0000
  S   S7        1.0  0.80206  0.59640  0.36527  1.0000
  S   S8        1.0  0.80206  0.09640  0.13473  1.0000
  N   N1        1.0  0.80610  0.77956  0.54303  1.0000
  N   N2        1.0  0.80610  0.27956  0.95697  1.0000
  N   N3        1.0  0.19390  0.22044  0.45697  1.0000
  N   N4        1.0  0.19390  0.72044  0.04303  1.0000
  N   N5        1.0  0.10743  0.51299  0.87450  1.0000
  N   N6        1.0  0.10742  0.01298  0.62550  1.0000
  N   N7        1.0  0.89258  0.48702  0.12550  1.0000
  N   N8        1.0  0.89258  0.98702  0.37450  1.0000
  Cl  Cl1       1.0  0.75183  0.15279  0.53627  1.0000
  Cl  Cl2       1.0  0.75184  0.65280  0.96372  1.0000
  Cl  Cl3       1.0  0.24817  0.84721  0.46372  1.0000
  Cl  Cl4       1.0  0.24816  0.34720  0.03628  1.0000
