data_image0
_chemical_formula_structural       Ni2Mo6H40C48N16O19
_chemical_formula_sum              "Ni2 Mo6 H40 C48 N16 O19"
_cell_length_a       12.1378
_cell_length_b       12.1363
_cell_length_c       13.4918
_cell_angle_alpha    116.736
_cell_angle_beta     116.741
_cell_angle_gamma    89.9894

_space_group_name_H-M_alt    "P 1"
_space_group_IT_number       1

loop_
  _space_group_symop_operation_xyz
  'x, y, z'

loop_
  _atom_site_type_symbol
  _atom_site_label
  _atom_site_symmetry_multiplicity
  _atom_site_fract_x
  _atom_site_fract_y
  _atom_site_fract_z
  _atom_site_occupancy
  Ni  Ni1       1.0  0.50000  0.00000  0.00000  1.0000
  Ni  Ni2       1.0  0.00000  0.50000  0.00000  1.0000
  Mo  Mo1       1.0  0.80897  0.03134  0.00001  1.0000
  Mo  Mo2       1.0  0.19102  0.96866  0.99998  1.0000
  Mo  Mo3       1.0  0.03133  0.19105  0.00003  1.0000
  Mo  Mo4       1.0  0.96867  0.80895  0.99997  1.0000
  Mo  Mo5       1.0  0.11329  0.11325  0.22653  1.0000
  Mo  Mo6       1.0  0.88671  0.88675  0.77346  1.0000
  H   H1        1.0  0.21548  0.95219  0.78048  1.0000
  H   H2        1.0  0.56498  0.82843  0.78056  1.0000
  H   H3        1.0  0.95218  0.56503  0.78050  1.0000
  H   H4        1.0  0.82841  0.21541  0.78050  1.0000
  H   H5        1.0  0.78452  0.04781  0.21952  1.0000
  H   H6        1.0  0.43502  0.17157  0.21944  1.0000
  H   H7        1.0  0.04782  0.43498  0.21951  1.0000
  H   H8        1.0  0.17159  0.78458  0.21950  1.0000
  H   H9        1.0  0.56107  0.15417  0.87044  1.0000
  H   H10       1.0  0.30933  0.71612  0.87036  1.0000
  H   H11       1.0  0.15423  0.30930  0.87037  1.0000
  H   H12       1.0  0.71626  0.56103  0.87043  1.0000
  H   H13       1.0  0.43893  0.84583  0.12955  1.0000
  H   H14       1.0  0.69066  0.28388  0.12964  1.0000
  H   H15       1.0  0.84577  0.69070  0.12963  1.0000
  H   H16       1.0  0.28374  0.43897  0.12957  1.0000
  H   H17       1.0  0.36159  0.15470  0.66017  1.0000
  H   H18       1.0  0.29866  0.50542  0.66010  1.0000
  H   H19       1.0  0.15471  0.29858  0.66011  1.0000
  H   H20       1.0  0.50553  0.36154  0.66016  1.0000
  H   H21       1.0  0.63841  0.84530  0.33983  1.0000
  H   H22       1.0  0.70134  0.49458  0.33990  1.0000
  H   H23       1.0  0.84529  0.70142  0.33989  1.0000
  H   H24       1.0  0.49447  0.63846  0.33984  1.0000
  H   H25       1.0  0.04234  0.02041  0.70665  1.0000
  H   H26       1.0  0.66437  0.68628  0.70664  1.0000
  H   H27       1.0  0.02043  0.66438  0.70664  1.0000
  H   H28       1.0  0.68624  0.04233  0.70664  1.0000
  H   H29       1.0  0.95766  0.97959  0.29336  1.0000
  H   H30       1.0  0.33563  0.31372  0.29336  1.0000
  H   H31       1.0  0.97957  0.33562  0.29336  1.0000
  H   H32       1.0  0.31376  0.95767  0.29336  1.0000
  H   H33       1.0  0.17828  0.02307  0.46078  1.0000
  H   H34       1.0  0.28249  0.43780  0.46078  1.0000
  H   H35       1.0  0.02306  0.28245  0.46081  1.0000
  H   H36       1.0  0.43777  0.17832  0.46070  1.0000
  H   H37       1.0  0.82172  0.97692  0.53922  1.0000
  H   H38       1.0  0.71751  0.56220  0.53922  1.0000
  H   H39       1.0  0.97694  0.71755  0.53919  1.0000
  H   H40       1.0  0.56223  0.82168  0.53930  1.0000
  C   C1        1.0  0.28423  0.00780  0.77910  1.0000
  C   C2        1.0  0.49484  0.77137  0.77910  1.0000
  C   C3        1.0  0.00781  0.49488  0.77911  1.0000
  C   C4        1.0  0.77139  0.28416  0.77907  1.0000
  C   C5        1.0  0.71577  0.99220  0.22090  1.0000
  C   C6        1.0  0.50516  0.22863  0.22090  1.0000
  C   C7        1.0  0.99219  0.50512  0.22090  1.0000
  C   C8        1.0  0.22861  0.71584  0.22093  1.0000
  C   C9        1.0  0.45954  0.11272  0.82093  1.0000
  C   C10       1.0  0.36135  0.70815  0.82087  1.0000
  C   C11       1.0  0.11274  0.36133  0.82086  1.0000
  C   C12       1.0  0.70825  0.45951  0.82093  1.0000
  C   C13       1.0  0.54046  0.88728  0.17907  1.0000
  C   C14       1.0  0.63864  0.29185  0.17912  1.0000
  C   C15       1.0  0.88726  0.63867  0.17914  1.0000
  C   C16       1.0  0.29175  0.54049  0.17907  1.0000
  C   C17       1.0  0.36233  0.11363  0.71693  1.0000
  C   C18       1.0  0.35460  0.60330  0.71685  1.0000
  C   C19       1.0  0.11366  0.35459  0.71690  1.0000
  C   C20       1.0  0.60338  0.36229  0.71689  1.0000
  C   C21       1.0  0.63766  0.88637  0.28307  1.0000
  C   C22       1.0  0.64540  0.39670  0.28314  1.0000
  C   C23       1.0  0.88635  0.64541  0.28310  1.0000
  C   C24       1.0  0.39662  0.63771  0.28311  1.0000
  C   C25       1.0  0.12448  0.02329  0.59418  1.0000
  C   C26       1.0  0.46975  0.57095  0.59418  1.0000
  C   C27       1.0  0.02328  0.46975  0.59416  1.0000
  C   C28       1.0  0.57092  0.12446  0.59413  1.0000
  C   C29       1.0  0.87552  0.97671  0.40582  1.0000
  C   C30       1.0  0.53026  0.42905  0.40582  1.0000
  C   C31       1.0  0.97672  0.53026  0.40584  1.0000
  C   C32       1.0  0.42908  0.87553  0.40587  1.0000
  C   C33       1.0  0.02397  0.00966  0.61552  1.0000
  C   C34       1.0  0.59163  0.60586  0.61553  1.0000
  C   C35       1.0  0.00968  0.59162  0.61551  1.0000
  C   C36       1.0  0.60582  0.02393  0.61551  1.0000
  C   C37       1.0  0.97603  0.99034  0.38449  1.0000
  C   C38       1.0  0.40838  0.39414  0.38447  1.0000
  C   C39       1.0  0.99032  0.40838  0.38449  1.0000
  C   C40       1.0  0.39417  0.97607  0.38449  1.0000
  C   C41       1.0  0.10080  0.01395  0.47888  1.0000
  C   C42       1.0  0.37806  0.46502  0.47887  1.0000
  C   C43       1.0  0.01391  0.37802  0.47888  1.0000
  C   C44       1.0  0.46500  0.10084  0.47883  1.0000
  C   C45       1.0  0.89920  0.98605  0.52112  1.0000
  C   C46       1.0  0.62194  0.53498  0.52113  1.0000
  C   C47       1.0  0.98609  0.62198  0.52112  1.0000
  C   C48       1.0  0.53499  0.89916  0.52117  1.0000
  N   N1        1.0  0.40931  0.04634  0.85815  1.0000
  N   N2        1.0  0.44878  0.81179  0.85813  1.0000
  N   N3        1.0  0.04638  0.44877  0.85808  1.0000
  N   N4        1.0  0.81186  0.40926  0.85815  1.0000
  N   N5        1.0  0.59069  0.95366  0.14185  1.0000
  N   N6        1.0  0.55122  0.18821  0.14187  1.0000
  N   N7        1.0  0.95362  0.55124  0.14192  1.0000
  N   N8        1.0  0.18814  0.59074  0.14185  1.0000
  N   N9        1.0  0.25104  0.04700  0.69142  1.0000
  N   N10       1.0  0.44039  0.64449  0.69140  1.0000
  N   N11       1.0  0.04703  0.44041  0.69144  1.0000
  N   N12       1.0  0.64452  0.25099  0.69139  1.0000
  N   N13       1.0  0.74896  0.95300  0.30858  1.0000
  N   N14       1.0  0.55961  0.35551  0.30860  1.0000
  N   N15       1.0  0.95297  0.55960  0.30856  1.0000
  N   N16       1.0  0.35548  0.74901  0.30861  1.0000
  O   O1        1.0  0.66593  0.03469  0.00002  1.0000
  O   O2        1.0  0.33407  0.96531  0.99998  1.0000
  O   O3        1.0  0.03473  0.33414  0.00008  1.0000
  O   O4        1.0  0.96527  0.66586  0.99991  1.0000
  O   O5        1.0  0.85233  0.17420  0.00009  1.0000
  O   O6        1.0  0.14766  0.82579  0.99990  1.0000
  O   O7        1.0  0.17410  0.14768  0.00002  1.0000
  O   O8        1.0  0.82590  0.85232  0.99998  1.0000
  O   O9        1.0  0.00000  0.00000  0.00000  1.0000
  O   O10       1.0  0.93061  0.09725  0.17657  1.0000
  O   O11       1.0  0.24597  0.07921  0.17651  1.0000
  O   O12       1.0  0.09731  0.24598  0.17657  1.0000
  O   O13       1.0  0.07929  0.93054  0.17651  1.0000
  O   O14       1.0  0.06939  0.90275  0.82344  1.0000
  O   O15       1.0  0.75403  0.92078  0.82349  1.0000
  O   O16       1.0  0.90269  0.75402  0.82343  1.0000
  O   O17       1.0  0.92071  0.06946  0.82350  1.0000
  O   O18       1.0  0.19536  0.19534  0.39061  1.0000
  O   O19       1.0  0.80464  0.80466  0.60939  1.0000
