data_image0
_chemical_formula_structural       Cu8H56C60N16
_chemical_formula_sum              "Cu8 H56 C60 N16"
_cell_length_a       7.22227
_cell_length_b       14.0612
_cell_length_c       16.171
_cell_angle_alpha    68.6522
_cell_angle_beta     80.6567
_cell_angle_gamma    81.6254

_space_group_name_H-M_alt    "P 1"
_space_group_IT_number       1

loop_
  _space_group_symop_operation_xyz
  'x, y, z'

loop_
  _atom_site_type_symbol
  _atom_site_label
  _atom_site_symmetry_multiplicity
  _atom_site_fract_x
  _atom_site_fract_y
  _atom_site_fract_z
  _atom_site_occupancy
  Cu  Cu1       1.0  0.66873  0.06082  0.16122  1.0000
  Cu  Cu2       1.0  0.33128  0.93917  0.83878  1.0000
  Cu  Cu3       1.0  0.76202  0.39774  0.93667  1.0000
  Cu  Cu4       1.0  0.23797  0.60226  0.06333  1.0000
  Cu  Cu5       1.0  0.04304  0.57525  0.63387  1.0000
  Cu  Cu6       1.0  0.95695  0.42475  0.36613  1.0000
  Cu  Cu7       1.0  0.19661  0.89659  0.40182  1.0000
  Cu  Cu8       1.0  0.80340  0.10341  0.59818  1.0000
  H   H1        1.0  0.34165  0.96546  0.03878  1.0000
  H   H2        1.0  0.65836  0.03453  0.96123  1.0000
  H   H3        1.0  0.04137  0.07522  0.04638  1.0000
  H   H4        1.0  0.95864  0.92478  0.95363  1.0000
  H   H5        1.0  0.83044  0.86226  0.28337  1.0000
  H   H6        1.0  0.16955  0.13774  0.71663  1.0000
  H   H7        1.0  0.12312  0.74277  0.28706  1.0000
  H   H8        1.0  0.87687  0.25723  0.71293  1.0000
  H   H9        1.0  0.39910  0.70604  0.14899  1.0000
  H   H10       1.0  0.60090  0.29395  0.85101  1.0000
  H   H11       1.0  0.47477  0.74034  0.23199  1.0000
  H   H12       1.0  0.52524  0.25965  0.76801  1.0000
  H   H13       1.0  0.56604  0.84840  0.02915  1.0000
  H   H14       1.0  0.43395  0.15160  0.97085  1.0000
  H   H15       1.0  0.63797  0.88451  0.11272  1.0000
  H   H16       1.0  0.36202  0.11549  0.88728  1.0000
  H   H17       1.0  0.90391  0.78305  0.06787  1.0000
  H   H18       1.0  0.09608  0.21695  0.93212  1.0000
  H   H19       1.0  0.80713  0.70284  0.17267  1.0000
  H   H20       1.0  0.19288  0.29716  0.82733  1.0000
  H   H21       1.0  0.84571  0.75935  0.92556  1.0000
  H   H22       1.0  0.15430  0.24065  0.07444  1.0000
  H   H23       1.0  0.82581  0.62270  0.86316  1.0000
  H   H24       1.0  0.17420  0.37730  0.13684  1.0000
  H   H25       1.0  0.65548  0.41852  0.11329  1.0000
  H   H26       1.0  0.34452  0.58148  0.88671  1.0000
  H   H27       1.0  0.67476  0.54415  0.18683  1.0000
  H   H28       1.0  0.32526  0.45585  0.81317  1.0000
  H   H29       1.0  0.36849  0.49769  0.35660  1.0000
  H   H30       1.0  0.63151  0.50232  0.64340  1.0000
  H   H31       1.0  0.22805  0.60714  0.44655  1.0000
  H   H32       1.0  0.77196  0.39286  0.55345  1.0000
  H   H33       1.0  0.19617  0.35642  0.68126  1.0000
  H   H34       1.0  0.80381  0.64358  0.31874  1.0000
  H   H35       1.0  0.35004  0.23665  0.60203  1.0000
  H   H36       1.0  0.64995  0.76335  0.39797  1.0000
  H   H37       1.0  0.54955  0.22912  0.45861  1.0000
  H   H38       1.0  0.45045  0.77089  0.54139  1.0000
  H   H39       1.0  0.31752  0.23488  0.43455  1.0000
  H   H40       1.0  0.68248  0.76513  0.56544  1.0000
  H   H41       1.0  0.62703  0.36577  0.31188  1.0000
  H   H42       1.0  0.37297  0.63423  0.68812  1.0000
  H   H43       1.0  0.38792  0.38493  0.29060  1.0000
  H   H44       1.0  0.61208  0.61507  0.70940  1.0000
  H   H45       1.0  0.40306  0.20507  0.29483  1.0000
  H   H46       1.0  0.59694  0.79493  0.70517  1.0000
  H   H47       1.0  0.55859  0.27963  0.20729  1.0000
  H   H48       1.0  0.44142  0.72037  0.79271  1.0000
  H   H49       1.0  0.90804  0.25217  0.21625  1.0000
  H   H50       1.0  0.09197  0.74782  0.78376  1.0000
  H   H51       1.0  0.17000  0.11715  0.27305  1.0000
  H   H52       1.0  0.83000  0.88284  0.72696  1.0000
  H   H53       1.0  0.80544  0.93602  0.47325  1.0000
  H   H54       1.0  0.19455  0.06398  0.52675  1.0000
  H   H55       1.0  0.52627  0.05881  0.42042  1.0000
  H   H56       1.0  0.47373  0.94119  0.57958  1.0000
  C   C1        1.0  0.49456  0.99126  0.25042  1.0000
  C   C2        1.0  0.50543  0.00874  0.74959  1.0000
  C   C3        1.0  0.72147  0.26934  0.01711  1.0000
  C   C4        1.0  0.27852  0.73065  0.98290  1.0000
  C   C5        1.0  0.92821  0.50571  0.74518  1.0000
  C   C6        1.0  0.07177  0.49429  0.25482  1.0000
  C   C7        1.0  0.11846  0.78205  0.49285  1.0000
  C   C8        1.0  0.88154  0.21796  0.50714  1.0000
  C   C9        1.0  0.23344  0.93868  0.09491  1.0000
  C   C10       1.0  0.76657  0.06131  0.90509  1.0000
  C   C11       1.0  0.06592  0.00063  0.09836  1.0000
  C   C12       1.0  0.93408  0.99936  0.90164  1.0000
  C   C13       1.0  0.94809  0.88167  0.23049  1.0000
  C   C14       1.0  0.05190  0.11832  0.76951  1.0000
  C   C15       1.0  0.11126  0.81577  0.23188  1.0000
  C   C16       1.0  0.88874  0.18423  0.76813  1.0000
  C   C17       1.0  0.25969  0.84329  0.16261  1.0000
  C   C18       1.0  0.74031  0.15670  0.83739  1.0000
  C   C19       1.0  0.43588  0.77177  0.16322  1.0000
  C   C20       1.0  0.56412  0.22822  0.83678  1.0000
  C   C21       1.0  0.60347  0.81891  0.09798  1.0000
  C   C22       1.0  0.39653  0.18109  0.90202  1.0000
  C   C23       1.0  0.77955  0.74197  0.10277  1.0000
  C   C24       1.0  0.22046  0.25804  0.89723  1.0000
  C   C25       1.0  0.76341  0.66322  0.06234  1.0000
  C   C26       1.0  0.23660  0.33679  0.93766  1.0000
  C   C27       1.0  0.80336  0.68447  0.96994  1.0000
  C   C28       1.0  0.19665  0.31554  0.03006  1.0000
  C   C29       1.0  0.79180  0.60930  0.93459  1.0000
  C   C30       1.0  0.20820  0.39070  0.06541  1.0000
  C   C31       1.0  0.69722  0.49512  0.07417  1.0000
  C   C32       1.0  0.30279  0.50488  0.92584  1.0000
  C   C33       1.0  0.70648  0.56601  0.11447  1.0000
  C   C34       1.0  0.29354  0.43399  0.88553  1.0000
  C   C35       1.0  0.33443  0.46235  0.42861  1.0000
  C   C36       1.0  0.66557  0.53765  0.57139  1.0000
  C   C37       1.0  0.25491  0.52415  0.47822  1.0000
  C   C38       1.0  0.74508  0.47586  0.52178  1.0000
  C   C39       1.0  0.23919  0.38444  0.60923  1.0000
  C   C40       1.0  0.76080  0.61556  0.39077  1.0000
  C   C41       1.0  0.32150  0.31830  0.56487  1.0000
  C   C42       1.0  0.67849  0.68170  0.43513  1.0000
  C   C43       1.0  0.36637  0.35622  0.47157  1.0000
  C   C44       1.0  0.63362  0.64378  0.52844  1.0000
  C   C45       1.0  0.43535  0.28183  0.42381  1.0000
  C   C46       1.0  0.56465  0.71817  0.57619  1.0000
  C   C47       1.0  0.49758  0.32716  0.32378  1.0000
  C   C48       1.0  0.50242  0.67284  0.67623  1.0000
  C   C49       1.0  0.53194  0.24429  0.28037  1.0000
  C   C50       1.0  0.46807  0.75571  0.71963  1.0000
  C   C51       1.0  0.69363  0.16681  0.31361  1.0000
  C   C52       1.0  0.30637  0.83320  0.68639  1.0000
  C   C53       1.0  0.87880  0.18291  0.27344  1.0000
  C   C54       1.0  0.12120  0.81709  0.72656  1.0000
  C   C55       1.0  0.02513  0.10892  0.30517  1.0000
  C   C56       1.0  0.97487  0.89108  0.69483  1.0000
  C   C57       1.0  0.82111  0.00735  0.41640  1.0000
  C   C58       1.0  0.17888  0.99265  0.58360  1.0000
  C   C59       1.0  0.66731  0.07664  0.38736  1.0000
  C   C60       1.0  0.33269  0.92337  0.61264  1.0000
  N   N1        1.0  0.06946  0.70784  0.55134  1.0000
  N   N2        1.0  0.93054  0.29216  0.44865  1.0000
  N   N3        1.0  0.84980  0.46005  0.81547  1.0000
  N   N4        1.0  0.15019  0.53995  0.18452  1.0000
  N   N5        1.0  0.70007  0.18669  0.06995  1.0000
  N   N6        1.0  0.29993  0.81331  0.93004  1.0000
  N   N7        1.0  0.39461  0.94534  0.31316  1.0000
  N   N8        1.0  0.60539  0.05467  0.68683  1.0000
  N   N9        1.0  0.92352  0.97325  0.16454  1.0000
  N   N10       1.0  0.07648  0.02675  0.83546  1.0000
  N   N11       1.0  0.74166  0.51497  0.98562  1.0000
  N   N12       1.0  0.25835  0.48503  0.01438  1.0000
  N   N13       1.0  0.20356  0.48640  0.56699  1.0000
  N   N14       1.0  0.79644  0.51360  0.43301  1.0000
  N   N15       1.0  0.99798  0.02160  0.37521  1.0000
  N   N16       1.0  0.00201  0.97840  0.62479  1.0000
