data_image0
_chemical_formula_structural       Cd2Co2H28C16N4O20
_chemical_formula_sum              "Cd2 Co2 H28 C16 N4 O20"
_cell_length_a       7.71746
_cell_length_b       8.23799
_cell_length_c       11.0015
_cell_angle_alpha    89.9996
_cell_angle_beta     90.0017
_cell_angle_gamma    111.562

_space_group_name_H-M_alt    "P 1"
_space_group_IT_number       1

loop_
  _space_group_symop_operation_xyz
  'x, y, z'

loop_
  _atom_site_type_symbol
  _atom_site_label
  _atom_site_symmetry_multiplicity
  _atom_site_fract_x
  _atom_site_fract_y
  _atom_site_fract_z
  _atom_site_occupancy
  Cd  Cd1       1.0  0.50000  0.50000  0.50000  1.0000
  Cd  Cd2       1.0  0.00000  0.50000  1.00000  1.0000
  Co  Co1       1.0  0.00000  0.50000  0.50000  1.0000
  Co  Co2       1.0  0.50000  0.50000  1.00000  1.0000
  H   H1        1.0  0.62768  0.77672  0.35776  1.0000
  H   H2        1.0  0.12767  0.77671  0.14225  1.0000
  H   H3        1.0  0.37232  0.22328  0.64224  1.0000
  H   H4        1.0  0.87232  0.22330  0.85775  1.0000
  H   H5        1.0  0.74866  0.66575  0.30981  1.0000
  H   H6        1.0  0.24866  0.66575  0.19021  1.0000
  H   H7        1.0  0.25135  0.33426  0.69019  1.0000
  H   H8        1.0  0.75133  0.33426  0.80979  1.0000
  H   H9        1.0  0.92031  0.78416  0.50958  1.0000
  H   H10       1.0  0.42028  0.78416  0.99043  1.0000
  H   H11       1.0  0.07969  0.21584  0.49042  1.0000
  H   H12       1.0  0.57972  0.21584  0.00957  1.0000
  H   H13       1.0  0.25211  0.00575  0.45418  1.0000
  H   H14       1.0  0.75210  0.00576  0.04583  1.0000
  H   H15       1.0  0.74789  0.99425  0.54582  1.0000
  H   H16       1.0  0.24790  0.99424  0.95417  1.0000
  H   H17       1.0  0.10636  0.85785  0.34706  1.0000
  H   H18       1.0  0.60636  0.85784  0.15295  1.0000
  H   H19       1.0  0.89364  0.14214  0.65294  1.0000
  H   H20       1.0  0.39363  0.14216  0.84705  1.0000
  H   H21       1.0  0.03417  0.89597  0.69528  1.0000
  H   H22       1.0  0.53416  0.89600  0.80473  1.0000
  H   H23       1.0  0.96583  0.10403  0.30472  1.0000
  H   H24       1.0  0.46583  0.10399  0.19527  1.0000
  H   H25       1.0  0.25606  0.90105  0.65277  1.0000
  H   H26       1.0  0.75605  0.90103  0.84724  1.0000
  H   H27       1.0  0.74394  0.09896  0.34724  1.0000
  H   H28       1.0  0.24394  0.09897  0.15276  1.0000
  C   C1        1.0  0.32703  0.78540  0.41560  1.0000
  C   C2        1.0  0.82705  0.78539  0.08439  1.0000
  C   C3        1.0  0.67298  0.21460  0.58440  1.0000
  C   C4        1.0  0.17295  0.21461  0.91561  1.0000
  C   C5        1.0  0.18041  0.86618  0.43365  1.0000
  C   C6        1.0  0.68042  0.86618  0.06636  1.0000
  C   C7        1.0  0.81959  0.13382  0.56635  1.0000
  C   C8        1.0  0.31957  0.13382  0.93364  1.0000
  C   C9        1.0  0.10697  0.81870  0.65225  1.0000
  C   C10       1.0  0.60694  0.81869  0.84774  1.0000
  C   C11       1.0  0.89303  0.18130  0.34775  1.0000
  C   C12       1.0  0.39305  0.18130  0.15226  1.0000
  C   C13       1.0  0.08570  0.66321  0.73396  1.0000
  C   C14       1.0  0.58561  0.66318  0.76602  1.0000
  C   C15       1.0  0.91430  0.33679  0.26604  1.0000
  C   C16       1.0  0.41439  0.33681  0.23398  1.0000
  N   N1        1.0  0.04434  0.76989  0.52639  1.0000
  N   N2        1.0  0.54432  0.76988  0.97362  1.0000
  N   N3        1.0  0.95566  0.23011  0.47361  1.0000
  N   N4        1.0  0.45568  0.23012  0.02638  1.0000
  O   O1        1.0  0.28759  0.63148  0.46122  1.0000
  O   O2        1.0  0.78758  0.63149  0.03872  1.0000
  O   O3        1.0  0.71242  0.36853  0.53878  1.0000
  O   O4        1.0  0.21241  0.36851  0.96128  1.0000
  O   O5        1.0  0.47323  0.86762  0.35714  1.0000
  O   O6        1.0  0.97325  0.86763  0.14287  1.0000
  O   O7        1.0  0.52677  0.13238  0.64286  1.0000
  O   O8        1.0  0.02675  0.13237  0.85712  1.0000
  O   O9        1.0  0.04569  0.51195  0.68690  1.0000
  O   O10       1.0  0.54556  0.51193  0.81311  1.0000
  O   O11       1.0  0.95432  0.48805  0.31310  1.0000
  O   O12       1.0  0.45445  0.48806  0.18690  1.0000
  O   O13       1.0  0.11262  0.69728  0.84640  1.0000
  O   O14       1.0  0.61256  0.69729  0.65358  1.0000
  O   O15       1.0  0.88738  0.30272  0.15360  1.0000
  O   O16       1.0  0.38745  0.30271  0.34642  1.0000
  O   O17       1.0  0.71797  0.71873  0.38194  1.0000
  O   O18       1.0  0.21797  0.71871  0.11808  1.0000
  O   O19       1.0  0.28203  0.28128  0.61806  1.0000
  O   O20       1.0  0.78203  0.28129  0.88192  1.0000
