data_image0
_chemical_formula_structural       Li4Mg2H40C22N4O22
_chemical_formula_sum              "Li4 Mg2 H40 C22 N4 O22"
_cell_length_a       7.44177
_cell_length_b       9.19117
_cell_length_c       12.643
_cell_angle_alpha    90.0003
_cell_angle_beta     89.9998
_cell_angle_gamma    91.4076

_space_group_name_H-M_alt    "P 1"
_space_group_IT_number       1

loop_
  _space_group_symop_operation_xyz
  'x, y, z'

loop_
  _atom_site_type_symbol
  _atom_site_label
  _atom_site_symmetry_multiplicity
  _atom_site_fract_x
  _atom_site_fract_y
  _atom_site_fract_z
  _atom_site_occupancy
  Li  Li1       1.0  0.40580  0.91744  0.76107  1.0000
  Li  Li2       1.0  0.59420  0.08256  0.26107  1.0000
  Li  Li3       1.0  0.46136  0.70487  0.57234  1.0000
  Li  Li4       1.0  0.53863  0.29513  0.07234  1.0000
  Mg  Mg1       1.0  0.10541  0.19610  0.68588  1.0000
  Mg  Mg2       1.0  0.89460  0.80390  0.18588  1.0000
  H   H1        1.0  0.45200  0.05372  0.93490  1.0000
  H   H2        1.0  0.54799  0.94628  0.43490  1.0000
  H   H3        1.0  0.26604  0.09976  0.88799  1.0000
  H   H4        1.0  0.73395  0.90025  0.38799  1.0000
  H   H5        1.0  0.72879  0.79033  0.65593  1.0000
  H   H6        1.0  0.27121  0.20967  0.15592  1.0000
  H   H7        1.0  0.81317  0.69831  0.55836  1.0000
  H   H8        1.0  0.18682  0.30170  0.05836  1.0000
  H   H9        1.0  0.28371  0.59455  0.70836  1.0000
  H   H10       1.0  0.71628  0.40544  0.20837  1.0000
  H   H11       1.0  0.17293  0.72802  0.67707  1.0000
  H   H12       1.0  0.82706  0.27197  0.17708  1.0000
  H   H13       1.0  0.15385  0.03621  0.40071  1.0000
  H   H14       1.0  0.84614  0.96378  0.90071  1.0000
  H   H15       1.0  0.99475  0.98975  0.50094  1.0000
  H   H16       1.0  0.00524  0.01025  0.00094  1.0000
  H   H17       1.0  0.26608  0.32205  0.39999  1.0000
  H   H18       1.0  0.73392  0.67794  0.90000  1.0000
  H   H19       1.0  0.38401  0.21543  0.49142  1.0000
  H   H20       1.0  0.61600  0.78456  0.99144  1.0000
  H   H21       1.0  0.58025  0.19917  0.72248  1.0000
  H   H22       1.0  0.41975  0.80084  0.22249  1.0000
  H   H23       1.0  0.70281  0.18344  0.84078  1.0000
  H   H24       1.0  0.29719  0.81657  0.34078  1.0000
  H   H25       1.0  0.76988  0.43059  0.85043  1.0000
  H   H26       1.0  0.23012  0.56941  0.35043  1.0000
  H   H27       1.0  0.96065  0.49104  0.77544  1.0000
  H   H28       1.0  0.03935  0.50896  0.27544  1.0000
  H   H29       1.0  0.91982  0.21950  0.38367  1.0000
  H   H30       1.0  0.08018  0.78050  0.88367  1.0000
  H   H31       1.0  0.98388  0.38602  0.44571  1.0000
  H   H32       1.0  0.01613  0.61398  0.94572  1.0000
  H   H33       1.0  0.72356  0.16223  0.54337  1.0000
  H   H34       1.0  0.27644  0.83778  0.04338  1.0000
  H   H35       1.0  0.66989  0.31848  0.47160  1.0000
  H   H36       1.0  0.33012  0.68153  0.97160  1.0000
  H   H37       1.0  0.86786  0.46514  0.60871  1.0000
  H   H38       1.0  0.13216  0.53486  0.10871  1.0000
  H   H39       1.0  0.64416  0.41440  0.63953  1.0000
  H   H40       1.0  0.35585  0.58560  0.13953  1.0000
  C   C1        1.0  0.12133  0.04992  0.48466  1.0000
  C   C2        1.0  0.87867  0.95008  0.98467  1.0000
  C   C3        1.0  0.26705  0.98276  0.55275  1.0000
  C   C4        1.0  0.73295  0.01723  0.05276  1.0000
  C   C5        1.0  0.26737  0.28594  0.48298  1.0000
  C   C6        1.0  0.73263  0.71405  0.98299  1.0000
  C   C7        1.0  0.30285  0.41447  0.55684  1.0000
  C   C8        1.0  0.69716  0.58552  0.05685  1.0000
  C   C9        1.0  0.71590  0.18111  0.75399  1.0000
  C   C10       1.0  0.28410  0.81889  0.25399  1.0000
  C   C11       1.0  0.77333  0.02810  0.72635  1.0000
  C   C12       1.0  0.22665  0.97189  0.22635  1.0000
  C   C13       1.0  0.88944  0.39425  0.80734  1.0000
  C   C14       1.0  0.11057  0.60575  0.30734  1.0000
  C   C15       1.0  0.01755  0.32033  0.88538  1.0000
  C   C16       1.0  0.98245  0.67968  0.38538  1.0000
  C   C17       1.0  0.94463  0.27207  0.46085  1.0000
  C   C18       1.0  0.05537  0.72793  0.96085  1.0000
  C   C19       1.0  0.77114  0.27357  0.52514  1.0000
  C   C20       1.0  0.22886  0.72644  0.02514  1.0000
  C   C21       1.0  0.77823  0.37102  0.62365  1.0000
  C   C22       1.0  0.22178  0.62898  0.12365  1.0000
  N   N1        1.0  0.10207  0.20397  0.51230  1.0000
  N   N2        1.0  0.89793  0.79603  0.01231  1.0000
  N   N3        1.0  0.84494  0.29555  0.71880  1.0000
  N   N4        1.0  0.15507  0.70445  0.21880  1.0000
  O   O1        1.0  0.29130  0.03510  0.64626  1.0000
  O   O2        1.0  0.70869  0.96490  0.14626  1.0000
  O   O3        1.0  0.35473  0.87923  0.51467  1.0000
  O   O4        1.0  0.64526  0.12077  0.01467  1.0000
  O   O5        1.0  0.24567  0.40024  0.65288  1.0000
  O   O6        1.0  0.75434  0.59975  0.15288  1.0000
  O   O7        1.0  0.39167  0.52077  0.52080  1.0000
  O   O8        1.0  0.60836  0.47922  0.02080  1.0000
  O   O9        1.0  0.93302  0.01057  0.69446  1.0000
  O   O10       1.0  0.06699  0.98942  0.19446  1.0000
  O   O11       1.0  0.65965  0.92458  0.74117  1.0000
  O   O12       1.0  0.34035  0.07543  0.24116  1.0000
  O   O13       1.0  0.12398  0.22668  0.84443  1.0000
  O   O14       1.0  0.87602  0.77332  0.34443  1.0000
  O   O15       1.0  0.01378  0.35543  0.98098  1.0000
  O   O16       1.0  0.98623  0.64459  0.48099  1.0000
  O   O17       1.0  0.35102  0.01765  0.89122  1.0000
  O   O18       1.0  0.64896  0.98235  0.39122  1.0000
  O   O19       1.0  0.70627  0.71070  0.60454  1.0000
  O   O20       1.0  0.29373  0.28930  0.10454  1.0000
  O   O21       1.0  0.28629  0.70301  0.71059  1.0000
  O   O22       1.0  0.71369  0.29698  0.21059  1.0000
