data_image0
_chemical_formula_structural       Cd4H32C48S8N16Cl8
_chemical_formula_sum              "Cd4 H32 C48 S8 N16 Cl8"
_cell_length_a       8.61218
_cell_length_b       11.4307
_cell_length_c       18.1143
_cell_angle_alpha    77.892
_cell_angle_beta     76.588
_cell_angle_gamma    67.9161

_space_group_name_H-M_alt    "P 1"
_space_group_IT_number       1

loop_
  _space_group_symop_operation_xyz
  'x, y, z'

loop_
  _atom_site_type_symbol
  _atom_site_label
  _atom_site_symmetry_multiplicity
  _atom_site_fract_x
  _atom_site_fract_y
  _atom_site_fract_z
  _atom_site_occupancy
  Cd  Cd1       1.0  1.00000  1.00000  0.50000  1.0000
  Cd  Cd2       1.0  0.50000  0.50000  0.00000  1.0000
  Cd  Cd3       1.0  0.96131  0.25020  0.74994  1.0000
  Cd  Cd4       1.0  0.03869  0.74980  0.25006  1.0000
  H   H1        1.0  0.71882  0.21846  0.60403  1.0000
  H   H2        1.0  0.45988  0.71911  0.10366  1.0000
  H   H3        1.0  0.28118  0.78154  0.39597  1.0000
  H   H4        1.0  0.54012  0.28089  0.89633  1.0000
  H   H5        1.0  0.44585  0.40144  0.59808  1.0000
  H   H6        1.0  0.55536  0.90249  0.09768  1.0000
  H   H7        1.0  0.55415  0.59856  0.40192  1.0000
  H   H8        1.0  0.44464  0.09751  0.90231  1.0000
  H   H9        1.0  0.42562  0.29287  0.38651  1.0000
  H   H10       1.0  0.89360  0.79250  0.88707  1.0000
  H   H11       1.0  0.57438  0.70713  0.61349  1.0000
  H   H12       1.0  0.10640  0.20751  0.11292  1.0000
  H   H13       1.0  0.69908  0.11167  0.40233  1.0000
  H   H14       1.0  0.78613  0.61099  0.90290  1.0000
  H   H15       1.0  0.30092  0.88833  0.59767  1.0000
  H   H16       1.0  0.21387  0.38901  0.09710  1.0000
  H   H17       1.0  0.16352  0.00235  0.86117  1.0000
  H   H18       1.0  0.97354  0.50283  0.36165  1.0000
  H   H19       1.0  0.83647  0.99764  0.13883  1.0000
  H   H20       1.0  0.02647  0.49717  0.63835  1.0000
  H   H21       1.0  0.43844  0.81972  0.86205  1.0000
  H   H22       1.0  0.88013  0.32014  0.36241  1.0000
  H   H23       1.0  0.56155  0.18027  0.13794  1.0000
  H   H24       1.0  0.11987  0.67986  0.63759  1.0000
  H   H25       1.0  0.61441  0.98682  0.63569  1.0000
  H   H26       1.0  0.76274  0.48568  0.13519  1.0000
  H   H27       1.0  0.38559  0.01318  0.36431  1.0000
  H   H28       1.0  0.23727  0.51432  0.86481  1.0000
  H   H29       1.0  0.33194  0.16371  0.64527  1.0000
  H   H30       1.0  0.85921  0.66260  0.14491  1.0000
  H   H31       1.0  0.66806  0.83628  0.35473  1.0000
  H   H32       1.0  0.14080  0.33740  0.85508  1.0000
  C   C1        1.0  0.07247  0.23492  0.55622  1.0000
  C   C2        1.0  0.13569  0.73465  0.05622  1.0000
  C   C3        1.0  0.92752  0.76508  0.44379  1.0000
  C   C4        1.0  0.86431  0.26535  0.94379  1.0000
  C   C5        1.0  0.90896  0.01600  0.69081  1.0000
  C   C6        1.0  0.38540  0.51651  0.19087  1.0000
  C   C7        1.0  0.09103  0.98400  0.30920  1.0000
  C   C8        1.0  0.61460  0.48349  0.80913  1.0000
  C   C9        1.0  0.64941  0.23691  0.55711  1.0000
  C   C10       1.0  0.55716  0.73739  0.05696  1.0000
  C   C11       1.0  0.35058  0.76309  0.44289  1.0000
  C   C12       1.0  0.44284  0.26262  0.94304  1.0000
  C   C13       1.0  0.49735  0.33909  0.55376  1.0000
  C   C14       1.0  0.61012  0.83978  0.05357  1.0000
  C   C15       1.0  0.50265  0.66091  0.44624  1.0000
  C   C16       1.0  0.38988  0.16022  0.94643  1.0000
  C   C17       1.0  0.41563  0.35979  0.49155  1.0000
  C   C18       1.0  0.73268  0.86014  0.99166  1.0000
  C   C19       1.0  0.58437  0.64021  0.50844  1.0000
  C   C20       1.0  0.26733  0.13987  0.00833  1.0000
  C   C21       1.0  0.48651  0.27794  0.43570  1.0000
  C   C22       1.0  0.79906  0.77779  0.93607  1.0000
  C   C23       1.0  0.51349  0.72206  0.56430  1.0000
  C   C24       1.0  0.20094  0.22222  0.06393  1.0000
  C   C25       1.0  0.63788  0.17772  0.44460  1.0000
  C   C26       1.0  0.73934  0.67741  0.94498  1.0000
  C   C27       1.0  0.36212  0.82228  0.55540  1.0000
  C   C28       1.0  0.26066  0.32259  0.05502  1.0000
  C   C29       1.0  0.26724  0.99624  0.81263  1.0000
  C   C30       1.0  0.92429  0.49631  0.31290  1.0000
  C   C31       1.0  0.73275  0.00376  0.18737  1.0000
  C   C32       1.0  0.07571  0.50369  0.68710  1.0000
  C   C33       1.0  0.42067  0.89462  0.81319  1.0000
  C   C34       1.0  0.87172  0.39473  0.31341  1.0000
  C   C35       1.0  0.57933  0.10537  0.18681  1.0000
  C   C36       1.0  0.12828  0.60527  0.68659  1.0000
  C   C37       1.0  0.54635  0.89017  0.74826  1.0000
  C   C38       1.0  0.81508  0.38991  0.24821  1.0000
  C   C39       1.0  0.45365  0.10983  0.25174  1.0000
  C   C40       1.0  0.18492  0.61009  0.75179  1.0000
  C   C41       1.0  0.51771  0.98768  0.68658  1.0000
  C   C42       1.0  0.80785  0.48691  0.18632  1.0000
  C   C43       1.0  0.48228  0.01232  0.31342  1.0000
  C   C44       1.0  0.19215  0.51309  0.81368  1.0000
  C   C45       1.0  0.36121  0.08573  0.69202  1.0000
  C   C46       1.0  0.86113  0.58496  0.19180  1.0000
  C   C47       1.0  0.63879  0.91426  0.30799  1.0000
  C   C48       1.0  0.13887  0.41504  0.80820  1.0000
  S   S1        1.0  0.12546  0.19575  0.47001  1.0000
  S   S2        1.0  0.20899  0.69670  0.96981  1.0000
  S   S3        1.0  0.87453  0.80425  0.52999  1.0000
  S   S4        1.0  0.79101  0.30331  0.03019  1.0000
  S   S5        1.0  0.82255  0.06280  0.77446  1.0000
  S   S6        1.0  0.34097  0.56268  0.27485  1.0000
  S   S7        1.0  0.17744  0.93720  0.22554  1.0000
  S   S8        1.0  0.65904  0.43732  0.72515  1.0000
  N   N1        1.0  0.03414  0.26699  0.61790  1.0000
  N   N2        1.0  0.07929  0.76595  0.11800  1.0000
  N   N3        1.0  0.96585  0.73302  0.38210  1.0000
  N   N4        1.0  0.92071  0.23405  0.88200  1.0000
  N   N5        1.0  0.97392  0.98072  0.63045  1.0000
  N   N6        1.0  0.41650  0.48154  0.13029  1.0000
  N   N7        1.0  0.02606  0.01928  0.36956  1.0000
  N   N8        1.0  0.58350  0.51847  0.86971  1.0000
  N   N9        1.0  0.71890  0.15732  0.50381  1.0000
  N   N10       1.0  0.62027  0.65727  0.00393  1.0000
  N   N11       1.0  0.28109  0.84268  0.49620  1.0000
  N   N12       1.0  0.37974  0.34273  0.99607  1.0000
  N   N13       1.0  0.23723  0.08992  0.75329  1.0000
  N   N14       1.0  0.91989  0.58954  0.25335  1.0000
  N   N15       1.0  0.76276  0.91007  0.24671  1.0000
  N   N16       1.0  0.08011  0.41046  0.74665  1.0000
  Cl  Cl1       1.0  0.22954  0.48558  0.48284  1.0000
  Cl  Cl2       1.0  0.80146  0.98605  0.98302  1.0000
  Cl  Cl3       1.0  0.77047  0.51442  0.51716  1.0000
  Cl  Cl4       1.0  0.19854  0.01396  0.01698  1.0000
  Cl  Cl5       1.0  0.73517  0.76412  0.74252  1.0000
  Cl  Cl6       1.0  0.75768  0.26389  0.24244  1.0000
  Cl  Cl7       1.0  0.26483  0.23588  0.25748  1.0000
  Cl  Cl8       1.0  0.24232  0.73610  0.75755  1.0000
