data_image0
_chemical_formula_structural       Cd2H14C12N14O4
_chemical_formula_sum              "Cd2 H14 C12 N14 O4"
_cell_length_a       6.31067
_cell_length_b       8.26222
_cell_length_c       10.5088
_cell_angle_alpha    71.1186
_cell_angle_beta     81.5981
_cell_angle_gamma    86.2595

_space_group_name_H-M_alt    "P 1"
_space_group_IT_number       1

loop_
  _space_group_symop_operation_xyz
  'x, y, z'

loop_
  _atom_site_type_symbol
  _atom_site_label
  _atom_site_symmetry_multiplicity
  _atom_site_fract_x
  _atom_site_fract_y
  _atom_site_fract_z
  _atom_site_occupancy
  Cd  Cd1       1.0  0.26679  0.46049  0.41732  1.0000
  Cd  Cd2       1.0  0.73322  0.53951  0.58268  1.0000
  H   H1        1.0  0.19233  0.13259  0.39511  1.0000
  H   H2        1.0  0.80768  0.86741  0.60489  1.0000
  H   H3        1.0  0.06688  0.26696  0.28185  1.0000
  H   H4        1.0  0.93312  0.73304  0.71815  1.0000
  H   H5        1.0  0.15862  0.55610  0.10071  1.0000
  H   H6        1.0  0.84137  0.44390  0.89929  1.0000
  H   H7        1.0  0.62908  0.91037  0.83158  1.0000
  H   H8        1.0  0.37091  0.08962  0.16842  1.0000
  H   H9        1.0  0.82702  0.86990  0.02991  1.0000
  H   H10       1.0  0.17297  0.13010  0.97009  1.0000
  H   H11       1.0  0.67561  0.67084  0.25707  1.0000
  H   H12       1.0  0.32439  0.32915  0.74293  1.0000
  H   H13       1.0  0.32392  0.85417  0.74023  1.0000
  H   H14       1.0  0.67608  0.14584  0.25976  1.0000
  C   C1        1.0  0.30602  0.62718  0.08245  1.0000
  C   C2        1.0  0.69398  0.37282  0.91755  1.0000
  C   C3        1.0  0.37977  0.73433  0.95163  1.0000
  C   C4        1.0  0.62023  0.26568  0.04837  1.0000
  C   C5        1.0  0.56823  0.82527  0.93175  1.0000
  C   C6        1.0  0.43177  0.17473  0.06825  1.0000
  C   C7        1.0  0.67925  0.80257  0.04144  1.0000
  C   C8        1.0  0.32075  0.19743  0.95857  1.0000
  C   C9        1.0  0.59533  0.69336  0.16772  1.0000
  C   C10       1.0  0.40467  0.30664  0.83227  1.0000
  C   C11       1.0  0.26408  0.75362  0.83571  1.0000
  C   C12       1.0  0.73591  0.24638  0.16430  1.0000
  N   N1        1.0  0.02908  0.34973  0.61875  1.0000
  N   N2        1.0  0.97092  0.65027  0.38125  1.0000
  N   N3        1.0  0.00754  0.20736  0.69863  1.0000
  N   N4        1.0  0.99247  0.79263  0.30137  1.0000
  N   N5        1.0  0.98597  0.07182  0.77900  1.0000
  N   N6        1.0  0.01404  0.92818  0.22100  1.0000
  N   N7        1.0  0.42634  0.67075  0.49374  1.0000
  N   N8        1.0  0.57366  0.32925  0.50626  1.0000
  N   N9        1.0  0.34031  0.80203  0.50082  1.0000
  N   N10       1.0  0.65969  0.19797  0.49918  1.0000
  N   N11       1.0  0.25373  0.92799  0.50977  1.0000
  N   N12       1.0  0.74628  0.07201  0.49023  1.0000
  N   N13       1.0  0.41102  0.60858  0.18844  1.0000
  N   N14       1.0  0.58898  0.39143  0.81156  1.0000
  O   O1        1.0  0.19552  0.25012  0.32938  1.0000
  O   O2        1.0  0.80448  0.74988  0.67062  1.0000
  O   O3        1.0  0.11112  0.66520  0.84020  1.0000
  O   O4        1.0  0.88888  0.33480  0.15980  1.0000
