data_image0
_chemical_formula_structural       Cd4H16C24N32
_chemical_formula_sum              "Cd4 H16 C24 N32"
_cell_length_a       6.59241
_cell_length_b       8.22313
_cell_length_c       17.7843
_cell_angle_alpha    90
_cell_angle_beta     90
_cell_angle_gamma    105.677

_space_group_name_H-M_alt    "P 1"
_space_group_IT_number       1

loop_
  _space_group_symop_operation_xyz
  'x, y, z'

loop_
  _atom_site_type_symbol
  _atom_site_label
  _atom_site_symmetry_multiplicity
  _atom_site_fract_x
  _atom_site_fract_y
  _atom_site_fract_z
  _atom_site_occupancy
  Cd  Cd1       1.0  0.76707  0.98035  0.20938  1.0000
  Cd  Cd2       1.0  0.26707  0.98035  0.29062  1.0000
  Cd  Cd3       1.0  0.23293  0.01965  0.79062  1.0000
  Cd  Cd4       1.0  0.73293  0.01965  0.70938  1.0000
  H   H1        1.0  0.75148  0.36167  0.19373  1.0000
  H   H2        1.0  0.25148  0.36167  0.30627  1.0000
  H   H3        1.0  0.24852  0.63833  0.80627  1.0000
  H   H4        1.0  0.74852  0.63833  0.69373  1.0000
  H   H5        1.0  0.74126  0.50438  0.95906  1.0000
  H   H6        1.0  0.24126  0.50438  0.54094  1.0000
  H   H7        1.0  0.25874  0.49562  0.04094  1.0000
  H   H8        1.0  0.75874  0.49562  0.45906  1.0000
  H   H9        1.0  0.71813  0.19976  0.92598  1.0000
  H   H10       1.0  0.21813  0.19976  0.57402  1.0000
  H   H11       1.0  0.28187  0.80024  0.07402  1.0000
  H   H12       1.0  0.78188  0.80024  0.42598  1.0000
  H   H13       1.0  0.72019  0.99683  0.02893  1.0000
  H   H14       1.0  0.22019  0.99683  0.47107  1.0000
  H   H15       1.0  0.27981  0.00317  0.97107  1.0000
  H   H16       1.0  0.77981  0.00317  0.52893  1.0000
  C   C1        1.0  0.74542  0.33098  0.13381  1.0000
  C   C2        1.0  0.24542  0.33098  0.36619  1.0000
  C   C3        1.0  0.25458  0.66902  0.86619  1.0000
  C   C4        1.0  0.75458  0.66902  0.63381  1.0000
  C   C5        1.0  0.75041  0.45437  0.07872  1.0000
  C   C6        1.0  0.25041  0.45437  0.42128  1.0000
  C   C7        1.0  0.24959  0.54563  0.92128  1.0000
  C   C8        1.0  0.74959  0.54563  0.57872  1.0000
  C   C9        1.0  0.73913  0.40954  0.00220  1.0000
  C   C10       1.0  0.23913  0.40955  0.49780  1.0000
  C   C11       1.0  0.26087  0.59045  0.99780  1.0000
  C   C12       1.0  0.76087  0.59045  0.50220  1.0000
  C   C13       1.0  0.72712  0.24281  0.98408  1.0000
  C   C14       1.0  0.22712  0.24281  0.51592  1.0000
  C   C15       1.0  0.27288  0.75719  0.01592  1.0000
  C   C16       1.0  0.77288  0.75718  0.48408  1.0000
  C   C17       1.0  0.72622  0.12785  0.04171  1.0000
  C   C18       1.0  0.22622  0.12785  0.45829  1.0000
  C   C19       1.0  0.27378  0.87215  0.95829  1.0000
  C   C20       1.0  0.77378  0.87215  0.54171  1.0000
  C   C21       1.0  0.77284  0.62437  0.10066  1.0000
  C   C22       1.0  0.27284  0.62436  0.39934  1.0000
  C   C23       1.0  0.22716  0.37563  0.89934  1.0000
  C   C24       1.0  0.72716  0.37563  0.60066  1.0000
  N   N1        1.0  0.12990  0.12376  0.20041  1.0000
  N   N2        1.0  0.62990  0.12376  0.29959  1.0000
  N   N3        1.0  0.87010  0.87624  0.79959  1.0000
  N   N4        1.0  0.37010  0.87624  0.70041  1.0000
  N   N5        1.0  0.19543  0.16183  0.13768  1.0000
  N   N6        1.0  0.69543  0.16183  0.36232  1.0000
  N   N7        1.0  0.80457  0.83817  0.86232  1.0000
  N   N8        1.0  0.30457  0.83817  0.63768  1.0000
  N   N9        1.0  0.25378  0.20118  0.07679  1.0000
  N   N10       1.0  0.75378  0.20118  0.42321  1.0000
  N   N11       1.0  0.74622  0.79882  0.92321  1.0000
  N   N12       1.0  0.24622  0.79882  0.57679  1.0000
  N   N13       1.0  0.90791  0.82782  0.29513  1.0000
  N   N14       1.0  0.40791  0.82783  0.20487  1.0000
  N   N15       1.0  0.09209  0.17217  0.70487  1.0000
  N   N16       1.0  0.59209  0.17217  0.79513  1.0000
  N   N17       1.0  0.84024  0.67662  0.30256  1.0000
  N   N18       1.0  0.34023  0.67661  0.19744  1.0000
  N   N19       1.0  0.15977  0.32339  0.69744  1.0000
  N   N20       1.0  0.65977  0.32338  0.80256  1.0000
  N   N21       1.0  0.77365  0.53168  0.31180  1.0000
  N   N22       1.0  0.27365  0.53169  0.18820  1.0000
  N   N23       1.0  0.22635  0.46831  0.68820  1.0000
  N   N24       1.0  0.72635  0.46831  0.81180  1.0000
  N   N25       1.0  0.73296  0.17111  0.11482  1.0000
  N   N26       1.0  0.23295  0.17111  0.38518  1.0000
  N   N27       1.0  0.26705  0.82889  0.88518  1.0000
  N   N28       1.0  0.76704  0.82889  0.61482  1.0000
  N   N29       1.0  0.79841  0.76558  0.11744  1.0000
  N   N30       1.0  0.29841  0.76558  0.38256  1.0000
  N   N31       1.0  0.20159  0.23442  0.88256  1.0000
  N   N32       1.0  0.70159  0.23442  0.61744  1.0000
