data_image0
_chemical_formula_structural       Ag4H32C40N12
_chemical_formula_sum              "Ag4 H32 C40 N12"
_cell_length_a       5.49706
_cell_length_b       11.5614
_cell_length_c       14.9851
_cell_angle_alpha    108.875
_cell_angle_beta     89.9971
_cell_angle_gamma    89.9994

_space_group_name_H-M_alt    "P 1"
_space_group_IT_number       1

loop_
  _space_group_symop_operation_xyz
  'x, y, z'

loop_
  _atom_site_type_symbol
  _atom_site_label
  _atom_site_symmetry_multiplicity
  _atom_site_fract_x
  _atom_site_fract_y
  _atom_site_fract_z
  _atom_site_occupancy
  Ag  Ag1       1.0  0.74853  0.01797  0.99753  1.0000
  Ag  Ag2       1.0  0.75146  0.51799  0.49753  1.0000
  Ag  Ag3       1.0  0.25149  0.98200  0.00247  1.0000
  Ag  Ag4       1.0  0.24850  0.48202  0.50248  1.0000
  H   H1        1.0  0.42104  0.79702  0.81005  1.0000
  H   H2        1.0  0.07896  0.29704  0.31005  1.0000
  H   H3        1.0  0.57895  0.20297  0.18995  1.0000
  H   H4        1.0  0.92102  0.70297  0.68994  1.0000
  H   H5        1.0  0.38560  0.57346  0.72370  1.0000
  H   H6        1.0  0.11440  0.07347  0.22371  1.0000
  H   H7        1.0  0.61439  0.42653  0.27629  1.0000
  H   H8        1.0  0.88558  0.92654  0.77629  1.0000
  H   H9        1.0  0.02126  0.46166  0.75997  1.0000
  H   H10       1.0  0.47873  0.96166  0.25998  1.0000
  H   H11       1.0  0.97874  0.53833  0.24001  1.0000
  H   H12       1.0  0.52121  0.03834  0.74003  1.0000
  H   H13       1.0  0.71977  0.57722  0.87858  1.0000
  H   H14       1.0  0.78024  0.07723  0.37857  1.0000
  H   H15       1.0  0.28026  0.42276  0.12142  1.0000
  H   H16       1.0  0.21971  0.92277  0.62144  1.0000
  H   H17       1.0  0.84767  0.62641  0.03567  1.0000
  H   H18       1.0  0.65230  0.12641  0.53566  1.0000
  H   H19       1.0  0.15233  0.37357  0.96433  1.0000
  H   H20       1.0  0.34768  0.87361  0.46435  1.0000
  H   H21       1.0  0.57887  0.55898  0.14103  1.0000
  H   H22       1.0  0.92110  0.05896  0.64099  1.0000
  H   H23       1.0  0.42112  0.44100  0.85897  1.0000
  H   H24       1.0  0.07893  0.94105  0.35900  1.0000
  H   H25       1.0  0.18532  0.67642  0.19958  1.0000
  H   H26       1.0  0.31463  0.17639  0.69953  1.0000
  H   H27       1.0  0.81467  0.32356  0.80042  1.0000
  H   H28       1.0  0.68541  0.82361  0.30044  1.0000
  H   H29       1.0  0.09632  0.85632  0.14844  1.0000
  H   H30       1.0  0.40363  0.35631  0.64842  1.0000
  H   H31       1.0  0.90368  0.14368  0.85157  1.0000
  H   H32       1.0  0.59638  0.64371  0.35157  1.0000
  C   C1        1.0  0.27008  0.74403  0.82376  1.0000
  C   C2        1.0  0.22993  0.24405  0.32377  1.0000
  C   C3        1.0  0.72992  0.25596  0.17624  1.0000
  C   C4        1.0  0.77005  0.75597  0.67624  1.0000
  C   C5        1.0  0.25067  0.61940  0.77648  1.0000
  C   C6        1.0  0.24934  0.11940  0.27648  1.0000
  C   C7        1.0  0.74933  0.38059  0.22352  1.0000
  C   C8        1.0  0.75065  0.88060  0.72352  1.0000
  C   C9        1.0  0.04847  0.55869  0.79726  1.0000
  C   C10       1.0  0.45158  0.05870  0.29725  1.0000
  C   C11       1.0  0.95156  0.44129  0.20275  1.0000
  C   C12       1.0  0.54841  0.94131  0.70276  1.0000
  C   C13       1.0  0.88029  0.62267  0.86362  1.0000
  C   C14       1.0  0.61971  0.12267  0.36362  1.0000
  C   C15       1.0  0.11972  0.37732  0.13638  1.0000
  C   C16       1.0  0.38026  0.87734  0.63640  1.0000
  C   C17       1.0  0.91418  0.74939  0.91141  1.0000
  C   C18       1.0  0.58580  0.24941  0.41141  1.0000
  C   C19       1.0  0.08582  0.25060  0.08859  1.0000
  C   C20       1.0  0.41417  0.75062  0.58859  1.0000
  C   C21       1.0  0.61346  0.77642  0.03213  1.0000
  C   C22       1.0  0.88653  0.27643  0.53211  1.0000
  C   C23       1.0  0.38658  0.22357  0.96788  1.0000
  C   C24       1.0  0.11346  0.72359  0.46788  1.0000
  C   C25       1.0  0.67677  0.67368  0.05992  1.0000
  C   C26       1.0  0.82320  0.17367  0.55989  1.0000
  C   C27       1.0  0.32323  0.32630  0.94009  1.0000
  C   C28       1.0  0.17681  0.82634  0.44011  1.0000
  C   C29       1.0  0.52616  0.63701  0.11953  1.0000
  C   C30       1.0  0.97380  0.13700  0.61950  1.0000
  C   C31       1.0  0.47384  0.36297  0.88047  1.0000
  C   C32       1.0  0.02619  0.86303  0.38050  1.0000
  C   C33       1.0  0.31001  0.70137  0.15246  1.0000
  C   C34       1.0  0.18994  0.20136  0.65243  1.0000
  C   C35       1.0  0.69000  0.29862  0.84755  1.0000
  C   C36       1.0  0.81008  0.79865  0.34756  1.0000
  C   C37       1.0  0.26097  0.80226  0.12448  1.0000
  C   C38       1.0  0.23900  0.30225  0.62445  1.0000
  C   C39       1.0  0.73905  0.19773  0.87553  1.0000
  C   C40       1.0  0.76102  0.69776  0.37553  1.0000
  N   N1        1.0  0.75614  0.82137  0.97644  1.0000
  N   N2        1.0  0.74386  0.32138  0.47643  1.0000
  N   N3        1.0  0.24389  0.17862  0.02357  1.0000
  N   N4        1.0  0.25614  0.67864  0.52357  1.0000
  N   N5        1.0  0.10885  0.80737  0.88874  1.0000
  N   N6        1.0  0.39119  0.30739  0.38872  1.0000
  N   N7        1.0  0.89120  0.19260  0.11128  1.0000
  N   N8        1.0  0.60881  0.69262  0.61127  1.0000
  N   N9        1.0  0.40651  0.84038  0.06740  1.0000
  N   N10       1.0  0.09345  0.34038  0.56740  1.0000
  N   N11       1.0  0.59350  0.15961  0.93260  1.0000
  N   N12       1.0  0.90654  0.65964  0.43261  1.0000
