data_image0
_chemical_formula_structural       Zn4P4H20C20N4O12
_chemical_formula_sum              "Zn4 P4 H20 C20 N4 O12"
_cell_length_a       7.44077
_cell_length_b       9.69148
_cell_length_c       10.0919
_cell_angle_alpha    99.5906
_cell_angle_beta     90
_cell_angle_gamma    89.9999

_space_group_name_H-M_alt    "P 1"
_space_group_IT_number       1

loop_
  _space_group_symop_operation_xyz
  'x, y, z'

loop_
  _atom_site_type_symbol
  _atom_site_label
  _atom_site_symmetry_multiplicity
  _atom_site_fract_x
  _atom_site_fract_y
  _atom_site_fract_z
  _atom_site_occupancy
  Zn  Zn1       1.0  0.56561  0.62644  0.85928  1.0000
  Zn  Zn2       1.0  0.93439  0.62644  0.35928  1.0000
  Zn  Zn3       1.0  0.43439  0.37356  0.14072  1.0000
  Zn  Zn4       1.0  0.06561  0.37356  0.64072  1.0000
  P   P1        1.0  0.61487  0.66318  0.17663  1.0000
  P   P2        1.0  0.88513  0.66318  0.67663  1.0000
  P   P3        1.0  0.38513  0.33682  0.82337  1.0000
  P   P4        1.0  0.11487  0.33682  0.32337  1.0000
  H   H1        1.0  0.49036  0.77297  0.17318  1.0000
  H   H2        1.0  0.00964  0.77297  0.67318  1.0000
  H   H3        1.0  0.50964  0.22703  0.82682  1.0000
  H   H4        1.0  0.99036  0.22703  0.32682  1.0000
  H   H5        1.0  0.20143  0.61145  0.98180  1.0000
  H   H6        1.0  0.29857  0.61145  0.48180  1.0000
  H   H7        1.0  0.79856  0.38855  0.01820  1.0000
  H   H8        1.0  0.70144  0.38855  0.51820  1.0000
  H   H9        1.0  0.94969  0.77115  0.05303  1.0000
  H   H10       1.0  0.55031  0.77115  0.55303  1.0000
  H   H11       1.0  0.05031  0.22885  0.94697  1.0000
  H   H12       1.0  0.44969  0.22885  0.44697  1.0000
  H   H13       1.0  0.23964  0.09097  0.88534  1.0000
  H   H14       1.0  0.26036  0.09097  0.38534  1.0000
  H   H15       1.0  0.76036  0.90903  0.11466  1.0000
  H   H16       1.0  0.73964  0.90903  0.61466  1.0000
  H   H17       1.0  0.48133  0.91555  0.82217  1.0000
  H   H18       1.0  0.01867  0.91555  0.32217  1.0000
  H   H19       1.0  0.51867  0.08445  0.17783  1.0000
  H   H20       1.0  0.98133  0.08445  0.67783  1.0000
  C   C1        1.0  0.20497  0.71945  0.96420  1.0000
  C   C2        1.0  0.29503  0.71945  0.46420  1.0000
  C   C3        1.0  0.79502  0.28055  0.03580  1.0000
  C   C4        1.0  0.70497  0.28055  0.53580  1.0000
  C   C5        1.0  0.06450  0.81119  0.00446  1.0000
  C   C6        1.0  0.43550  0.81118  0.50446  1.0000
  C   C7        1.0  0.93550  0.18881  0.99554  1.0000
  C   C8        1.0  0.56450  0.18881  0.49554  1.0000
  C   C9        1.0  0.07286  0.94913  0.97914  1.0000
  C   C10       1.0  0.42714  0.94913  0.47914  1.0000
  C   C11       1.0  0.92714  0.05087  0.02086  1.0000
  C   C12       1.0  0.57286  0.05087  0.52086  1.0000
  C   C13       1.0  0.22538  0.98689  0.91102  1.0000
  C   C14       1.0  0.27462  0.98689  0.41102  1.0000
  C   C15       1.0  0.77462  0.01311  0.08899  1.0000
  C   C16       1.0  0.72538  0.01311  0.58899  1.0000
  C   C17       1.0  0.36057  0.88972  0.87425  1.0000
  C   C18       1.0  0.13943  0.88972  0.37425  1.0000
  C   C19       1.0  0.63943  0.11028  0.12575  1.0000
  C   C20       1.0  0.86057  0.11028  0.62575  1.0000
  N   N1        1.0  0.35170  0.75819  0.90118  1.0000
  N   N2        1.0  0.14830  0.75819  0.40118  1.0000
  N   N3        1.0  0.64830  0.24181  0.09882  1.0000
  N   N4        1.0  0.85170  0.24181  0.59882  1.0000
  O   O1        1.0  0.67708  0.61094  0.03165  1.0000
  O   O2        1.0  0.82292  0.61094  0.53165  1.0000
  O   O3        1.0  0.32292  0.38906  0.96835  1.0000
  O   O4        1.0  0.17708  0.38905  0.46835  1.0000
  O   O5        1.0  0.51798  0.55068  0.24054  1.0000
  O   O6        1.0  0.98202  0.55068  0.74054  1.0000
  O   O7        1.0  0.48202  0.44932  0.75946  1.0000
  O   O8        1.0  0.01798  0.44932  0.25946  1.0000
  O   O9        1.0  0.77062  0.73277  0.26357  1.0000
  O   O10       1.0  0.72938  0.73277  0.76357  1.0000
  O   O11       1.0  0.22938  0.26724  0.73643  1.0000
  O   O12       1.0  0.27062  0.26724  0.23643  1.0000
