data_image0
_chemical_formula_structural       Ag4H12C20N20O12
_chemical_formula_sum              "Ag4 H12 C20 N20 O12"
_cell_length_a       7.14876
_cell_length_b       7.14875
_cell_length_c       15.8447
_cell_angle_alpha    79.263
_cell_angle_beta     79.2629
_cell_angle_gamma    78.5194

_space_group_name_H-M_alt    "P 1"
_space_group_IT_number       1

loop_
  _space_group_symop_operation_xyz
  'x, y, z'

loop_
  _atom_site_type_symbol
  _atom_site_label
  _atom_site_symmetry_multiplicity
  _atom_site_fract_x
  _atom_site_fract_y
  _atom_site_fract_z
  _atom_site_occupancy
  Ag  Ag1       1.0  0.92033  0.62787  0.37036  1.0000
  Ag  Ag2       1.0  0.37212  0.07967  0.12964  1.0000
  Ag  Ag3       1.0  0.07968  0.37212  0.62964  1.0000
  Ag  Ag4       1.0  0.62788  0.92033  0.87036  1.0000
  H   H1        1.0  0.52201  0.84527  0.44537  1.0000
  H   H2        1.0  0.15473  0.47799  0.05462  1.0000
  H   H3        1.0  0.47800  0.15473  0.55462  1.0000
  H   H4        1.0  0.84526  0.52201  0.94538  1.0000
  H   H5        1.0  0.66746  0.33109  0.34225  1.0000
  H   H6        1.0  0.66891  0.33255  0.15775  1.0000
  H   H7        1.0  0.33254  0.66891  0.65775  1.0000
  H   H8        1.0  0.33108  0.66746  0.84226  1.0000
  H   H9        1.0  0.31331  0.32547  0.34637  1.0000
  H   H10       1.0  0.67452  0.68669  0.15362  1.0000
  H   H11       1.0  0.68669  0.67453  0.65363  1.0000
  H   H12       1.0  0.32547  0.31331  0.84638  1.0000
  C   C1        1.0  0.27922  0.72466  0.42727  1.0000
  C   C2        1.0  0.27534  0.72078  0.07273  1.0000
  C   C3        1.0  0.72078  0.27534  0.57272  1.0000
  C   C4        1.0  0.72465  0.27922  0.92728  1.0000
  C   C5        1.0  0.47554  0.72868  0.42354  1.0000
  C   C6        1.0  0.27132  0.52447  0.07646  1.0000
  C   C7        1.0  0.52447  0.27132  0.57647  1.0000
  C   C8        1.0  0.72868  0.47553  0.92354  1.0000
  C   C9        1.0  0.55473  0.44521  0.36556  1.0000
  C   C10       1.0  0.55479  0.44527  0.13443  1.0000
  C   C11       1.0  0.44527  0.55480  0.63444  1.0000
  C   C12       1.0  0.44520  0.55473  0.86557  1.0000
  C   C13       1.0  0.35955  0.44310  0.36778  1.0000
  C   C14       1.0  0.55689  0.64046  0.13222  1.0000
  C   C15       1.0  0.64046  0.55690  0.63222  1.0000
  C   C16       1.0  0.44310  0.35955  0.86778  1.0000
  C   C17       1.0  0.13037  0.87320  0.46537  1.0000
  C   C18       1.0  0.12680  0.86963  0.03463  1.0000
  C   C19       1.0  0.86963  0.12680  0.53463  1.0000
  C   C20       1.0  0.87320  0.13037  0.96537  1.0000
  N   N1        1.0  0.22156  0.58193  0.39849  1.0000
  N   N2        1.0  0.41807  0.77844  0.10150  1.0000
  N   N3        1.0  0.77844  0.41808  0.60150  1.0000
  N   N4        1.0  0.58192  0.22157  0.89850  1.0000
  N   N5        1.0  0.61216  0.58872  0.39336  1.0000
  N   N6        1.0  0.41128  0.38784  0.10664  1.0000
  N   N7        1.0  0.38784  0.41128  0.60664  1.0000
  N   N8        1.0  0.58872  0.61217  0.89337  1.0000
  N   N9        1.0  0.94349  0.86735  0.46380  1.0000
  N   N10       1.0  0.13264  0.05651  0.03620  1.0000
  N   N11       1.0  0.05651  0.13265  0.53620  1.0000
  N   N12       1.0  0.86735  0.94349  0.96380  1.0000
  N   N13       1.0  0.19043  0.00344  0.50111  1.0000
  N   N14       1.0  0.99656  0.80957  0.99889  1.0000
  N   N15       1.0  0.80956  0.99657  0.49889  1.0000
  N   N16       1.0  0.00343  0.19044  0.00111  1.0000
  N   N17       1.0  0.78879  0.93455  0.22244  1.0000
  N   N18       1.0  0.06545  0.21121  0.27756  1.0000
  N   N19       1.0  0.21121  0.06544  0.77756  1.0000
  N   N20       1.0  0.93455  0.78879  0.72244  1.0000
  O   O1        1.0  0.91825  0.78066  0.22238  1.0000
  O   O2        1.0  0.21934  0.08175  0.27762  1.0000
  O   O3        1.0  0.08176  0.21934  0.77762  1.0000
  O   O4        1.0  0.78066  0.91825  0.72238  1.0000
  O   O5        1.0  0.71503  0.99835  0.29194  1.0000
  O   O6        1.0  0.00164  0.28498  0.20806  1.0000
  O   O7        1.0  0.28498  0.00164  0.70806  1.0000
  O   O8        1.0  0.99835  0.71502  0.79194  1.0000
  O   O9        1.0  0.73695  0.01639  0.15027  1.0000
  O   O10       1.0  0.98361  0.26306  0.34973  1.0000
  O   O11       1.0  0.26305  0.98360  0.84973  1.0000
  O   O12       1.0  0.01639  0.73694  0.65027  1.0000
