data_image0
_chemical_formula_structural       Ag4H16C24N16O12
_chemical_formula_sum              "Ag4 H16 C24 N16 O12"
_cell_length_a       7.2351
_cell_length_b       7.23508
_cell_length_c       14.7755
_cell_angle_alpha    87.8102
_cell_angle_beta     87.81
_cell_angle_gamma    86.3275

_space_group_name_H-M_alt    "P 1"
_space_group_IT_number       1

loop_
  _space_group_symop_operation_xyz
  'x, y, z'

loop_
  _atom_site_type_symbol
  _atom_site_label
  _atom_site_symmetry_multiplicity
  _atom_site_fract_x
  _atom_site_fract_y
  _atom_site_fract_z
  _atom_site_occupancy
  Ag  Ag1       1.0  0.65757  0.54160  0.61235  1.0000
  Ag  Ag2       1.0  0.45840  0.34243  0.88765  1.0000
  Ag  Ag3       1.0  0.34243  0.45840  0.38765  1.0000
  Ag  Ag4       1.0  0.54160  0.65757  0.11235  1.0000
  H   H1        1.0  0.83353  0.87591  0.48848  1.0000
  H   H2        1.0  0.12410  0.16647  0.01152  1.0000
  H   H3        1.0  0.16647  0.12410  0.51152  1.0000
  H   H4        1.0  0.87590  0.83353  0.98848  1.0000
  H   H5        1.0  0.83617  0.22608  0.49597  1.0000
  H   H6        1.0  0.77393  0.16383  0.00403  1.0000
  H   H7        1.0  0.16383  0.77393  0.50403  1.0000
  H   H8        1.0  0.22607  0.83617  0.99597  1.0000
  H   H9        1.0  0.42243  0.22155  0.69891  1.0000
  H   H10       1.0  0.77845  0.57756  0.80109  1.0000
  H   H11       1.0  0.57757  0.77845  0.30109  1.0000
  H   H12       1.0  0.22155  0.42243  0.19891  1.0000
  H   H13       1.0  0.15250  0.05679  0.70409  1.0000
  H   H14       1.0  0.94321  0.84750  0.79591  1.0000
  H   H15       1.0  0.84750  0.94321  0.29591  1.0000
  H   H16       1.0  0.05679  0.15250  0.20409  1.0000
  C   C1        1.0  0.74408  0.95359  0.53655  1.0000
  C   C2        1.0  0.04642  0.25591  0.96345  1.0000
  C   C3        1.0  0.25591  0.04642  0.46345  1.0000
  C   C4        1.0  0.95358  0.74409  0.03655  1.0000
  C   C5        1.0  0.74659  0.14534  0.54117  1.0000
  C   C6        1.0  0.85466  0.25340  0.95883  1.0000
  C   C7        1.0  0.25341  0.85466  0.45883  1.0000
  C   C8        1.0  0.14534  0.74659  0.04117  1.0000
  C   C9        1.0  0.51460  0.14379  0.65209  1.0000
  C   C10       1.0  0.85621  0.48540  0.84791  1.0000
  C   C11       1.0  0.48540  0.85621  0.34791  1.0000
  C   C12       1.0  0.14379  0.51460  0.15209  1.0000
  C   C13       1.0  0.50996  0.95115  0.64642  1.0000
  C   C14       1.0  0.04885  0.49004  0.85358  1.0000
  C   C15       1.0  0.49004  0.04885  0.35359  1.0000
  C   C16       1.0  0.95115  0.50996  0.14641  1.0000
  C   C17       1.0  0.37804  0.84385  0.70151  1.0000
  C   C18       1.0  0.15615  0.62197  0.79849  1.0000
  C   C19       1.0  0.62197  0.15615  0.29849  1.0000
  C   C20       1.0  0.84385  0.37803  0.20151  1.0000
  C   C21       1.0  0.19924  0.91598  0.72547  1.0000
  C   C22       1.0  0.08403  0.80076  0.77453  1.0000
  C   C23       1.0  0.80076  0.08402  0.27453  1.0000
  C   C24       1.0  0.91597  0.19924  0.22547  1.0000
  N   N1        1.0  0.62598  0.85630  0.58850  1.0000
  N   N2        1.0  0.14370  0.37402  0.91150  1.0000
  N   N3        1.0  0.37402  0.14370  0.41150  1.0000
  N   N4        1.0  0.85630  0.62598  0.08850  1.0000
  N   N5        1.0  0.63214  0.23984  0.59951  1.0000
  N   N6        1.0  0.76016  0.36785  0.90049  1.0000
  N   N7        1.0  0.36785  0.76016  0.40049  1.0000
  N   N8        1.0  0.23984  0.63215  0.09951  1.0000
  N   N9        1.0  0.43995  0.66947  0.72579  1.0000
  N   N10       1.0  0.33053  0.56005  0.77421  1.0000
  N   N11       1.0  0.56005  0.33053  0.27421  1.0000
  N   N12       1.0  0.66947  0.43996  0.22579  1.0000
  N   N13       1.0  0.09873  0.45489  0.60552  1.0000
  N   N14       1.0  0.54511  0.90127  0.89448  1.0000
  N   N15       1.0  0.90127  0.54511  0.39448  1.0000
  N   N16       1.0  0.45489  0.09873  0.10552  1.0000
  O   O1        1.0  0.26052  0.45114  0.57016  1.0000
  O   O2        1.0  0.54885  0.73947  0.92984  1.0000
  O   O3        1.0  0.73948  0.54886  0.42984  1.0000
  O   O4        1.0  0.45115  0.26053  0.07016  1.0000
  O   O5        1.0  0.04044  0.31542  0.64960  1.0000
  O   O6        1.0  0.68458  0.95956  0.85040  1.0000
  O   O7        1.0  0.95956  0.68458  0.35040  1.0000
  O   O8        1.0  0.31542  0.04045  0.14960  1.0000
  O   O9        1.0  0.99230  0.60258  0.59696  1.0000
  O   O10       1.0  0.39742  0.00770  0.90304  1.0000
  O   O11       1.0  0.00770  0.39742  0.40304  1.0000
  O   O12       1.0  0.60258  0.99230  0.09696  1.0000
