data_image0
_chemical_formula_structural       Ag4H20C16O8
_chemical_formula_sum              "Ag4 H20 C16 O8"
_cell_length_a       6.6019
_cell_length_b       7.70363
_cell_length_c       8.81646
_cell_angle_alpha    90.0013
_cell_angle_beta     90.001
_cell_angle_gamma    103.567

_space_group_name_H-M_alt    "P 1"
_space_group_IT_number       1

loop_
  _space_group_symop_operation_xyz
  'x, y, z'

loop_
  _atom_site_type_symbol
  _atom_site_label
  _atom_site_symmetry_multiplicity
  _atom_site_fract_x
  _atom_site_fract_y
  _atom_site_fract_z
  _atom_site_occupancy
  Ag  Ag1       1.0  0.04170  0.51342  0.15411  1.0000
  Ag  Ag2       1.0  0.54168  0.51340  0.34590  1.0000
  Ag  Ag3       1.0  0.95832  0.48659  0.84589  1.0000
  Ag  Ag4       1.0  0.45832  0.48659  0.65411  1.0000
  H   H1        1.0  0.46904  0.83835  0.81778  1.0000
  H   H2        1.0  0.96905  0.83835  0.68221  1.0000
  H   H3        1.0  0.53095  0.16164  0.18222  1.0000
  H   H4        1.0  0.03093  0.16164  0.31778  1.0000
  H   H5        1.0  0.30244  0.69048  0.94075  1.0000
  H   H6        1.0  0.80245  0.69047  0.55924  1.0000
  H   H7        1.0  0.69756  0.30952  0.05926  1.0000
  H   H8        1.0  0.19754  0.30952  0.44076  1.0000
  H   H9        1.0  0.51501  0.82574  0.16328  1.0000
  H   H10       1.0  0.01500  0.82572  0.33671  1.0000
  H   H11       1.0  0.48501  0.17427  0.83671  1.0000
  H   H12       1.0  0.98500  0.17427  0.66329  1.0000
  H   H13       1.0  0.84725  0.05149  0.12626  1.0000
  H   H14       1.0  0.34723  0.05148  0.37374  1.0000
  H   H15       1.0  0.15276  0.94852  0.87374  1.0000
  H   H16       1.0  0.65276  0.94851  0.62625  1.0000
  H   H17       1.0  0.79912  0.05633  0.92884  1.0000
  H   H18       1.0  0.29911  0.05634  0.57117  1.0000
  H   H19       1.0  0.20090  0.94368  0.07117  1.0000
  H   H20       1.0  0.70088  0.94366  0.42883  1.0000
  C   C1        1.0  0.40499  0.82575  0.93339  1.0000
  C   C2        1.0  0.90500  0.82574  0.56661  1.0000
  C   C3        1.0  0.59502  0.17426  0.06661  1.0000
  C   C4        1.0  0.09499  0.17425  0.43340  1.0000
  C   C5        1.0  0.71384  0.71025  0.02693  1.0000
  C   C6        1.0  0.21387  0.71025  0.47305  1.0000
  C   C7        1.0  0.28616  0.28976  0.97306  1.0000
  C   C8        1.0  0.78614  0.28975  0.52697  1.0000
  C   C9        1.0  0.58172  0.84544  0.04837  1.0000
  C   C10       1.0  0.08170  0.84545  0.45162  1.0000
  C   C11       1.0  0.41829  0.15455  0.95162  1.0000
  C   C12       1.0  0.91829  0.15454  0.54839  1.0000
  C   C13       1.0  0.72296  0.03557  0.04086  1.0000
  C   C14       1.0  0.22295  0.03556  0.45914  1.0000
  C   C15       1.0  0.27704  0.96445  0.95914  1.0000
  C   C16       1.0  0.77704  0.96445  0.54085  1.0000
  O   O1        1.0  0.79622  0.66322  0.14789  1.0000
  O   O2        1.0  0.29622  0.66324  0.35212  1.0000
  O   O3        1.0  0.20379  0.33678  0.85211  1.0000
  O   O4        1.0  0.70377  0.33677  0.64790  1.0000
  O   O5        1.0  0.74073  0.65739  0.89355  1.0000
  O   O6        1.0  0.24073  0.65739  0.60646  1.0000
  O   O7        1.0  0.25930  0.34263  0.10644  1.0000
  O   O8        1.0  0.75926  0.34260  0.39355  1.0000
