data_image0
_chemical_formula_structural       Ag4H32C44S12N12
_chemical_formula_sum              "Ag4 H32 C44 S12 N12"
_cell_length_a       8.49215
_cell_length_b       11.2163
_cell_length_c       14.2188
_cell_angle_alpha    90
_cell_angle_beta     90
_cell_angle_gamma    107.675

_space_group_name_H-M_alt    "P 1"
_space_group_IT_number       1

loop_
  _space_group_symop_operation_xyz
  'x, y, z'

loop_
  _atom_site_type_symbol
  _atom_site_label
  _atom_site_symmetry_multiplicity
  _atom_site_fract_x
  _atom_site_fract_y
  _atom_site_fract_z
  _atom_site_occupancy
  Ag  Ag1       1.0  0.88654  0.61302  0.79999  1.0000
  Ag  Ag2       1.0  0.11346  0.88698  0.29999  1.0000
  Ag  Ag3       1.0  0.11347  0.38698  0.20002  1.0000
  Ag  Ag4       1.0  0.88654  0.11301  0.70001  1.0000
  H   H1        1.0  0.91869  0.89533  0.87477  1.0000
  H   H2        1.0  0.08131  0.60467  0.37476  1.0000
  H   H3        1.0  0.08132  0.10468  0.12524  1.0000
  H   H4        1.0  0.91869  0.39533  0.62523  1.0000
  H   H5        1.0  0.13268  0.09740  0.91515  1.0000
  H   H6        1.0  0.86732  0.40260  0.41515  1.0000
  H   H7        1.0  0.86733  0.90261  0.08485  1.0000
  H   H8        1.0  0.13268  0.59740  0.58485  1.0000
  H   H9        1.0  0.43282  0.10255  0.91810  1.0000
  H   H10       1.0  0.56717  0.39745  0.41810  1.0000
  H   H11       1.0  0.56718  0.89746  0.08190  1.0000
  H   H12       1.0  0.43283  0.60255  0.58190  1.0000
  H   H13       1.0  0.50360  0.90775  0.88100  1.0000
  H   H14       1.0  0.49640  0.59225  0.38100  1.0000
  H   H15       1.0  0.49641  0.09225  0.11900  1.0000
  H   H16       1.0  0.50360  0.40775  0.61900  1.0000
  H   H17       1.0  0.35811  0.65934  0.01566  1.0000
  H   H18       1.0  0.64189  0.84067  0.51567  1.0000
  H   H19       1.0  0.64189  0.34066  0.98433  1.0000
  H   H20       1.0  0.35811  0.15933  0.48433  1.0000
  H   H21       1.0  0.48718  0.63913  0.16999  1.0000
  H   H22       1.0  0.51281  0.86086  0.66999  1.0000
  H   H23       1.0  0.51281  0.36085  0.83001  1.0000
  H   H24       1.0  0.48719  0.13914  0.33001  1.0000
  H   H25       1.0  0.78247  0.63215  0.17278  1.0000
  H   H26       1.0  0.21752  0.86785  0.67278  1.0000
  H   H27       1.0  0.21753  0.36784  0.82722  1.0000
  H   H28       1.0  0.78248  0.13216  0.32722  1.0000
  H   H29       1.0  0.92921  0.63906  0.01975  1.0000
  H   H30       1.0  0.07079  0.86094  0.51974  1.0000
  H   H31       1.0  0.07080  0.36094  0.98026  1.0000
  H   H32       1.0  0.92920  0.13905  0.48026  1.0000
  C   C1        1.0  0.04957  0.90258  0.87749  1.0000
  C   C2        1.0  0.95043  0.59742  0.37749  1.0000
  C   C3        1.0  0.95044  0.09742  0.12251  1.0000
  C   C4        1.0  0.04957  0.40258  0.62251  1.0000
  C   C5        1.0  0.16926  0.01427  0.90051  1.0000
  C   C6        1.0  0.83073  0.48573  0.40051  1.0000
  C   C7        1.0  0.83074  0.98574  0.09949  1.0000
  C   C8        1.0  0.16927  0.51427  0.59949  1.0000
  C   C9        1.0  0.33472  0.01680  0.90170  1.0000
  C   C10       1.0  0.66528  0.48320  0.40170  1.0000
  C   C11       1.0  0.66529  0.98320  0.09830  1.0000
  C   C12       1.0  0.33472  0.51680  0.59830  1.0000
  C   C13       1.0  0.37565  0.90850  0.88093  1.0000
  C   C14       1.0  0.62435  0.59149  0.38093  1.0000
  C   C15       1.0  0.62435  0.09150  0.11907  1.0000
  C   C16       1.0  0.37565  0.40850  0.61907  1.0000
  C   C17       1.0  0.24693  0.80123  0.85856  1.0000
  C   C18       1.0  0.75307  0.69877  0.35856  1.0000
  C   C19       1.0  0.75308  0.19878  0.14144  1.0000
  C   C20       1.0  0.24693  0.30122  0.64144  1.0000
  C   C21       1.0  0.57877  0.66104  0.93803  1.0000
  C   C22       1.0  0.42123  0.83897  0.43803  1.0000
  C   C23       1.0  0.42124  0.33896  0.06197  1.0000
  C   C24       1.0  0.57877  0.16103  0.56197  1.0000
  C   C25       1.0  0.48473  0.65606  0.01932  1.0000
  C   C26       1.0  0.51527  0.84395  0.51932  1.0000
  C   C27       1.0  0.51527  0.34394  0.98068  1.0000
  C   C28       1.0  0.48473  0.15605  0.48068  1.0000
  C   C29       1.0  0.55805  0.64481  0.10528  1.0000
  C   C30       1.0  0.44195  0.85520  0.60528  1.0000
  C   C31       1.0  0.44195  0.35519  0.89472  1.0000
  C   C32       1.0  0.55805  0.14480  0.39472  1.0000
  C   C33       1.0  0.72041  0.63995  0.10720  1.0000
  C   C34       1.0  0.27959  0.86005  0.60720  1.0000
  C   C35       1.0  0.27959  0.36004  0.89280  1.0000
  C   C36       1.0  0.72041  0.13996  0.39280  1.0000
  C   C37       1.0  0.80324  0.64439  0.02218  1.0000
  C   C38       1.0  0.19676  0.85562  0.52218  1.0000
  C   C39       1.0  0.19676  0.35561  0.97782  1.0000
  C   C40       1.0  0.80324  0.14438  0.47782  1.0000
  C   C41       1.0  0.84593  0.81205  0.65460  1.0000
  C   C42       1.0  0.15407  0.68794  0.15461  1.0000
  C   C43       1.0  0.15406  0.18793  0.34540  1.0000
  C   C44       1.0  0.84593  0.31205  0.84540  1.0000
  S   S1        1.0  0.26638  0.65198  0.83076  1.0000
  S   S2        1.0  0.73362  0.84802  0.33076  1.0000
  S   S3        1.0  0.73362  0.34802  0.16924  1.0000
  S   S4        1.0  0.26638  0.15198  0.66924  1.0000
  S   S5        1.0  0.51302  0.67706  0.82095  1.0000
  S   S6        1.0  0.48697  0.82294  0.32096  1.0000
  S   S7        1.0  0.48698  0.32294  0.17904  1.0000
  S   S8        1.0  0.51302  0.17706  0.67904  1.0000
  S   S9        1.0  0.81604  0.66261  0.63653  1.0000
  S   S10       1.0  0.18396  0.83739  0.13653  1.0000
  S   S11       1.0  0.18395  0.33737  0.36347  1.0000
  S   S12       1.0  0.81604  0.16262  0.86346  1.0000
  N   N1        1.0  0.08753  0.79780  0.85620  1.0000
  N   N2        1.0  0.91246  0.70220  0.35620  1.0000
  N   N3        1.0  0.91247  0.20221  0.14380  1.0000
  N   N4        1.0  0.08754  0.29780  0.64380  1.0000
  N   N5        1.0  0.73386  0.65473  0.93887  1.0000
  N   N6        1.0  0.26614  0.84528  0.43887  1.0000
  N   N7        1.0  0.26614  0.34528  0.06113  1.0000
  N   N8        1.0  0.73386  0.15472  0.56113  1.0000
  N   N9        1.0  0.86798  0.92065  0.66458  1.0000
  N   N10       1.0  0.13202  0.57936  0.16459  1.0000
  N   N11       1.0  0.13201  0.07935  0.33542  1.0000
  N   N12       1.0  0.86798  0.42065  0.83542  1.0000
