data_image0
_chemical_formula_structural       Dy2H32C36N6O16
_chemical_formula_sum              "Dy2 H32 C36 N6 O16"
_cell_length_a       9.45277
_cell_length_b       10.4445
_cell_length_c       10.4445
_cell_angle_alpha    83.2654
_cell_angle_beta     84.5779
_cell_angle_gamma    84.5778

_space_group_name_H-M_alt    "P 1"
_space_group_IT_number       1

loop_
  _space_group_symop_operation_xyz
  'x, y, z'

loop_
  _atom_site_type_symbol
  _atom_site_label
  _atom_site_symmetry_multiplicity
  _atom_site_fract_x
  _atom_site_fract_y
  _atom_site_fract_z
  _atom_site_occupancy
  Dy  Dy1       1.0  0.25000  0.97431  0.02569  1.0000
  Dy  Dy2       1.0  0.75000  0.02569  0.97431  1.0000
  H   H1        1.0  0.02607  0.79559  0.11041  1.0000
  H   H2        1.0  0.47394  0.88959  0.20440  1.0000
  H   H3        1.0  0.97393  0.20441  0.88959  1.0000
  H   H4        1.0  0.52606  0.11041  0.79559  1.0000
  H   H5        1.0  0.17689  0.71641  0.15203  1.0000
  H   H6        1.0  0.32312  0.84796  0.28359  1.0000
  H   H7        1.0  0.82311  0.28359  0.84796  1.0000
  H   H8        1.0  0.67688  0.15203  0.71640  1.0000
  H   H9        1.0  0.92107  0.50437  0.86394  1.0000
  H   H10       1.0  0.57891  0.13607  0.49562  1.0000
  H   H11       1.0  0.07893  0.49563  0.13607  1.0000
  H   H12       1.0  0.42108  0.86394  0.50438  1.0000
  H   H13       1.0  0.80343  0.72381  0.90138  1.0000
  H   H14       1.0  0.69655  0.09863  0.27617  1.0000
  H   H15       1.0  0.19657  0.27618  0.09863  1.0000
  H   H16       1.0  0.30343  0.90138  0.72382  1.0000
  H   H17       1.0  0.40330  0.58318  0.84274  1.0000
  H   H18       1.0  0.09668  0.15726  0.41681  1.0000
  H   H19       1.0  0.59670  0.41682  0.15726  1.0000
  H   H20       1.0  0.90331  0.84274  0.58317  1.0000
  H   H21       1.0  0.53958  0.36904  0.80249  1.0000
  H   H22       1.0  0.96040  0.19750  0.63095  1.0000
  H   H23       1.0  0.46042  0.63095  0.19750  1.0000
  H   H24       1.0  0.03959  0.80250  0.36904  1.0000
  H   H25       1.0  0.14218  0.60705  0.64041  1.0000
  H   H26       1.0  0.35782  0.35961  0.39297  1.0000
  H   H27       1.0  0.85783  0.39295  0.35960  1.0000
  H   H28       1.0  0.64219  0.64040  0.60704  1.0000
  H   H29       1.0  0.13935  0.43098  0.82711  1.0000
  H   H30       1.0  0.36066  0.17291  0.56903  1.0000
  H   H31       1.0  0.86067  0.56902  0.17290  1.0000
  H   H32       1.0  0.63935  0.82710  0.43097  1.0000
  C   C1        1.0  0.80637  0.52604  0.85859  1.0000
  C   C2        1.0  0.69362  0.14141  0.47395  1.0000
  C   C3        1.0  0.19363  0.47395  0.14141  1.0000
  C   C4        1.0  0.30637  0.85860  0.52605  1.0000
  C   C5        1.0  0.74152  0.64771  0.87977  1.0000
  C   C6        1.0  0.75846  0.12022  0.35229  1.0000
  C   C7        1.0  0.25848  0.35229  0.12023  1.0000
  C   C8        1.0  0.24152  0.87978  0.64771  1.0000
  C   C9        1.0  0.59353  0.66932  0.87672  1.0000
  C   C10       1.0  0.90645  0.12328  0.33068  1.0000
  C   C11       1.0  0.40647  0.33068  0.12329  1.0000
  C   C12       1.0  0.09353  0.87672  0.66933  1.0000
  C   C13       1.0  0.51759  0.79517  0.91314  1.0000
  C   C14       1.0  0.98240  0.08686  0.20483  1.0000
  C   C15       1.0  0.48241  0.20482  0.08686  1.0000
  C   C16       1.0  0.01759  0.91315  0.79517  1.0000
  C   C17       1.0  0.51861  0.56913  0.84618  1.0000
  C   C18       1.0  0.98138  0.15381  0.43087  1.0000
  C   C19       1.0  0.48139  0.43087  0.15382  1.0000
  C   C20       1.0  0.01861  0.84619  0.56913  1.0000
  C   C21       1.0  0.59327  0.45081  0.82449  1.0000
  C   C22       1.0  0.90671  0.17551  0.54918  1.0000
  C   C23       1.0  0.40673  0.54918  0.17551  1.0000
  C   C24       1.0  0.09328  0.82449  0.45082  1.0000
  C   C25       1.0  0.19045  0.50966  0.62768  1.0000
  C   C26       1.0  0.30956  0.37234  0.49036  1.0000
  C   C27       1.0  0.80957  0.49035  0.37233  1.0000
  C   C28       1.0  0.69045  0.62767  0.50965  1.0000
  C   C29       1.0  0.18749  0.41242  0.73133  1.0000
  C   C30       1.0  0.31252  0.26869  0.58760  1.0000
  C   C31       1.0  0.81252  0.58759  0.26869  1.0000
  C   C32       1.0  0.68749  0.73131  0.41241  1.0000
  C   C33       1.0  0.25000  0.28895  0.71106  1.0000
  C   C34       1.0  0.75000  0.71105  0.28895  1.0000
  C   C35       1.0  0.25000  0.18132  0.81869  1.0000
  C   C36       1.0  0.75001  0.81868  0.18131  1.0000
  N   N1        1.0  0.73450  0.42850  0.83309  1.0000
  N   N2        1.0  0.76548  0.16690  0.57149  1.0000
  N   N3        1.0  0.26550  0.57149  0.16691  1.0000
  N   N4        1.0  0.23451  0.83310  0.42850  1.0000
  N   N5        1.0  0.25000  0.49133  0.50869  1.0000
  N   N6        1.0  0.75001  0.50868  0.49132  1.0000
  O   O1        1.0  0.38217  0.80398  0.92466  1.0000
  O   O2        1.0  0.11782  0.07533  0.19602  1.0000
  O   O3        1.0  0.61783  0.19602  0.07533  1.0000
  O   O4        1.0  0.88217  0.92466  0.80398  1.0000
  O   O5        1.0  0.59241  0.88396  0.93379  1.0000
  O   O6        1.0  0.90758  0.06621  0.11603  1.0000
  O   O7        1.0  0.40758  0.11603  0.06622  1.0000
  O   O8        1.0  0.09242  0.93380  0.88396  1.0000
  O   O9        1.0  0.15642  0.18708  0.91471  1.0000
  O   O10       1.0  0.34358  0.08529  0.81292  1.0000
  O   O11       1.0  0.84358  0.81292  0.08529  1.0000
  O   O12       1.0  0.65643  0.91470  0.18707  1.0000
  O   O13       1.0  0.12276  0.80533  0.13478  1.0000
  O   O14       1.0  0.37724  0.86521  0.19467  1.0000
  O   O15       1.0  0.87724  0.19467  0.86521  1.0000
  O   O16       1.0  0.62275  0.13478  0.80533  1.0000
