data_image0
_chemical_formula_structural       Dy2H32C36N6O16
_chemical_formula_sum              "Dy2 H32 C36 N6 O16"
_cell_length_a       10.0794
_cell_length_b       11.5092
_cell_length_c       11.189
_cell_angle_alpha    120.926
_cell_angle_beta     110.599
_cell_angle_gamma    90.0147

_space_group_name_H-M_alt    "P 1"
_space_group_IT_number       1

loop_
  _space_group_symop_operation_xyz
  'x, y, z'

loop_
  _atom_site_type_symbol
  _atom_site_label
  _atom_site_symmetry_multiplicity
  _atom_site_fract_x
  _atom_site_fract_y
  _atom_site_fract_z
  _atom_site_occupancy
  Dy  Dy1       1.0  0.24993  0.98475  0.99997  1.0000
  Dy  Dy2       1.0  0.75007  0.01525  0.00003  1.0000
  H   H1        1.0  0.38563  0.23205  0.39827  1.0000
  H   H2        1.0  0.11433  0.83375  0.60181  1.0000
  H   H3        1.0  0.61436  0.76793  0.60170  1.0000
  H   H4        1.0  0.88568  0.16624  0.39818  1.0000
  H   H5        1.0  0.55399  0.45566  0.63200  1.0000
  H   H6        1.0  0.94592  0.82392  0.36816  1.0000
  H   H7        1.0  0.44599  0.54432  0.36797  1.0000
  H   H8        1.0  0.05409  0.17607  0.63183  1.0000
  H   H9        1.0  0.22008  0.66430  0.64307  1.0000
  H   H10       1.0  0.27991  0.02117  0.35672  1.0000
  H   H11       1.0  0.77992  0.33569  0.35691  1.0000
  H   H12       1.0  0.72009  0.97885  0.64330  1.0000
  H   H13       1.0  0.03663  0.44733  0.40604  1.0000
  H   H14       1.0  0.46339  0.04118  0.59386  1.0000
  H   H15       1.0  0.96336  0.55266  0.59396  1.0000
  H   H16       1.0  0.53661  0.95883  0.40615  1.0000
  H   H17       1.0  0.15057  0.67601  0.15988  1.0000
  H   H18       1.0  0.34913  0.51646  0.84004  1.0000
  H   H19       1.0  0.84947  0.32404  0.84017  1.0000
  H   H20       1.0  0.65085  0.48354  0.15995  1.0000
  H   H21       1.0  0.15445  0.45294  0.15409  1.0000
  H   H22       1.0  0.34546  0.29909  0.84573  1.0000
  H   H23       1.0  0.84557  0.54710  0.84595  1.0000
  H   H24       1.0  0.65453  0.70092  0.15427  1.0000
  H   H25       1.0  0.47672  0.27920  0.20549  1.0000
  H   H26       1.0  0.02333  0.07358  0.79428  1.0000
  H   H27       1.0  0.52329  0.72078  0.79449  1.0000
  H   H28       1.0  0.97668  0.92642  0.20571  1.0000
  H   H29       1.0  0.33886  0.26770  0.07517  1.0000
  H   H30       1.0  0.16118  0.19234  0.92453  1.0000
  H   H31       1.0  0.66114  0.73230  0.92484  1.0000
  H   H32       1.0  0.83882  0.80767  0.07547  1.0000
  C   C1        1.0  0.09041  0.19308  0.24470  1.0000
  C   C2        1.0  0.40964  0.94842  0.75539  1.0000
  C   C3        1.0  0.90957  0.80692  0.75530  1.0000
  C   C4        1.0  0.59036  0.05158  0.24461  1.0000
  C   C5        1.0  0.19725  0.32346  0.38647  1.0000
  C   C6        1.0  0.30276  0.93694  0.61353  1.0000
  C   C7        1.0  0.80275  0.67653  0.61352  1.0000
  C   C8        1.0  0.69725  0.06306  0.38647  1.0000
  C   C9        1.0  0.34461  0.32516  0.45042  1.0000
  C   C10       1.0  0.15533  0.87474  0.54962  1.0000
  C   C11       1.0  0.65537  0.67482  0.54956  1.0000
  C   C12       1.0  0.84467  0.12525  0.45038  1.0000
  C   C13       1.0  0.43790  0.44976  0.57935  1.0000
  C   C14       1.0  0.06205  0.87055  0.42075  1.0000
  C   C15       1.0  0.56209  0.55022  0.42063  1.0000
  C   C16       1.0  0.93796  0.12944  0.57925  1.0000
  C   C17       1.0  0.25199  0.56671  0.58384  1.0000
  C   C18       1.0  0.24807  0.98284  0.41608  1.0000
  C   C19       1.0  0.74801  0.43328  0.41615  1.0000
  C   C20       1.0  0.75193  0.01717  0.58394  1.0000
  C   C21       1.0  0.15085  0.44679  0.45503  1.0000
  C   C22       1.0  0.34917  0.99174  0.54494  1.0000
  C   C23       1.0  0.84914  0.55319  0.54496  1.0000
  C   C24       1.0  0.65084  0.00827  0.45507  1.0000
  C   C25       1.0  0.24976  0.74172  0.99991  1.0000
  C   C26       1.0  0.75024  0.25828  0.00010  1.0000
  C   C27       1.0  0.24983  0.61082  0.99993  1.0000
  C   C28       1.0  0.75019  0.38918  0.00008  1.0000
  C   C29       1.0  0.19475  0.59398  0.09004  1.0000
  C   C30       1.0  0.30499  0.50407  0.90982  1.0000
  C   C31       1.0  0.80528  0.40606  0.90999  1.0000
  C   C32       1.0  0.69500  0.49594  0.09017  1.0000
  C   C33       1.0  0.19715  0.47156  0.08674  1.0000
  C   C34       1.0  0.30274  0.38495  0.91314  1.0000
  C   C35       1.0  0.80288  0.52847  0.91330  1.0000
  C   C36       1.0  0.69725  0.61506  0.08687  1.0000
  N   N1        1.0  0.39370  0.56863  0.64480  1.0000
  N   N2        1.0  0.10630  0.92394  0.35525  1.0000
  N   N3        1.0  0.60629  0.43136  0.35518  1.0000
  N   N4        1.0  0.89370  0.07605  0.64475  1.0000
  N   N5        1.0  0.24993  0.36862  0.99989  1.0000
  N   N6        1.0  0.75007  0.63140  0.00013  1.0000
  O   O1        1.0  0.14161  0.09922  0.16231  1.0000
  O   O2        1.0  0.35844  0.93680  0.83774  1.0000
  O   O3        1.0  0.85836  0.90077  0.83766  1.0000
  O   O4        1.0  0.64156  0.06318  0.16226  1.0000
  O   O5        1.0  0.95655  0.18701  0.21889  1.0000
  O   O6        1.0  0.54349  0.96835  0.78125  1.0000
  O   O7        1.0  0.04344  0.81298  0.78111  1.0000
  O   O8        1.0  0.45651  0.03165  0.21876  1.0000
  O   O9        1.0  0.18102  0.82745  0.06632  1.0000
  O   O10       1.0  0.31844  0.76117  0.93346  1.0000
  O   O11       1.0  0.81899  0.17256  0.93369  1.0000
  O   O12       1.0  0.68156  0.23883  0.06654  1.0000
  O   O13       1.0  0.38110  0.21450  0.12019  1.0000
  O   O14       1.0  0.11904  0.09409  0.87946  1.0000
  O   O15       1.0  0.61890  0.78549  0.87980  1.0000
  O   O16       1.0  0.88097  0.90590  0.12053  1.0000
