data_image0
_chemical_formula_structural       Co3PH12C18N3O10
_chemical_formula_sum              "Co3 P1 H12 C18 N3 O10"
_cell_length_a       4.38488
_cell_length_b       11.5498
_cell_length_c       11.5566
_cell_angle_alpha    118.396
_cell_angle_beta     97.1606
_cell_angle_gamma    97.3301

_space_group_name_H-M_alt    "P 1"
_space_group_IT_number       1

loop_
  _space_group_symop_operation_xyz
  'x, y, z'

loop_
  _atom_site_type_symbol
  _atom_site_label
  _atom_site_symmetry_multiplicity
  _atom_site_fract_x
  _atom_site_fract_y
  _atom_site_fract_z
  _atom_site_occupancy
  Co  Co1       1.0  0.87943  0.18222  0.00011  1.0000
  Co  Co2       1.0  0.69967  0.81772  0.81770  1.0000
  Co  Co3       1.0  0.88234  0.99943  0.18280  1.0000
  P   P1        1.0  0.33840  0.00012  0.99978  1.0000
  H   H1        1.0  0.05990  0.56327  0.37636  1.0000
  H   H2        1.0  0.49661  0.81350  0.43716  1.0000
  H   H3        1.0  0.68152  0.62339  0.18660  1.0000
  H   H4        1.0  0.98881  0.75894  0.58808  1.0000
  H   H5        1.0  0.23115  0.82946  0.24146  1.0000
  H   H6        1.0  0.39970  0.41114  0.17015  1.0000
  H   H7        1.0  0.46471  0.50726  0.68590  1.0000
  H   H8        1.0  0.95760  0.17841  0.49249  1.0000
  H   H9        1.0  0.77910  0.31375  0.82158  1.0000
  H   H10       1.0  0.53069  0.29991  0.48195  1.0000
  H   H11       1.0  0.23036  0.18198  0.69982  1.0000
  H   H12       1.0  0.04826  0.51823  0.81851  1.0000
  C   C1        1.0  0.85440  0.29649  0.29247  1.0000
  C   C2        1.0  0.55899  0.99644  0.70344  1.0000
  C   C3        1.0  0.56248  0.70753  0.00429  1.0000
  C   C4        1.0  0.80268  0.41616  0.41375  1.0000
  C   C5        1.0  0.38680  0.99787  0.58393  1.0000
  C   C6        1.0  0.38793  0.58631  0.00251  1.0000
  C   C7        1.0  0.92673  0.54712  0.44287  1.0000
  C   C8        1.0  0.37972  0.89605  0.45313  1.0000
  C   C9        1.0  0.48226  0.55692  0.10408  1.0000
  C   C10       1.0  0.88606  0.65577  0.55939  1.0000
  C   C11       1.0  0.23098  0.90384  0.34447  1.0000
  C   C12       1.0  0.32556  0.44007  0.09597  1.0000
  C   C13       1.0  0.59683  0.51434  0.61484  1.0000
  C   C14       1.0  0.08269  0.10043  0.48557  1.0000
  C   C15       1.0  0.98182  0.38487  0.89958  1.0000
  C   C16       1.0  0.63453  0.40035  0.50237  1.0000
  C   C17       1.0  0.23413  0.10208  0.59954  1.0000
  C   C18       1.0  0.13163  0.49764  0.89827  1.0000
  N   N1        1.0  0.72227  0.64065  0.64453  1.0000
  N   N2        1.0  0.08241  0.00397  0.35937  1.0000
  N   N3        1.0  0.07733  0.35486  0.99585  1.0000
  O   O1        1.0  0.90602  0.31491  0.19609  1.0000
  O   O2        1.0  0.59490  0.88191  0.68509  1.0000
  O   O3        1.0  0.71218  0.80349  0.11891  1.0000
  O   O4        1.0  0.84818  0.18969  0.29937  1.0000
  O   O5        1.0  0.65754  0.11011  0.81017  1.0000
  O   O6        1.0  0.55032  0.70104  0.89086  1.0000
  O   O7        1.0  0.69970  0.00029  0.99946  1.0000
  O   O8        1.0  0.29722  0.13767  0.01565  1.0000
  O   O9        1.0  0.15988  0.87836  0.86233  1.0000
  O   O10       1.0  0.28117  0.98404  0.12139  1.0000
