data_image0
_chemical_formula_structural       Cu2Si2H48C56N8F12
_chemical_formula_sum              "Cu2 Si2 H48 C56 N8 F12"
_cell_length_a       11.0777
_cell_length_b       11.0777
_cell_length_c       15.9395
_cell_angle_alpha    90
_cell_angle_beta     90
_cell_angle_gamma    90

_space_group_name_H-M_alt    "P 1"
_space_group_IT_number       1

loop_
  _space_group_symop_operation_xyz
  'x, y, z'

loop_
  _atom_site_type_symbol
  _atom_site_label
  _atom_site_symmetry_multiplicity
  _atom_site_fract_x
  _atom_site_fract_y
  _atom_site_fract_z
  _atom_site_occupancy
  Cu  Cu1       1.0  0.00000  0.00000  0.25000  1.0000
  Cu  Cu2       1.0  0.00000  0.00000  0.75000  1.0000
  Si  Si1       1.0  1.00000  1.00000  0.50000  1.0000
  Si  Si2       1.0  1.00000  0.00000  1.00000  1.0000
  H   H1        1.0  0.93307  0.18995  0.37187  1.0000
  H   H2        1.0  0.81005  0.93307  0.37187  1.0000
  H   H3        1.0  0.06693  0.81005  0.37187  1.0000
  H   H4        1.0  0.18995  0.06693  0.37188  1.0000
  H   H5        1.0  0.93307  0.81005  0.12812  1.0000
  H   H6        1.0  0.18995  0.93307  0.12812  1.0000
  H   H7        1.0  0.06693  0.18995  0.12812  1.0000
  H   H8        1.0  0.81005  0.06693  0.12812  1.0000
  H   H9        1.0  0.06693  0.81005  0.62812  1.0000
  H   H10       1.0  0.18995  0.06693  0.62813  1.0000
  H   H11       1.0  0.93307  0.18995  0.62812  1.0000
  H   H12       1.0  0.81005  0.93307  0.62813  1.0000
  H   H13       1.0  0.06693  0.18995  0.87187  1.0000
  H   H14       1.0  0.81005  0.06693  0.87187  1.0000
  H   H15       1.0  0.93307  0.81005  0.87187  1.0000
  H   H16       1.0  0.18995  0.93307  0.87187  1.0000
  H   H17       1.0  0.93152  0.41502  0.37720  1.0000
  H   H18       1.0  0.58498  0.93152  0.37720  1.0000
  H   H19       1.0  0.06848  0.58498  0.37720  1.0000
  H   H20       1.0  0.41502  0.06848  0.37720  1.0000
  H   H21       1.0  0.93152  0.58498  0.12280  1.0000
  H   H22       1.0  0.41502  0.93152  0.12280  1.0000
  H   H23       1.0  0.06848  0.41502  0.12280  1.0000
  H   H24       1.0  0.58498  0.06848  0.12280  1.0000
  H   H25       1.0  0.06848  0.58498  0.62280  1.0000
  H   H26       1.0  0.41502  0.06848  0.62280  1.0000
  H   H27       1.0  0.93152  0.41502  0.62280  1.0000
  H   H28       1.0  0.58498  0.93152  0.62280  1.0000
  H   H29       1.0  0.06848  0.41502  0.87720  1.0000
  H   H30       1.0  0.58498  0.06848  0.87720  1.0000
  H   H31       1.0  0.93152  0.58498  0.87720  1.0000
  H   H32       1.0  0.41502  0.93152  0.87720  1.0000
  H   H33       1.0  0.14959  0.28267  0.50000  1.0000
  H   H34       1.0  0.71734  0.14958  0.50000  1.0000
  H   H35       1.0  0.85041  0.71732  0.50000  1.0000
  H   H36       1.0  0.28266  0.85042  0.50000  1.0000
  H   H37       1.0  0.14958  0.71730  0.00000  1.0000
  H   H38       1.0  0.28266  0.14958  0.00000  1.0000
  H   H39       1.0  0.85042  0.28269  0.00000  1.0000
  H   H40       1.0  0.71734  0.85042  0.00000  1.0000
  H   H41       1.0  0.28490  0.55494  0.50000  1.0000
  H   H42       1.0  0.44507  0.28490  0.50000  1.0000
  H   H43       1.0  0.71510  0.44505  0.50000  1.0000
  H   H44       1.0  0.55492  0.71510  0.50000  1.0000
  H   H45       1.0  0.28490  0.44503  0.00000  1.0000
  H   H46       1.0  0.55492  0.28490  0.00000  1.0000
  H   H47       1.0  0.71510  0.55497  0.00000  1.0000
  H   H48       1.0  0.44508  0.71510  0.00000  1.0000
  C   C1        1.0  0.96258  0.24349  0.31833  1.0000
  C   C2        1.0  0.75651  0.96258  0.31833  1.0000
  C   C3        1.0  0.03742  0.75651  0.31833  1.0000
  C   C4        1.0  0.24349  0.03742  0.31833  1.0000
  C   C5        1.0  0.96258  0.75651  0.18167  1.0000
  C   C6        1.0  0.24349  0.96258  0.18167  1.0000
  C   C7        1.0  0.03742  0.24349  0.18167  1.0000
  C   C8        1.0  0.75651  0.03742  0.18167  1.0000
  C   C9        1.0  0.03742  0.75651  0.68167  1.0000
  C   C10       1.0  0.24349  0.03742  0.68167  1.0000
  C   C11       1.0  0.96258  0.24349  0.68167  1.0000
  C   C12       1.0  0.75651  0.96258  0.68167  1.0000
  C   C13       1.0  0.03742  0.24349  0.81833  1.0000
  C   C14       1.0  0.75651  0.03742  0.81833  1.0000
  C   C15       1.0  0.96258  0.75651  0.81833  1.0000
  C   C16       1.0  0.24349  0.96258  0.81833  1.0000
  C   C17       1.0  0.96271  0.36872  0.32088  1.0000
  C   C18       1.0  0.63128  0.96271  0.32088  1.0000
  C   C19       1.0  0.03729  0.63128  0.32088  1.0000
  C   C20       1.0  0.36872  0.03729  0.32088  1.0000
  C   C21       1.0  0.96271  0.63128  0.17912  1.0000
  C   C22       1.0  0.36872  0.96271  0.17912  1.0000
  C   C23       1.0  0.03729  0.36872  0.17912  1.0000
  C   C24       1.0  0.63128  0.03729  0.17912  1.0000
  C   C25       1.0  0.03729  0.63128  0.67912  1.0000
  C   C26       1.0  0.36872  0.03729  0.67912  1.0000
  C   C27       1.0  0.96271  0.36872  0.67912  1.0000
  C   C28       1.0  0.63128  0.96271  0.67912  1.0000
  C   C29       1.0  0.03729  0.36872  0.82088  1.0000
  C   C30       1.0  0.63128  0.03729  0.82088  1.0000
  C   C31       1.0  0.96271  0.63128  0.82088  1.0000
  C   C32       1.0  0.36872  0.96271  0.82088  1.0000
  C   C33       1.0  0.00000  0.43362  0.25000  1.0000
  C   C34       1.0  0.56638  0.00000  0.25000  1.0000
  C   C35       1.0  0.00000  0.56638  0.25000  1.0000
  C   C36       1.0  0.43362  0.00000  0.25000  1.0000
  C   C37       1.0  0.00000  0.56638  0.75000  1.0000
  C   C38       1.0  0.43362  0.00000  0.75000  1.0000
  C   C39       1.0  0.00000  0.43362  0.75000  1.0000
  C   C40       1.0  0.56638  0.00000  0.75000  1.0000
  C   C41       1.0  0.19131  0.37099  0.50000  1.0000
  C   C42       1.0  0.62901  0.19132  0.50000  1.0000
  C   C43       1.0  0.80869  0.62901  0.50000  1.0000
  C   C44       1.0  0.37098  0.80869  0.50000  1.0000
  C   C45       1.0  0.19130  0.62898  0.00000  1.0000
  C   C46       1.0  0.37098  0.19131  0.00000  1.0000
  C   C47       1.0  0.80870  0.37102  0.00000  1.0000
  C   C48       1.0  0.62902  0.80869  0.00000  1.0000
  C   C49       1.0  0.24046  0.46871  0.50000  1.0000
  C   C50       1.0  0.53128  0.24047  0.50000  1.0000
  C   C51       1.0  0.75953  0.53128  0.50000  1.0000
  C   C52       1.0  0.46871  0.75954  0.50000  1.0000
  C   C53       1.0  0.24045  0.53126  0.00000  1.0000
  C   C54       1.0  0.46871  0.24046  0.00000  1.0000
  C   C55       1.0  0.75955  0.46874  0.00000  1.0000
  C   C56       1.0  0.53130  0.75954  0.00000  1.0000
  N   N1        1.0  0.00000  0.18235  0.25000  1.0000
  N   N2        1.0  0.81765  0.00000  0.25000  1.0000
  N   N3        1.0  0.00000  0.81765  0.25000  1.0000
  N   N4        1.0  0.18235  0.00000  0.25000  1.0000
  N   N5        1.0  0.00000  0.81765  0.75000  1.0000
  N   N6        1.0  0.18235  0.00000  0.75000  1.0000
  N   N7        1.0  0.00000  0.18235  0.75000  1.0000
  N   N8        1.0  0.81765  1.00000  0.75000  1.0000
  F   F1        1.0  0.11347  0.10617  0.50000  1.0000
  F   F2        1.0  0.89383  0.11347  0.50000  1.0000
  F   F3        1.0  0.88653  0.89382  0.50000  1.0000
  F   F4        1.0  0.10617  0.88653  0.50000  1.0000
  F   F5        1.0  0.11348  0.89382  1.00000  1.0000
  F   F6        1.0  0.10617  0.11348  1.00000  1.0000
  F   F7        1.0  0.88652  0.10618  1.00000  1.0000
  F   F8        1.0  0.89383  0.88652  1.00000  1.0000
  F   F9        1.0  0.00000  1.00000  0.39286  1.0000
  F   F10       1.0  0.00000  0.00000  0.10714  1.0000
  F   F11       1.0  0.00000  0.00000  0.60714  1.0000
  F   F12       1.0  0.00000  0.00000  0.89286  1.0000
