data_image0
_chemical_formula_structural       Cu8H64C48I8N16
_chemical_formula_sum              "Cu8 H64 C48 I8 N16"
_cell_length_a       10.2507
_cell_length_b       10.9593
_cell_length_c       14.433
_cell_angle_alpha    90.0002
_cell_angle_beta     90.0003
_cell_angle_gamma    96.5414

_space_group_name_H-M_alt    "P 1"
_space_group_IT_number       1

loop_
  _space_group_symop_operation_xyz
  'x, y, z'

loop_
  _atom_site_type_symbol
  _atom_site_label
  _atom_site_symmetry_multiplicity
  _atom_site_fract_x
  _atom_site_fract_y
  _atom_site_fract_z
  _atom_site_occupancy
  Cu  Cu1       1.0  0.52087  0.58225  0.57543  1.0000
  Cu  Cu2       1.0  0.02087  0.08226  0.92457  1.0000
  Cu  Cu3       1.0  0.47913  0.41773  0.42457  1.0000
  Cu  Cu4       1.0  0.97913  0.91774  0.07543  1.0000
  Cu  Cu5       1.0  0.62320  0.45550  0.70979  1.0000
  Cu  Cu6       1.0  0.12321  0.95550  0.79022  1.0000
  Cu  Cu7       1.0  0.37679  0.54449  0.29022  1.0000
  Cu  Cu8       1.0  0.87679  0.04450  0.20978  1.0000
  H   H1        1.0  0.08886  0.76172  0.65021  1.0000
  H   H2        1.0  0.58886  0.26173  0.84979  1.0000
  H   H3        1.0  0.91114  0.23827  0.34979  1.0000
  H   H4        1.0  0.41115  0.73827  0.15021  1.0000
  H   H5        1.0  0.40737  0.90244  0.81046  1.0000
  H   H6        1.0  0.90736  0.40243  0.68954  1.0000
  H   H7        1.0  0.59262  0.09756  0.18954  1.0000
  H   H8        1.0  0.09263  0.59756  0.31046  1.0000
  H   H9        1.0  0.55129  0.76835  0.72387  1.0000
  H   H10       1.0  0.05129  0.26835  0.77613  1.0000
  H   H11       1.0  0.44870  0.23165  0.27613  1.0000
  H   H12       1.0  0.94871  0.73165  0.22387  1.0000
  H   H13       1.0  0.28748  0.56617  0.50573  1.0000
  H   H14       1.0  0.78748  0.06617  0.99427  1.0000
  H   H15       1.0  0.71251  0.43383  0.49427  1.0000
  H   H16       1.0  0.21252  0.93382  0.00573  1.0000
  H   H17       1.0  0.15327  0.65500  0.49951  1.0000
  H   H18       1.0  0.65327  0.15499  0.00050  1.0000
  H   H19       1.0  0.84673  0.34500  0.50049  1.0000
  H   H20       1.0  0.34673  0.84500  0.99951  1.0000
  H   H21       1.0  0.07832  0.43383  0.53461  1.0000
  H   H22       1.0  0.57832  0.93383  0.96539  1.0000
  H   H23       1.0  0.92167  0.56617  0.46539  1.0000
  H   H24       1.0  0.42168  0.06617  0.03461  1.0000
  H   H25       1.0  0.03814  0.53101  0.62689  1.0000
  H   H26       1.0  0.53814  0.03101  0.87311  1.0000
  H   H27       1.0  0.96185  0.46899  0.37311  1.0000
  H   H28       1.0  0.46186  0.96898  0.12689  1.0000
  H   H29       1.0  0.17435  0.44263  0.63713  1.0000
  H   H30       1.0  0.67435  0.94263  0.86287  1.0000
  H   H31       1.0  0.82563  0.55737  0.36287  1.0000
  H   H32       1.0  0.32565  0.05736  0.13712  1.0000
  H   H33       1.0  0.35049  0.42817  0.79624  1.0000
  H   H34       1.0  0.85049  0.92817  0.70376  1.0000
  H   H35       1.0  0.64950  0.57183  0.20376  1.0000
  H   H36       1.0  0.14951  0.07183  0.29624  1.0000
  H   H37       1.0  0.70634  0.63441  0.85498  1.0000
  H   H38       1.0  0.20635  0.13440  0.64502  1.0000
  H   H39       1.0  0.29366  0.36559  0.14502  1.0000
  H   H40       1.0  0.79367  0.86560  0.35498  1.0000
  H   H41       1.0  0.60388  0.72728  0.99267  1.0000
  H   H42       1.0  0.10389  0.22728  0.50733  1.0000
  H   H43       1.0  0.39612  0.27272  0.00733  1.0000
  H   H44       1.0  0.89613  0.77273  0.49267  1.0000
  H   H45       1.0  0.18904  0.41161  0.94952  1.0000
  H   H46       1.0  0.68904  0.91162  0.55047  1.0000
  H   H47       1.0  0.81096  0.58840  0.05048  1.0000
  H   H48       1.0  0.31098  0.08839  0.44952  1.0000
  H   H49       1.0  0.18641  0.55485  0.00696  1.0000
  H   H50       1.0  0.68642  0.05485  0.49304  1.0000
  H   H51       1.0  0.81359  0.44516  0.99304  1.0000
  H   H52       1.0  0.31360  0.94516  0.50695  1.0000
  H   H53       1.0  0.01192  0.52574  0.88261  1.0000
  H   H54       1.0  0.51193  0.02574  0.61737  1.0000
  H   H55       1.0  0.98807  0.47427  0.11739  1.0000
  H   H56       1.0  0.48808  0.97425  0.38261  1.0000
  H   H57       1.0  0.13439  0.50975  0.79788  1.0000
  H   H58       1.0  0.63439  0.00976  0.70212  1.0000
  H   H59       1.0  0.86560  0.49025  0.20212  1.0000
  H   H60       1.0  0.36561  0.99024  0.29787  1.0000
  H   H61       1.0  0.12896  0.65217  0.85583  1.0000
  H   H62       1.0  0.62896  0.15218  0.64416  1.0000
  H   H63       1.0  0.87104  0.34783  0.14417  1.0000
  H   H64       1.0  0.37105  0.84782  0.35583  1.0000
  C   C1        1.0  0.27046  0.68742  0.61926  1.0000
  C   C2        1.0  0.77046  0.18742  0.88074  1.0000
  C   C3        1.0  0.72953  0.31258  0.38074  1.0000
  C   C4        1.0  0.22954  0.81258  0.11926  1.0000
  C   C5        1.0  0.19245  0.76289  0.66760  1.0000
  C   C6        1.0  0.69245  0.26289  0.83240  1.0000
  C   C7        1.0  0.80754  0.23711  0.33240  1.0000
  C   C8        1.0  0.30756  0.73710  0.16760  1.0000
  C   C9        1.0  0.36836  0.84009  0.75592  1.0000
  C   C10       1.0  0.86835  0.34008  0.74408  1.0000
  C   C11       1.0  0.63164  0.15991  0.24408  1.0000
  C   C12       1.0  0.13165  0.65992  0.25592  1.0000
  C   C13       1.0  0.44691  0.76672  0.70832  1.0000
  C   C14       1.0  0.94690  0.26672  0.79168  1.0000
  C   C15       1.0  0.55309  0.23327  0.29168  1.0000
  C   C16       1.0  0.05310  0.73328  0.20832  1.0000
  C   C17       1.0  0.20981  0.60198  0.54658  1.0000
  C   C18       1.0  0.70981  0.10198  0.95342  1.0000
  C   C19       1.0  0.79019  0.39802  0.45342  1.0000
  C   C20       1.0  0.29019  0.89802  0.04658  1.0000
  C   C21       1.0  0.11945  0.49596  0.58942  1.0000
  C   C22       1.0  0.61945  0.99596  0.91058  1.0000
  C   C23       1.0  0.88054  0.50405  0.41058  1.0000
  C   C24       1.0  0.38055  0.00404  0.08942  1.0000
  C   C25       1.0  0.34847  0.54754  0.91732  1.0000
  C   C26       1.0  0.84847  0.04754  0.58268  1.0000
  C   C27       1.0  0.65153  0.45246  0.08268  1.0000
  C   C28       1.0  0.15154  0.95246  0.41732  1.0000
  C   C29       1.0  0.40633  0.49578  0.84075  1.0000
  C   C30       1.0  0.90634  0.99578  0.65924  1.0000
  C   C31       1.0  0.59366  0.50422  0.15925  1.0000
  C   C32       1.0  0.09367  0.00422  0.34075  1.0000
  C   C33       1.0  0.60363  0.60877  0.87340  1.0000
  C   C34       1.0  0.10364  0.10876  0.62660  1.0000
  C   C35       1.0  0.39636  0.39123  0.12660  1.0000
  C   C36       1.0  0.89637  0.89123  0.37340  1.0000
  C   C37       1.0  0.54582  0.66047  0.94856  1.0000
  C   C38       1.0  0.04583  0.16047  0.55144  1.0000
  C   C39       1.0  0.45418  0.33953  0.05145  1.0000
  C   C40       1.0  0.95419  0.83954  0.44856  1.0000
  C   C41       1.0  0.20634  0.51209  0.94036  1.0000
  C   C42       1.0  0.70635  0.01209  0.55963  1.0000
  C   C43       1.0  0.79365  0.48792  0.05964  1.0000
  C   C44       1.0  0.29367  0.98791  0.44036  1.0000
  C   C45       1.0  0.11536  0.55214  0.86474  1.0000
  C   C46       1.0  0.61536  0.05214  0.63526  1.0000
  C   C47       1.0  0.88464  0.44786  0.13526  1.0000
  C   C48       1.0  0.38464  0.94786  0.36474  1.0000
  I   I1        1.0  0.76908  0.64866  0.64435  1.0000
  I   I2        1.0  0.26908  0.14866  0.85566  1.0000
  I   I3        1.0  0.23092  0.35134  0.35566  1.0000
  I   I4        1.0  0.73092  0.85134  0.14434  1.0000
  I   I5        1.0  0.55496  0.65582  0.40079  1.0000
  I   I6        1.0  0.05496  0.15582  0.09922  1.0000
  I   I7        1.0  0.44504  0.34417  0.59922  1.0000
  I   I8        1.0  0.94504  0.84417  0.90079  1.0000
  N   N1        1.0  0.39970  0.68942  0.63995  1.0000
  N   N2        1.0  0.89969  0.18942  0.86005  1.0000
  N   N3        1.0  0.60030  0.31058  0.36005  1.0000
  N   N4        1.0  0.10031  0.81058  0.13995  1.0000
  N   N5        1.0  0.23937  0.83909  0.73586  1.0000
  N   N6        1.0  0.73936  0.33908  0.76415  1.0000
  N   N7        1.0  0.76063  0.16091  0.26414  1.0000
  N   N8        1.0  0.26064  0.66091  0.23585  1.0000
  N   N9        1.0  0.41892  0.63122  0.97090  1.0000
  N   N10       1.0  0.91893  0.13122  0.52910  1.0000
  N   N11       1.0  0.58108  0.36879  0.02910  1.0000
  N   N12       1.0  0.08109  0.86879  0.47090  1.0000
  N   N13       1.0  0.53296  0.52634  0.81855  1.0000
  N   N14       1.0  0.03296  0.02633  0.68145  1.0000
  N   N15       1.0  0.46704  0.47367  0.18145  1.0000
  N   N16       1.0  0.96705  0.97367  0.31855  1.0000
