data_image0
_chemical_formula_structural       Cu8H64C48I8N16
_chemical_formula_sum              "Cu8 H64 C48 I8 N16"
_cell_length_a       10.9188
_cell_length_b       11.7548
_cell_length_c       12.4562
_cell_angle_alpha    90
_cell_angle_beta     91.0367
_cell_angle_gamma    90

_space_group_name_H-M_alt    "P 1"
_space_group_IT_number       1

loop_
  _space_group_symop_operation_xyz
  'x, y, z'

loop_
  _atom_site_type_symbol
  _atom_site_label
  _atom_site_symmetry_multiplicity
  _atom_site_fract_x
  _atom_site_fract_y
  _atom_site_fract_z
  _atom_site_occupancy
  Cu  Cu1       1.0  0.86650  0.27242  0.35252  1.0000
  Cu  Cu2       1.0  0.36650  0.22758  0.85252  1.0000
  Cu  Cu3       1.0  0.13350  0.72758  0.64748  1.0000
  Cu  Cu4       1.0  0.63350  0.77242  0.14748  1.0000
  Cu  Cu5       1.0  0.11178  0.22274  0.34924  1.0000
  Cu  Cu6       1.0  0.61178  0.27726  0.84924  1.0000
  Cu  Cu7       1.0  0.88822  0.77725  0.65076  1.0000
  Cu  Cu8       1.0  0.38822  0.72274  0.15076  1.0000
  H   H1        1.0  0.62425  0.43505  0.66561  1.0000
  H   H2        1.0  0.12425  0.06495  0.16561  1.0000
  H   H3        1.0  0.37575  0.56495  0.33439  1.0000
  H   H4        1.0  0.87575  0.93505  0.83439  1.0000
  H   H5        1.0  0.79360  0.12615  0.73170  1.0000
  H   H6        1.0  0.29360  0.37386  0.23171  1.0000
  H   H7        1.0  0.20640  0.87386  0.26830  1.0000
  H   H8        1.0  0.70640  0.62615  0.76830  1.0000
  H   H9        1.0  0.87852  0.12291  0.54628  1.0000
  H   H10       1.0  0.37852  0.37709  0.04629  1.0000
  H   H11       1.0  0.12148  0.87709  0.45371  1.0000
  H   H12       1.0  0.62148  0.62291  0.95372  1.0000
  H   H13       1.0  0.63884  0.42289  0.39067  1.0000
  H   H14       1.0  0.13884  0.07711  0.89067  1.0000
  H   H15       1.0  0.36116  0.57711  0.60933  1.0000
  H   H16       1.0  0.86116  0.92289  0.10933  1.0000
  H   H17       1.0  0.78496  0.47834  0.41454  1.0000
  H   H18       1.0  0.28496  0.02166  0.91454  1.0000
  H   H19       1.0  0.21505  0.52166  0.58546  1.0000
  H   H20       1.0  0.71505  0.97834  0.08546  1.0000
  H   H21       1.0  0.62140  0.62511  0.43595  1.0000
  H   H22       1.0  0.12140  0.87489  0.93595  1.0000
  H   H23       1.0  0.37861  0.37489  0.56405  1.0000
  H   H24       1.0  0.87861  0.12511  0.06405  1.0000
  H   H25       1.0  0.70830  0.60679  0.55738  1.0000
  H   H26       1.0  0.20830  0.89321  0.05737  1.0000
  H   H27       1.0  0.29170  0.39321  0.44262  1.0000
  H   H28       1.0  0.79170  0.10679  0.94262  1.0000
  H   H29       1.0  0.55837  0.54966  0.54462  1.0000
  H   H30       1.0  0.05836  0.95034  0.04462  1.0000
  H   H31       1.0  0.44164  0.45034  0.45538  1.0000
  H   H32       1.0  0.94164  0.04966  0.95538  1.0000
  H   H33       1.0  0.89820  0.41152  0.15536  1.0000
  H   H34       1.0  0.39820  0.08848  0.65536  1.0000
  H   H35       1.0  0.10180  0.58848  0.84464  1.0000
  H   H36       1.0  0.60180  0.91152  0.34464  1.0000
  H   H37       1.0  0.63767  0.17497  0.24657  1.0000
  H   H38       1.0  0.13767  0.32504  0.74657  1.0000
  H   H39       1.0  0.36233  0.82503  0.75343  1.0000
  H   H40       1.0  0.86233  0.67496  0.25343  1.0000
  H   H41       1.0  0.54894  0.17502  0.06009  1.0000
  H   H42       1.0  0.04894  0.32498  0.56009  1.0000
  H   H43       1.0  0.45105  0.82497  0.93991  1.0000
  H   H44       1.0  0.95106  0.67502  0.43991  1.0000
  H   H45       1.0  0.77483  0.43532  0.87424  1.0000
  H   H46       1.0  0.27483  0.06468  0.37424  1.0000
  H   H47       1.0  0.22517  0.56468  0.12576  1.0000
  H   H48       1.0  0.72517  0.93532  0.62576  1.0000
  H   H49       1.0  0.86751  0.50382  0.97309  1.0000
  H   H50       1.0  0.36751  0.99618  0.47309  1.0000
  H   H51       1.0  0.13249  0.49618  0.02691  1.0000
  H   H52       1.0  0.63249  0.00382  0.52691  1.0000
  H   H53       1.0  0.99577  0.40137  0.84055  1.0000
  H   H54       1.0  0.49577  0.09863  0.34055  1.0000
  H   H55       1.0  0.00423  0.59863  0.15945  1.0000
  H   H56       1.0  0.50424  0.90137  0.65945  1.0000
  H   H57       1.0  0.01632  0.33854  0.97057  1.0000
  H   H58       1.0  0.51632  0.16146  0.47057  1.0000
  H   H59       1.0  0.98368  0.66146  0.02943  1.0000
  H   H60       1.0  0.48368  0.83854  0.52943  1.0000
  H   H61       1.0  0.92331  0.27012  0.87161  1.0000
  H   H62       1.0  0.42331  0.22989  0.37161  1.0000
  H   H63       1.0  0.07669  0.72988  0.12839  1.0000
  H   H64       1.0  0.57669  0.77011  0.62839  1.0000
  C   C1        1.0  0.72658  0.36477  0.53371  1.0000
  C   C2        1.0  0.22658  0.13523  0.03371  1.0000
  C   C3        1.0  0.27342  0.63522  0.46629  1.0000
  C   C4        1.0  0.77342  0.86478  0.96629  1.0000
  C   C5        1.0  0.68197  0.36574  0.63802  1.0000
  C   C6        1.0  0.18197  0.13426  0.13802  1.0000
  C   C7        1.0  0.31803  0.63426  0.36198  1.0000
  C   C8        1.0  0.81803  0.86574  0.86198  1.0000
  C   C9        1.0  0.77475  0.19537  0.67555  1.0000
  C   C10       1.0  0.27474  0.30462  0.17555  1.0000
  C   C11       1.0  0.22526  0.80462  0.32445  1.0000
  C   C12       1.0  0.72526  0.69538  0.82445  1.0000
  C   C13       1.0  0.82083  0.19317  0.57260  1.0000
  C   C14       1.0  0.32082  0.30683  0.07261  1.0000
  C   C15       1.0  0.17918  0.80683  0.42739  1.0000
  C   C16       1.0  0.67917  0.69317  0.92740  1.0000
  C   C17       1.0  0.69871  0.45785  0.45513  1.0000
  C   C18       1.0  0.19871  0.04215  0.95512  1.0000
  C   C19       1.0  0.30129  0.54215  0.54487  1.0000
  C   C20       1.0  0.80129  0.95785  0.04487  1.0000
  C   C21       1.0  0.64327  0.56564  0.50148  1.0000
  C   C22       1.0  0.14326  0.93436  0.00148  1.0000
  C   C23       1.0  0.35674  0.43436  0.49852  1.0000
  C   C24       1.0  0.85674  0.06564  0.99852  1.0000
  C   C25       1.0  0.77350  0.35679  0.02809  1.0000
  C   C26       1.0  0.27351  0.14321  0.52809  1.0000
  C   C27       1.0  0.22649  0.64321  0.97191  1.0000
  C   C28       1.0  0.72649  0.85679  0.47191  1.0000
  C   C29       1.0  0.81953  0.35844  0.13340  1.0000
  C   C30       1.0  0.31953  0.14156  0.63340  1.0000
  C   C31       1.0  0.18047  0.64156  0.86660  1.0000
  C   C32       1.0  0.68047  0.85844  0.36660  1.0000
  C   C33       1.0  0.67578  0.22922  0.18468  1.0000
  C   C34       1.0  0.17578  0.27078  0.68468  1.0000
  C   C35       1.0  0.32421  0.77078  0.81532  1.0000
  C   C36       1.0  0.82421  0.72922  0.31532  1.0000
  C   C37       1.0  0.62673  0.22924  0.08130  1.0000
  C   C38       1.0  0.12673  0.27076  0.58130  1.0000
  C   C39       1.0  0.37327  0.77076  0.91870  1.0000
  C   C40       1.0  0.87327  0.72924  0.41870  1.0000
  C   C41       1.0  0.83857  0.42027  0.94212  1.0000
  C   C42       1.0  0.33857  0.07973  0.44212  1.0000
  C   C43       1.0  0.16143  0.57973  0.05788  1.0000
  C   C44       1.0  0.66144  0.92027  0.55788  1.0000
  C   C45       1.0  0.95051  0.35335  0.90418  1.0000
  C   C46       1.0  0.45051  0.14665  0.40418  1.0000
  C   C47       1.0  0.04949  0.64665  0.09582  1.0000
  C   C48       1.0  0.54949  0.85335  0.59582  1.0000
  I   I1        1.0  0.03551  0.43932  0.34322  1.0000
  I   I2        1.0  0.53550  0.06068  0.84322  1.0000
  I   I3        1.0  0.96450  0.56068  0.65678  1.0000
  I   I4        1.0  0.46450  0.93932  0.15678  1.0000
  I   I5        1.0  0.94564  0.05740  0.32760  1.0000
  I   I6        1.0  0.44565  0.44260  0.82760  1.0000
  I   I7        1.0  0.05435  0.94260  0.67239  1.0000
  I   I8        1.0  0.55435  0.55739  0.17239  1.0000
  N   N1        1.0  0.79647  0.27619  0.49998  1.0000
  N   N2        1.0  0.29647  0.22381  0.99998  1.0000
  N   N3        1.0  0.20353  0.72381  0.50002  1.0000
  N   N4        1.0  0.70353  0.77619  0.00002  1.0000
  N   N5        1.0  0.70259  0.28140  0.70937  1.0000
  N   N6        1.0  0.20258  0.21859  0.20937  1.0000
  N   N7        1.0  0.29742  0.71860  0.29063  1.0000
  N   N8        1.0  0.79741  0.78140  0.79063  1.0000
  N   N9        1.0  0.67616  0.29071  0.00114  1.0000
  N   N10       1.0  0.17616  0.20929  0.50114  1.0000
  N   N11       1.0  0.32384  0.70929  0.99886  1.0000
  N   N12       1.0  0.82384  0.79071  0.49886  1.0000
  N   N13       1.0  0.77453  0.29321  0.21203  1.0000
  N   N14       1.0  0.27453  0.20679  0.71203  1.0000
  N   N15       1.0  0.22547  0.70679  0.78797  1.0000
  N   N16       1.0  0.72547  0.79321  0.28797  1.0000
