data_image0
_chemical_formula_structural       Cu8H32C24I8N8
_chemical_formula_sum              "Cu8 H32 C24 I8 N8"
_cell_length_a       4.20652
_cell_length_b       13.9667
_cell_length_c       16.8741
_cell_angle_alpha    90.0004
_cell_angle_beta     89.9992
_cell_angle_gamma    93.0375

_space_group_name_H-M_alt    "P 1"
_space_group_IT_number       1

loop_
  _space_group_symop_operation_xyz
  'x, y, z'

loop_
  _atom_site_type_symbol
  _atom_site_label
  _atom_site_symmetry_multiplicity
  _atom_site_fract_x
  _atom_site_fract_y
  _atom_site_fract_z
  _atom_site_occupancy
  Cu  Cu1       1.0  0.57375  0.24945  0.70774  1.0000
  Cu  Cu2       1.0  0.07376  0.74945  0.79226  1.0000
  Cu  Cu3       1.0  0.42625  0.75055  0.29226  1.0000
  Cu  Cu4       1.0  0.92624  0.25055  0.20774  1.0000
  Cu  Cu5       1.0  0.91628  0.16462  0.60418  1.0000
  Cu  Cu6       1.0  0.41626  0.66462  0.89583  1.0000
  Cu  Cu7       1.0  0.08373  0.83538  0.39582  1.0000
  Cu  Cu8       1.0  0.58374  0.33538  0.10417  1.0000
  H   H1        1.0  0.85024  0.19661  0.00048  1.0000
  H   H2        1.0  0.35023  0.69662  0.49952  1.0000
  H   H3        1.0  0.14975  0.80338  0.99952  1.0000
  H   H4        1.0  0.64976  0.30338  0.50048  1.0000
  H   H5        1.0  0.30726  0.43126  0.95735  1.0000
  H   H6        1.0  0.80726  0.93126  0.54264  1.0000
  H   H7        1.0  0.69273  0.56874  0.04264  1.0000
  H   H8        1.0  0.19275  0.06874  0.45736  1.0000
  H   H9        1.0  0.29659  0.39111  0.81255  1.0000
  H   H10       1.0  0.79661  0.89111  0.68745  1.0000
  H   H11       1.0  0.70340  0.60889  0.18745  1.0000
  H   H12       1.0  0.20341  0.10889  0.31256  1.0000
  H   H13       1.0  0.04674  0.15360  0.79976  1.0000
  H   H14       1.0  0.54672  0.65360  0.70024  1.0000
  H   H15       1.0  0.95326  0.84640  0.20024  1.0000
  H   H16       1.0  0.45328  0.34640  0.29976  1.0000
  H   H17       1.0  0.69240  0.08553  0.81407  1.0000
  H   H18       1.0  0.19237  0.58553  0.68592  1.0000
  H   H19       1.0  0.30760  0.91447  0.18593  1.0000
  H   H20       1.0  0.80762  0.41447  0.31408  1.0000
  H   H21       1.0  0.14663  0.00865  0.87921  1.0000
  H   H22       1.0  0.64662  0.50865  0.62080  1.0000
  H   H23       1.0  0.85338  0.99135  0.12079  1.0000
  H   H24       1.0  0.35338  0.49135  0.37921  1.0000
  H   H25       1.0  0.85852  0.03766  0.95034  1.0000
  H   H26       1.0  0.35851  0.53766  0.54966  1.0000
  H   H27       1.0  0.14149  0.96234  0.04966  1.0000
  H   H28       1.0  0.64149  0.46234  0.45034  1.0000
  H   H29       1.0  0.21793  0.10945  0.94197  1.0000
  H   H30       1.0  0.71793  0.60945  0.55803  1.0000
  H   H31       1.0  0.78207  0.89055  0.05803  1.0000
  H   H32       1.0  0.28207  0.39055  0.44197  1.0000
  C   C1        1.0  0.72154  0.21570  0.87747  1.0000
  C   C2        1.0  0.22154  0.71570  0.62254  1.0000
  C   C3        1.0  0.27844  0.78430  0.12254  1.0000
  C   C4        1.0  0.77846  0.28429  0.37746  1.0000
  C   C5        1.0  0.72818  0.23998  0.95763  1.0000
  C   C6        1.0  0.22821  0.73998  0.54236  1.0000
  C   C7        1.0  0.27180  0.76002  0.04237  1.0000
  C   C8        1.0  0.77179  0.26002  0.45764  1.0000
  C   C9        1.0  0.42879  0.36984  0.93471  1.0000
  C   C10       1.0  0.92881  0.86984  0.56528  1.0000
  C   C11       1.0  0.57120  0.63016  0.06529  1.0000
  C   C12       1.0  0.07119  0.13017  0.43472  1.0000
  C   C13       1.0  0.42254  0.34736  0.85456  1.0000
  C   C14       1.0  0.92252  0.84737  0.64545  1.0000
  C   C15       1.0  0.57745  0.65264  0.14544  1.0000
  C   C16       1.0  0.07749  0.15263  0.35456  1.0000
  C   C17       1.0  0.87596  0.12953  0.84626  1.0000
  C   C18       1.0  0.37595  0.62953  0.65374  1.0000
  C   C19       1.0  0.12404  0.87047  0.15374  1.0000
  C   C20       1.0  0.62405  0.37047  0.34626  1.0000
  C   C21       1.0  0.03377  0.06855  0.90803  1.0000
  C   C22       1.0  0.53376  0.56856  0.59197  1.0000
  C   C23       1.0  0.96623  0.93145  0.09197  1.0000
  C   C24       1.0  0.46624  0.43144  0.40803  1.0000
  I   I1        1.0  0.40681  0.07144  0.65516  1.0000
  I   I2        1.0  0.90680  0.57144  0.84484  1.0000
  I   I3        1.0  0.59320  0.92857  0.34484  1.0000
  I   I4        1.0  0.09320  0.42857  0.15516  1.0000
  I   I5        1.0  0.07637  0.34461  0.65150  1.0000
  I   I6        1.0  0.57637  0.84461  0.84849  1.0000
  I   I7        1.0  0.92363  0.65539  0.34850  1.0000
  I   I8        1.0  0.42364  0.15539  0.15151  1.0000
  N   N1        1.0  0.56511  0.27079  0.82514  1.0000
  N   N2        1.0  0.06514  0.77078  0.67486  1.0000
  N   N3        1.0  0.43488  0.72921  0.17486  1.0000
  N   N4        1.0  0.93487  0.22922  0.32514  1.0000
  N   N5        1.0  0.58117  0.31580  0.98706  1.0000
  N   N6        1.0  0.08114  0.81582  0.51295  1.0000
  N   N7        1.0  0.41882  0.68420  0.01294  1.0000
  N   N8        1.0  0.91886  0.18418  0.48706  1.0000
