data_image0
_chemical_formula_structural       Cu3H34C56N4O16
_chemical_formula_sum              "Cu3 H34 C56 N4 O16"
_cell_length_a       10.426
_cell_length_b       10.57
_cell_length_c       11.754
_cell_angle_alpha    83.089
_cell_angle_beta     86.2067
_cell_angle_gamma    70.8905

_space_group_name_H-M_alt    "P 1"
_space_group_IT_number       1

loop_
  _space_group_symop_operation_xyz
  'x, y, z'

loop_
  _atom_site_type_symbol
  _atom_site_label
  _atom_site_symmetry_multiplicity
  _atom_site_fract_x
  _atom_site_fract_y
  _atom_site_fract_z
  _atom_site_occupancy
  Cu  Cu1       1.0  0.50000  1.00000  0.50000  1.0000
  Cu  Cu2       1.0  0.77076  0.77700  0.69551  1.0000
  Cu  Cu3       1.0  0.22924  0.22300  0.30448  1.0000
  H   H1        1.0  0.79880  0.03948  0.81649  1.0000
  H   H2        1.0  0.20120  0.96052  0.18351  1.0000
  H   H3        1.0  0.80312  0.11341  0.01007  1.0000
  H   H4        1.0  0.19688  0.88659  0.98993  1.0000
  H   H5        1.0  0.58689  0.19498  0.12365  1.0000
  H   H6        1.0  0.41311  0.80502  0.87635  1.0000
  H   H7        1.0  0.36269  0.15323  0.84491  1.0000
  H   H8        1.0  0.63731  0.84677  0.15509  1.0000
  H   H9        1.0  0.59882  0.52656  0.72562  1.0000
  H   H10       1.0  0.40118  0.47344  0.27438  1.0000
  H   H11       1.0  0.49312  0.39175  0.86833  1.0000
  H   H12       1.0  0.50688  0.60825  0.13167  1.0000
  H   H13       1.0  0.24696  0.48369  0.92117  1.0000
  H   H14       1.0  0.75304  0.51631  0.07883  1.0000
  H   H15       1.0  0.21370  0.83806  0.68724  1.0000
  H   H16       1.0  0.78630  0.16194  0.31276  1.0000
  H   H17       1.0  0.81449  0.97229  0.48326  1.0000
  H   H18       1.0  0.18551  0.02771  0.51673  1.0000
  H   H19       1.0  0.01594  0.96286  0.34924  1.0000
  H   H20       1.0  0.98406  0.03714  0.65076  1.0000
  H   H21       1.0  0.22105  0.75630  0.36405  1.0000
  H   H22       1.0  0.77894  0.24370  0.63594  1.0000
  H   H23       1.0  0.32996  0.51270  0.45959  1.0000
  H   H24       1.0  0.67003  0.48730  0.54041  1.0000
  H   H25       1.0  0.30993  0.32577  0.59754  1.0000
  H   H26       1.0  0.69007  0.67424  0.40245  1.0000
  H   H27       1.0  0.16780  0.23526  0.75332  1.0000
  H   H28       1.0  0.83220  0.76474  0.24668  1.0000
  H   H29       1.0  0.95307  0.28272  0.87410  1.0000
  H   H30       1.0  0.04693  0.71728  0.12591  1.0000
  H   H31       1.0  0.78045  0.51302  0.85209  1.0000
  H   H32       1.0  0.21955  0.48699  0.14792  1.0000
  H   H33       1.0  0.91999  0.70226  0.94000  1.0000
  H   H34       1.0  0.08001  0.29773  0.06000  1.0000
  C   C1        1.0  0.57929  0.05176  0.70159  1.0000
  C   C2        1.0  0.42072  0.94824  0.29841  1.0000
  C   C3        1.0  0.58015  0.09681  0.81690  1.0000
  C   C4        1.0  0.41985  0.90319  0.18310  1.0000
  C   C5        1.0  0.70459  0.08392  0.86420  1.0000
  C   C6        1.0  0.29541  0.91609  0.13580  1.0000
  C   C7        1.0  0.70670  0.12252  0.97329  1.0000
  C   C8        1.0  0.29330  0.87749  0.02671  1.0000
  C   C9        1.0  0.58612  0.16830  0.03726  1.0000
  C   C10       1.0  0.41388  0.83171  0.96274  1.0000
  C   C11       1.0  0.46176  0.17876  0.99146  1.0000
  C   C12       1.0  0.53824  0.82124  0.00854  1.0000
  C   C13       1.0  0.45903  0.14539  0.88039  1.0000
  C   C14       1.0  0.54097  0.85462  0.11961  1.0000
  C   C15       1.0  0.33242  0.22127  0.06230  1.0000
  C   C16       1.0  0.66757  0.77873  0.93769  1.0000
  C   C17       1.0  0.47912  0.77244  0.61764  1.0000
  C   C18       1.0  0.52088  0.22756  0.38236  1.0000
  C   C19       1.0  0.41256  0.68870  0.69609  1.0000
  C   C20       1.0  0.58744  0.31130  0.30391  1.0000
  C   C21       1.0  0.49082  0.56318  0.74799  1.0000
  C   C22       1.0  0.50918  0.43682  0.25202  1.0000
  C   C23       1.0  0.43174  0.48937  0.82842  1.0000
  C   C24       1.0  0.56826  0.51063  0.17159  1.0000
  C   C25       1.0  0.29423  0.54111  0.85899  1.0000
  C   C26       1.0  0.70577  0.45888  0.14101  1.0000
  C   C27       1.0  0.21544  0.66755  0.80808  1.0000
  C   C28       1.0  0.78456  0.33244  0.19192  1.0000
  C   C29       1.0  0.27477  0.73967  0.72583  1.0000
  C   C30       1.0  0.72523  0.26033  0.27418  1.0000
  C   C31       1.0  0.06926  0.73038  0.84009  1.0000
  C   C32       1.0  0.93074  0.26962  0.15991  1.0000
  C   C33       1.0  0.90507  0.88350  0.48571  1.0000
  C   C34       1.0  0.09493  0.11651  0.51429  1.0000
  C   C35       1.0  0.01844  0.87657  0.41134  1.0000
  C   C36       1.0  0.98156  0.12343  0.58866  1.0000
  C   C37       1.0  0.13154  0.76211  0.41949  1.0000
  C   C38       1.0  0.86846  0.23789  0.58051  1.0000
  C   C39       1.0  0.13040  0.65149  0.49976  1.0000
  C   C40       1.0  0.86960  0.34851  0.50024  1.0000
  C   C41       1.0  0.23866  0.52606  0.51380  1.0000
  C   C42       1.0  0.76134  0.47394  0.48620  1.0000
  C   C43       1.0  0.22811  0.42190  0.59105  1.0000
  C   C44       1.0  0.77189  0.57810  0.40895  1.0000
  C   C45       1.0  0.10882  0.43584  0.66278  1.0000
  C   C46       1.0  0.89118  0.56416  0.33722  1.0000
  C   C47       1.0  0.08919  0.33334  0.74379  1.0000
  C   C48       1.0  0.91081  0.66666  0.25621  1.0000
  C   C49       1.0  0.97066  0.35906  0.81015  1.0000
  C   C50       1.0  0.02934  0.64094  0.18985  1.0000
  C   C51       1.0  0.87247  0.48747  0.79810  1.0000
  C   C52       1.0  0.12753  0.51253  0.20190  1.0000
  C   C53       1.0  0.00234  0.56037  0.65343  1.0000
  C   C54       1.0  0.99766  0.43963  0.34657  1.0000
  C   C55       1.0  0.01209  0.66731  0.57039  1.0000
  C   C56       1.0  0.98791  0.33268  0.42961  1.0000
  N   N1        1.0  0.90390  0.78188  0.56415  1.0000
  N   N2        1.0  0.09609  0.21813  0.43585  1.0000
  N   N3        1.0  0.88813  0.58520  0.72145  1.0000
  N   N4        1.0  0.11188  0.41480  0.27855  1.0000
  O   O1        1.0  0.68993  0.97333  0.66047  1.0000
  O   O2        1.0  0.31007  0.02667  0.33953  1.0000
  O   O3        1.0  0.46996  0.09418  0.64600  1.0000
  O   O4        1.0  0.53004  0.90582  0.35400  1.0000
  O   O5        1.0  0.34892  0.22473  0.16927  1.0000
  O   O6        1.0  0.65107  0.77528  0.83072  1.0000
  O   O7        1.0  0.22120  0.24952  0.01282  1.0000
  O   O8        1.0  0.77880  0.75048  0.98717  1.0000
  O   O9        1.0  0.60547  0.73068  0.59901  1.0000
  O   O10       1.0  0.39453  0.26932  0.40100  1.0000
  O   O11       1.0  0.39908  0.88773  0.57568  1.0000
  O   O12       1.0  0.60092  0.11227  0.42433  1.0000
  O   O13       1.0  0.02386  0.65744  0.92276  1.0000
  O   O14       1.0  0.97614  0.34255  0.07725  1.0000
  O   O15       1.0  0.99836  0.84004  0.79287  1.0000
  O   O16       1.0  0.00164  0.15995  0.20713  1.0000
