data_image0
_chemical_formula_structural       Cu3H34C52N4O16
_chemical_formula_sum              "Cu3 H34 C52 N4 O16"
_cell_length_a       10.3404
_cell_length_b       10.7148
_cell_length_c       11.578
_cell_angle_alpha    83.0943
_cell_angle_beta     84.6111
_cell_angle_gamma    65.9244

_space_group_name_H-M_alt    "P 1"
_space_group_IT_number       1

loop_
  _space_group_symop_operation_xyz
  'x, y, z'

loop_
  _atom_site_type_symbol
  _atom_site_label
  _atom_site_symmetry_multiplicity
  _atom_site_fract_x
  _atom_site_fract_y
  _atom_site_fract_z
  _atom_site_occupancy
  Cu  Cu1       1.0  0.19691  0.23433  0.31106  1.0000
  Cu  Cu2       1.0  0.80308  0.76566  0.68897  1.0000
  Cu  Cu3       1.0  0.49998  0.99998  0.50001  1.0000
  H   H1        1.0  0.17039  0.03284  0.51229  1.0000
  H   H2        1.0  0.82960  0.96716  0.48771  1.0000
  H   H3        1.0  0.97222  0.03443  0.65770  1.0000
  H   H4        1.0  0.02777  0.96557  0.34230  1.0000
  H   H5        1.0  0.74880  0.25072  0.66241  1.0000
  H   H6        1.0  0.25120  0.74928  0.33759  1.0000
  H   H7        1.0  0.73639  0.45768  0.52940  1.0000
  H   H8        1.0  0.26361  0.54232  0.47060  1.0000
  H   H9        1.0  0.75944  0.62959  0.42902  1.0000
  H   H10       1.0  0.24056  0.37041  0.57098  1.0000
  H   H11       1.0  0.78960  0.80463  0.28380  1.0000
  H   H12       1.0  0.21041  0.19536  0.71620  1.0000
  H   H13       1.0  0.00115  0.73436  0.13859  1.0000
  H   H14       1.0  0.99886  0.26564  0.86141  1.0000
  H   H15       1.0  0.17239  0.48823  0.15017  1.0000
  H   H16       1.0  0.82761  0.51176  0.84983  1.0000
  H   H17       1.0  0.34704  0.49804  0.28070  1.0000
  H   H18       1.0  0.65296  0.50196  0.71930  1.0000
  H   H19       1.0  0.44601  0.63339  0.13522  1.0000
  H   H20       1.0  0.55399  0.36662  0.86478  1.0000
  H   H21       1.0  0.70513  0.53649  0.08040  1.0000
  H   H22       1.0  0.29487  0.46351  0.91961  1.0000
  H   H23       1.0  0.76343  0.17931  0.31783  1.0000
  H   H24       1.0  0.23656  0.82070  0.68218  1.0000
  H   H25       1.0  0.18854  0.98725  0.18051  1.0000
  H   H26       1.0  0.81146  0.01275  0.81949  1.0000
  H   H27       1.0  0.18844  0.91548  0.98332  1.0000
  H   H28       1.0  0.81156  0.08452  0.01668  1.0000
  H   H29       1.0  0.41635  0.81711  0.86599  1.0000
  H   H30       1.0  0.58365  0.18290  0.13401  1.0000
  H   H31       1.0  0.64442  0.83458  0.15026  1.0000
  H   H32       1.0  0.35558  0.16541  0.84974  1.0000
  H   H33       1.0  0.05484  0.31522  0.06059  1.0000
  H   H34       1.0  0.94516  0.68478  0.93941  1.0000
  C   C1        1.0  0.07141  0.12334  0.51957  1.0000
  C   C2        1.0  0.92859  0.87665  0.48043  1.0000
  C   C3        1.0  0.96099  0.12596  0.59964  1.0000
  C   C4        1.0  0.03900  0.87404  0.40036  1.0000
  C   C5        1.0  0.83794  0.24626  0.60222  1.0000
  C   C6        1.0  0.16206  0.75374  0.39779  1.0000
  C   C7        1.0  0.82965  0.36121  0.52748  1.0000
  C   C8        1.0  0.17035  0.63879  0.47252  1.0000
  C   C9        1.0  0.84892  0.59995  0.36526  1.0000
  C   C10       1.0  0.15109  0.40004  0.63474  1.0000
  C   C11       1.0  0.86738  0.69894  0.28384  1.0000
  C   C12       1.0  0.13262  0.30106  0.71616  1.0000
  C   C13       1.0  0.98418  0.66086  0.20495  1.0000
  C   C14       1.0  0.01582  0.33913  0.79505  1.0000
  C   C15       1.0  0.08032  0.52430  0.21050  1.0000
  C   C16       1.0  0.91969  0.47570  0.78951  1.0000
  C   C17       1.0  0.94960  0.46480  0.36646  1.0000
  C   C18       1.0  0.05040  0.53520  0.63354  1.0000
  C   C19       1.0  0.94439  0.35156  0.44968  1.0000
  C   C20       1.0  0.05561  0.64843  0.55033  1.0000
  C   C21       1.0  0.48660  0.24804  0.38951  1.0000
  C   C22       1.0  0.51341  0.75196  0.61048  1.0000
  C   C23       1.0  0.54902  0.33253  0.31000  1.0000
  C   C24       1.0  0.45098  0.66748  0.68999  1.0000
  C   C25       1.0  0.46022  0.46029  0.25778  1.0000
  C   C26       1.0  0.53978  0.53972  0.74222  1.0000
  C   C27       1.0  0.51561  0.53428  0.17587  1.0000
  C   C28       1.0  0.48439  0.46573  0.82413  1.0000
  C   C29       1.0  0.66014  0.48011  0.14413  1.0000
  C   C30       1.0  0.33986  0.51990  0.85587  1.0000
  C   C31       1.0  0.74962  0.35169  0.19527  1.0000
  C   C32       1.0  0.25038  0.64832  0.80473  1.0000
  C   C33       1.0  0.69392  0.27940  0.27909  1.0000
  C   C34       1.0  0.30608  0.72061  0.72091  1.0000
  C   C35       1.0  0.90379  0.28801  0.16161  1.0000
  C   C36       1.0  0.09620  0.71201  0.83839  1.0000
  C   C37       1.0  0.41707  0.95552  0.29705  1.0000
  C   C38       1.0  0.58295  0.04445  0.70296  1.0000
  C   C39       1.0  0.41680  0.91159  0.17968  1.0000
  C   C40       1.0  0.58319  0.08839  0.82034  1.0000
  C   C41       1.0  0.28809  0.93530  0.13180  1.0000
  C   C42       1.0  0.71191  0.06470  0.86820  1.0000
  C   C43       1.0  0.28835  0.89795  0.02030  1.0000
  C   C44       1.0  0.71165  0.10206  0.97970  1.0000
  C   C45       1.0  0.41546  0.84232  0.95439  1.0000
  C   C46       1.0  0.58454  0.15768  0.04561  1.0000
  C   C47       1.0  0.54407  0.82005  0.00132  1.0000
  C   C48       1.0  0.45593  0.17995  0.99868  1.0000
  C   C49       1.0  0.54434  0.85212  0.11459  1.0000
  C   C50       1.0  0.45567  0.14787  0.88541  1.0000
  C   C51       1.0  0.68152  0.76887  0.93004  1.0000
  C   C52       1.0  0.31848  0.23113  0.06997  1.0000
  N   N1        1.0  0.06149  0.23276  0.44563  1.0000
  N   N2        1.0  0.93851  0.76724  0.55436  1.0000
  N   N3        1.0  0.06370  0.42939  0.28982  1.0000
  N   N4        1.0  0.93631  0.57061  0.71018  1.0000
  O   O1        1.0  0.35564  0.29576  0.41662  1.0000
  O   O2        1.0  0.64436  0.70424  0.58338  1.0000
  O   O3        1.0  0.57631  0.12595  0.42143  1.0000
  O   O4        1.0  0.42370  0.87406  0.57857  1.0000
  O   O5        1.0  0.94453  0.35901  0.07511  1.0000
  O   O6        1.0  0.05547  0.64100  0.92489  1.0000
  O   O7        1.0  0.98552  0.17884  0.21168  1.0000
  O   O8        1.0  0.01448  0.82117  0.78833  1.0000
  O   O9        1.0  0.29957  0.03479  0.34515  1.0000
  O   O10       1.0  0.70044  0.96523  0.65483  1.0000
  O   O11       1.0  0.53338  0.91111  0.34789  1.0000
  O   O12       1.0  0.46661  0.08893  0.65208  1.0000
  O   O13       1.0  0.67010  0.76567  0.82073  1.0000
  O   O14       1.0  0.32991  0.23433  0.17926  1.0000
  O   O15       1.0  0.79484  0.73441  0.98149  1.0000
  O   O16       1.0  0.20516  0.26558  0.01851  1.0000
