data_image0
_chemical_formula_structural       Mn2H48C48S4N20O4
_chemical_formula_sum              "Mn2 H48 C48 S4 N20 O4"
_cell_length_a       6.91622
_cell_length_b       11.6919
_cell_length_c       17.0134
_cell_angle_alpha    89.9977
_cell_angle_beta     90.0065
_cell_angle_gamma    95.2612

_space_group_name_H-M_alt    "P 1"
_space_group_IT_number       1

loop_
  _space_group_symop_operation_xyz
  'x, y, z'

loop_
  _atom_site_type_symbol
  _atom_site_label
  _atom_site_symmetry_multiplicity
  _atom_site_fract_x
  _atom_site_fract_y
  _atom_site_fract_z
  _atom_site_occupancy
  Mn  Mn1       1.0  0.99999  0.00000  0.00000  1.0000
  Mn  Mn2       1.0  0.00000  0.50000  0.50000  1.0000
  H   H1        1.0  0.14113  0.92388  0.84829  1.0000
  H   H2        1.0  0.85887  0.57613  0.34831  1.0000
  H   H3        1.0  0.85886  0.07613  0.15171  1.0000
  H   H4        1.0  0.14112  0.42386  0.65169  1.0000
  H   H5        1.0  0.32440  0.79484  0.96122  1.0000
  H   H6        1.0  0.67556  0.70515  0.46120  1.0000
  H   H7        1.0  0.67560  0.20516  0.03878  1.0000
  H   H8        1.0  0.32443  0.29484  0.53880  1.0000
  H   H9        1.0  0.46665  0.92631  0.93908  1.0000
  H   H10       1.0  0.53333  0.57367  0.43906  1.0000
  H   H11       1.0  0.53334  0.07370  0.06092  1.0000
  H   H12       1.0  0.46667  0.42631  0.56093  1.0000
  H   H13       1.0  0.39408  0.82877  0.86179  1.0000
  H   H14       1.0  0.60587  0.67122  0.36177  1.0000
  H   H15       1.0  0.60591  0.17124  0.13821  1.0000
  H   H16       1.0  0.39412  0.32877  0.63823  1.0000
  H   H17       1.0  0.25981  0.11621  0.87908  1.0000
  H   H18       1.0  0.74018  0.38379  0.37907  1.0000
  H   H19       1.0  0.74018  0.88379  0.12092  1.0000
  H   H20       1.0  0.25982  0.61622  0.62093  1.0000
  H   H21       1.0  0.45767  0.30461  0.86328  1.0000
  H   H22       1.0  0.54231  0.19539  0.36329  1.0000
  H   H23       1.0  0.54233  0.69539  0.13672  1.0000
  H   H24       1.0  0.45769  0.80462  0.63671  1.0000
  H   H25       1.0  0.32379  0.37817  0.10551  1.0000
  H   H26       1.0  0.67629  0.12182  0.60552  1.0000
  H   H27       1.0  0.67622  0.62183  0.89449  1.0000
  H   H28       1.0  0.32372  0.87818  0.39448  1.0000
  H   H29       1.0  0.13219  0.18697  0.11088  1.0000
  H   H30       1.0  0.86787  0.31302  0.61089  1.0000
  H   H31       1.0  0.86782  0.81304  0.88912  1.0000
  H   H32       1.0  0.13213  0.68698  0.38911  1.0000
  H   H33       1.0  0.84712  0.78732  0.61017  1.0000
  H   H34       1.0  0.15290  0.71267  0.11019  1.0000
  H   H35       1.0  0.15290  0.21268  0.38982  1.0000
  H   H36       1.0  0.84709  0.28733  0.88980  1.0000
  H   H37       1.0  0.92779  0.77200  0.75323  1.0000
  H   H38       1.0  0.07224  0.72802  0.25322  1.0000
  H   H39       1.0  0.07221  0.22800  0.24677  1.0000
  H   H40       1.0  0.92775  0.27198  0.74677  1.0000
  H   H41       1.0  0.24399  0.09140  0.75106  1.0000
  H   H42       1.0  0.75598  0.40862  0.25106  1.0000
  H   H43       1.0  0.75601  0.90860  0.24894  1.0000
  H   H44       1.0  0.24404  0.59137  0.74894  1.0000
  H   H45       1.0  0.17641  0.11882  0.60739  1.0000
  H   H46       1.0  0.82358  0.38119  0.10741  1.0000
  H   H47       1.0  0.82360  0.88119  0.39262  1.0000
  H   H48       1.0  0.17643  0.61880  0.89259  1.0000
  C   C1        1.0  0.24153  0.93484  0.14432  1.0000
  C   C2        1.0  0.75855  0.56515  0.64432  1.0000
  C   C3        1.0  0.75846  0.06516  0.85568  1.0000
  C   C4        1.0  0.24146  0.43485  0.35568  1.0000
  C   C5        1.0  0.34870  0.86447  0.91797  1.0000
  C   C6        1.0  0.65129  0.63552  0.41796  1.0000
  C   C7        1.0  0.65130  0.13553  0.08203  1.0000
  C   C8        1.0  0.34871  0.36447  0.58204  1.0000
  C   C9        1.0  0.27607  0.17783  0.92691  1.0000
  C   C10       1.0  0.72393  0.32217  0.42691  1.0000
  C   C11       1.0  0.72391  0.82217  0.07309  1.0000
  C   C12       1.0  0.27608  0.67783  0.57309  1.0000
  C   C13       1.0  0.38652  0.28152  0.91895  1.0000
  C   C14       1.0  0.61349  0.21847  0.41896  1.0000
  C   C15       1.0  0.61347  0.71848  0.08105  1.0000
  C   C16       1.0  0.38652  0.78153  0.58104  1.0000
  C   C17       1.0  0.40247  0.35942  0.98253  1.0000
  C   C18       1.0  0.59755  0.14059  0.48252  1.0000
  C   C19       1.0  0.59754  0.64058  0.01747  1.0000
  C   C20       1.0  0.40246  0.85941  0.51748  1.0000
  C   C21       1.0  0.31194  0.32257  0.05413  1.0000
  C   C22       1.0  0.68811  0.17744  0.55413  1.0000
  C   C23       1.0  0.68807  0.67744  0.94587  1.0000
  C   C24       1.0  0.31190  0.82256  0.44587  1.0000
  C   C25       1.0  0.20556  0.21736  0.05738  1.0000
  C   C26       1.0  0.79448  0.28265  0.55738  1.0000
  C   C27       1.0  0.79444  0.78264  0.94262  1.0000
  C   C28       1.0  0.20552  0.71736  0.44262  1.0000
  C   C29       1.0  0.00628  0.95414  0.59867  1.0000
  C   C30       1.0  0.99373  0.54587  0.09868  1.0000
  C   C31       1.0  0.99373  0.04587  0.40132  1.0000
  C   C32       1.0  0.00627  0.45413  0.90132  1.0000
  C   C33       1.0  0.93423  0.85618  0.64026  1.0000
  C   C34       1.0  0.06576  0.64381  0.14027  1.0000
  C   C35       1.0  0.06578  0.14383  0.35974  1.0000
  C   C36       1.0  0.93423  0.35618  0.85973  1.0000
  C   C37       1.0  0.98051  0.84806  0.71952  1.0000
  C   C38       1.0  0.01949  0.65196  0.21952  1.0000
  C   C39       1.0  0.01949  0.15195  0.28047  1.0000
  C   C40       1.0  0.98051  0.34804  0.78048  1.0000
  C   C41       1.0  0.15554  0.02632  0.71773  1.0000
  C   C42       1.0  0.84442  0.47371  0.21773  1.0000
  C   C43       1.0  0.84445  0.97369  0.28227  1.0000
  C   C44       1.0  0.15560  0.52628  0.78227  1.0000
  C   C45       1.0  0.11843  0.04203  0.63864  1.0000
  C   C46       1.0  0.88156  0.45798  0.13865  1.0000
  C   C47       1.0  0.88157  0.95798  0.36136  1.0000
  C   C48       1.0  0.11845  0.54201  0.86135  1.0000
  S   S1        1.0  0.35845  0.91798  0.22420  1.0000
  S   S2        1.0  0.64160  0.58204  0.72417  1.0000
  S   S3        1.0  0.64154  0.08203  0.77581  1.0000
  S   S4        1.0  0.35840  0.41796  0.27583  1.0000
  N   N1        1.0  0.15398  0.94641  0.08488  1.0000
  N   N2        1.0  0.84610  0.55355  0.58489  1.0000
  N   N3        1.0  0.84601  0.05360  0.91513  1.0000
  N   N4        1.0  0.15390  0.44645  0.41511  1.0000
  N   N5        1.0  0.18190  0.14565  0.99448  1.0000
  N   N6        1.0  0.81811  0.35435  0.49448  1.0000
  N   N7        1.0  0.81809  0.85435  0.00552  1.0000
  N   N8        1.0  0.18189  0.64565  0.50552  1.0000
  N   N9        1.0  0.50162  0.46541  0.96995  1.0000
  N   N10       1.0  0.49839  0.03460  0.46995  1.0000
  N   N11       1.0  0.49839  0.53459  0.03005  1.0000
  N   N12       1.0  0.50162  0.96540  0.53005  1.0000
  N   N13       1.0  0.96490  0.95480  0.51744  1.0000
  N   N14       1.0  0.03512  0.54519  0.01744  1.0000
  N   N15       1.0  0.03511  0.04521  0.48256  1.0000
  N   N16       1.0  0.96488  0.45481  0.98256  1.0000
  N   N17       1.0  0.09065  0.93087  0.75766  1.0000
  N   N18       1.0  0.90933  0.56917  0.25766  1.0000
  N   N19       1.0  0.90935  0.06914  0.24234  1.0000
  N   N20       1.0  0.09067  0.43082  0.74234  1.0000
  O   O1        1.0  0.17425  0.91936  0.90753  1.0000
  O   O2        1.0  0.82577  0.58063  0.40754  1.0000
  O   O3        1.0  0.82575  0.08064  0.09247  1.0000
  O   O4        1.0  0.17423  0.41937  0.59246  1.0000
