data_image0
_chemical_formula_structural       Zn8As4H28C24S4O32
_chemical_formula_sum              "Zn8 As4 H28 C24 S4 O32"
_cell_length_a       8.38635
_cell_length_b       10.8739
_cell_length_c       12.4421
_cell_angle_alpha    95.0906
_cell_angle_beta     90.0008
_cell_angle_gamma    89.9998

_space_group_name_H-M_alt    "P 1"
_space_group_IT_number       1

loop_
  _space_group_symop_operation_xyz
  'x, y, z'

loop_
  _atom_site_type_symbol
  _atom_site_label
  _atom_site_symmetry_multiplicity
  _atom_site_fract_x
  _atom_site_fract_y
  _atom_site_fract_z
  _atom_site_occupancy
  Zn  Zn1       1.0  0.10403  0.38904  0.03414  1.0000
  Zn  Zn2       1.0  0.60403  0.11095  0.96586  1.0000
  Zn  Zn3       1.0  0.89596  0.61095  0.96585  1.0000
  Zn  Zn4       1.0  0.39597  0.88904  0.03414  1.0000
  Zn  Zn5       1.0  0.28824  0.62858  0.94302  1.0000
  Zn  Zn6       1.0  0.78825  0.87142  0.05698  1.0000
  Zn  Zn7       1.0  0.71175  0.37142  0.05698  1.0000
  Zn  Zn8       1.0  0.21175  0.12858  0.94303  1.0000
  As  As1       1.0  0.41922  0.34765  0.85825  1.0000
  As  As2       1.0  0.91923  0.15235  0.14175  1.0000
  As  As3       1.0  0.58077  0.65235  0.14176  1.0000
  As  As4       1.0  0.08077  0.84766  0.85824  1.0000
  H   H1        1.0  0.59514  0.07265  0.51952  1.0000
  H   H2        1.0  0.09518  0.42734  0.48048  1.0000
  H   H3        1.0  0.40484  0.92732  0.48049  1.0000
  H   H4        1.0  0.90484  0.57270  0.51950  1.0000
  H   H5        1.0  0.68187  0.25039  0.42468  1.0000
  H   H6        1.0  0.18192  0.24960  0.57532  1.0000
  H   H7        1.0  0.31809  0.74957  0.57532  1.0000
  H   H8        1.0  0.81811  0.75045  0.42467  1.0000
  H   H9        1.0  0.64289  0.46456  0.51093  1.0000
  H   H10       1.0  0.14292  0.03543  0.48906  1.0000
  H   H11       1.0  0.35710  0.53540  0.48906  1.0000
  H   H12       1.0  0.85712  0.96462  0.51093  1.0000
  H   H13       1.0  0.51226  0.49768  0.69043  1.0000
  H   H14       1.0  0.01228  0.00232  0.30957  1.0000
  H   H15       1.0  0.48775  0.50230  0.30957  1.0000
  H   H16       1.0  0.98776  0.99772  0.69043  1.0000
  H   H17       1.0  0.12526  0.61638  0.11615  1.0000
  H   H18       1.0  0.62527  0.88362  0.88384  1.0000
  H   H19       1.0  0.87473  0.38360  0.88384  1.0000
  H   H20       1.0  0.37473  0.11638  0.11617  1.0000
  H   H21       1.0  0.23937  0.44135  0.21241  1.0000
  H   H22       1.0  0.73937  0.05866  0.78759  1.0000
  H   H23       1.0  0.76062  0.55865  0.78758  1.0000
  H   H24       1.0  0.26063  0.94133  0.21242  1.0000
  H   H25       1.0  0.39086  0.42955  0.13600  1.0000
  H   H26       1.0  0.89087  0.07046  0.86400  1.0000
  H   H27       1.0  0.60913  0.57045  0.86400  1.0000
  H   H28       1.0  0.10914  0.92954  0.13601  1.0000
  C   C1        1.0  0.48576  0.30354  0.70873  1.0000
  C   C2        1.0  0.98578  0.19646  0.29127  1.0000
  C   C3        1.0  0.51424  0.69644  0.29127  1.0000
  C   C4        1.0  0.01423  0.80357  0.70873  1.0000
  C   C5        1.0  0.50704  0.18362  0.65933  1.0000
  C   C6        1.0  0.00706  0.31638  0.34067  1.0000
  C   C7        1.0  0.49296  0.81636  0.34069  1.0000
  C   C8        1.0  0.99295  0.68366  0.65931  1.0000
  C   C9        1.0  0.57689  0.16583  0.55712  1.0000
  C   C10       1.0  0.07692  0.33417  0.44289  1.0000
  C   C11       1.0  0.42310  0.83415  0.44290  1.0000
  C   C12       1.0  0.92310  0.66586  0.55710  1.0000
  C   C13       1.0  0.62622  0.26642  0.50378  1.0000
  C   C14       1.0  0.12625  0.23357  0.49622  1.0000
  C   C15       1.0  0.37377  0.73354  0.49623  1.0000
  C   C16       1.0  0.87378  0.76647  0.50377  1.0000
  C   C17       1.0  0.60386  0.38571  0.55218  1.0000
  C   C18       1.0  0.10389  0.11428  0.44781  1.0000
  C   C19       1.0  0.39613  0.61425  0.44782  1.0000
  C   C20       1.0  0.89614  0.88576  0.55218  1.0000
  C   C21       1.0  0.53266  0.40447  0.65367  1.0000
  C   C22       1.0  0.03268  0.09553  0.34633  1.0000
  C   C23       1.0  0.46734  0.59551  0.34633  1.0000
  C   C24       1.0  0.96735  0.90451  0.65367  1.0000
  S   S1        1.0  0.44803  0.04653  0.71673  1.0000
  S   S2        1.0  0.94804  0.45345  0.28328  1.0000
  S   S3        1.0  0.55197  0.95344  0.28329  1.0000
  S   S4        1.0  0.05195  0.54657  0.71671  1.0000
  O   O1        1.0  0.43407  0.50573  0.87360  1.0000
  O   O2        1.0  0.93408  0.99427  0.12640  1.0000
  O   O3        1.0  0.56592  0.49427  0.12639  1.0000
  O   O4        1.0  0.06592  0.00574  0.87361  1.0000
  O   O5        1.0  0.22941  0.30632  0.89824  1.0000
  O   O6        1.0  0.72942  0.19368  0.10176  1.0000
  O   O7        1.0  0.77058  0.69368  0.10176  1.0000
  O   O8        1.0  0.27058  0.80632  0.89824  1.0000
  O   O9        1.0  0.55706  0.29280  0.94507  1.0000
  O   O10       1.0  0.05706  0.20720  0.05493  1.0000
  O   O11       1.0  0.44293  0.70720  0.05494  1.0000
  O   O12       1.0  0.94292  0.79280  0.94506  1.0000
  O   O13       1.0  0.41104  0.09083  0.83175  1.0000
  O   O14       1.0  0.91104  0.40916  0.16825  1.0000
  O   O15       1.0  0.58895  0.90914  0.16826  1.0000
  O   O16       1.0  0.08892  0.59086  0.83174  1.0000
  O   O17       1.0  0.30965  0.99691  0.65814  1.0000
  O   O18       1.0  0.80965  0.50307  0.34186  1.0000
  O   O19       1.0  0.69037  0.00306  0.34187  1.0000
  O   O20       1.0  0.19035  0.49695  0.65814  1.0000
  O   O21       1.0  0.58886  0.96598  0.71194  1.0000
  O   O22       1.0  0.08885  0.53402  0.28806  1.0000
  O   O23       1.0  0.41115  0.03400  0.28808  1.0000
  O   O24       1.0  0.91113  0.46601  0.71191  1.0000
  O   O25       1.0  0.11498  0.58026  0.04174  1.0000
  O   O26       1.0  0.61498  0.91973  0.95826  1.0000
  O   O27       1.0  0.88501  0.41972  0.95825  1.0000
  O   O28       1.0  0.38502  0.08027  0.04175  1.0000
  O   O29       1.0  0.28636  0.38897  0.15127  1.0000
  O   O30       1.0  0.78637  0.11104  0.84874  1.0000
  O   O31       1.0  0.71362  0.61103  0.84873  1.0000
  O   O32       1.0  0.21364  0.88896  0.15127  1.0000
