data_image0
_chemical_formula_structural       Ba2H28C20O26
_chemical_formula_sum              "Ba2 H28 C20 O26"
_cell_length_a       6.59594
_cell_length_b       6.66233
_cell_length_c       19.1551
_cell_angle_alpha    90
_cell_angle_beta     90.0001
_cell_angle_gamma    116.155

_space_group_name_H-M_alt    "P 1"
_space_group_IT_number       1

loop_
  _space_group_symop_operation_xyz
  'x, y, z'

loop_
  _atom_site_type_symbol
  _atom_site_label
  _atom_site_symmetry_multiplicity
  _atom_site_fract_x
  _atom_site_fract_y
  _atom_site_fract_z
  _atom_site_occupancy
  Ba  Ba1       1.0  0.60432  0.41759  0.75000  1.0000
  Ba  Ba2       1.0  0.39568  0.58241  0.25000  1.0000
  H   H1        1.0  0.11758  0.57716  0.62246  1.0000
  H   H2        1.0  0.11757  0.57716  0.87754  1.0000
  H   H3        1.0  0.88242  0.42284  0.37754  1.0000
  H   H4        1.0  0.88242  0.42284  0.12246  1.0000
  H   H5        1.0  0.74180  0.88356  0.50494  1.0000
  H   H6        1.0  0.74180  0.88356  0.99506  1.0000
  H   H7        1.0  0.25820  0.11645  0.49506  1.0000
  H   H8        1.0  0.25820  0.11644  0.00494  1.0000
  H   H9        1.0  0.67447  0.03057  0.62713  1.0000
  H   H10       1.0  0.67447  0.03057  0.87287  1.0000
  H   H11       1.0  0.32553  0.96943  0.37287  1.0000
  H   H12       1.0  0.32553  0.96943  0.12713  1.0000
  H   H13       1.0  0.47084  0.08607  0.61406  1.0000
  H   H14       1.0  0.47084  0.08606  0.88594  1.0000
  H   H15       1.0  0.52916  0.91393  0.38594  1.0000
  H   H16       1.0  0.52916  0.91394  0.11406  1.0000
  H   H17       1.0  0.15022  0.53858  0.75000  1.0000
  H   H18       1.0  0.84978  0.46142  0.25000  1.0000
  H   H19       1.0  0.03830  0.27596  0.75000  1.0000
  H   H20       1.0  0.96170  0.72404  0.25000  1.0000
  H   H21       1.0  0.45428  0.84065  0.70921  1.0000
  H   H22       1.0  0.45428  0.84065  0.79079  1.0000
  H   H23       1.0  0.54572  0.15935  0.29079  1.0000
  H   H24       1.0  0.54572  0.15935  0.20921  1.0000
  H   H25       1.0  0.06832  0.97974  0.70983  1.0000
  H   H26       1.0  0.06832  0.97974  0.79017  1.0000
  H   H27       1.0  0.93168  0.02027  0.29017  1.0000
  H   H28       1.0  0.93168  0.02026  0.20983  1.0000
  C   C1        1.0  0.92626  0.63352  0.54129  1.0000
  C   C2        1.0  0.92626  0.63352  0.95871  1.0000
  C   C3        1.0  0.07374  0.36648  0.45871  1.0000
  C   C4        1.0  0.07374  0.36648  0.04129  1.0000
  C   C5        1.0  0.85659  0.58667  0.47064  1.0000
  C   C6        1.0  0.85658  0.58667  0.02936  1.0000
  C   C7        1.0  0.14342  0.41333  0.52936  1.0000
  C   C8        1.0  0.14341  0.41332  0.97064  1.0000
  C   C9        1.0  0.06671  0.54445  0.56804  1.0000
  C   C10       1.0  0.06670  0.54445  0.93196  1.0000
  C   C11       1.0  0.93329  0.45555  0.43196  1.0000
  C   C12       1.0  0.93329  0.45555  0.06804  1.0000
  C   C13       1.0  0.87261  0.77601  0.59286  1.0000
  C   C14       1.0  0.87261  0.77601  0.90714  1.0000
  C   C15       1.0  0.12739  0.22399  0.40714  1.0000
  C   C16       1.0  0.12739  0.22398  0.09286  1.0000
  C   C17       1.0  0.70520  0.65990  0.42953  1.0000
  C   C18       1.0  0.70519  0.65990  0.07047  1.0000
  C   C19       1.0  0.29480  0.34010  0.57047  1.0000
  C   C20       1.0  0.29480  0.34010  0.92953  1.0000
  O   O1        1.0  0.90266  0.75509  0.65674  1.0000
  O   O2        1.0  0.90266  0.75509  0.84326  1.0000
  O   O3        1.0  0.09734  0.24491  0.34326  1.0000
  O   O4        1.0  0.09734  0.24491  0.15674  1.0000
  O   O5        1.0  0.80795  0.92061  0.56996  1.0000
  O   O6        1.0  0.80795  0.92061  0.93004  1.0000
  O   O7        1.0  0.19205  0.07939  0.43004  1.0000
  O   O8        1.0  0.19205  0.07939  0.06996  1.0000
  O   O9        1.0  0.67023  0.82902  0.45213  1.0000
  O   O10       1.0  0.67023  0.82902  0.04787  1.0000
  O   O11       1.0  0.32977  0.17098  0.54787  1.0000
  O   O12       1.0  0.32977  0.17098  0.95213  1.0000
  O   O13       1.0  0.61850  0.56391  0.37428  1.0000
  O   O14       1.0  0.61850  0.56391  0.12572  1.0000
  O   O15       1.0  0.38150  0.43609  0.62572  1.0000
  O   O16       1.0  0.38150  0.43609  0.87428  1.0000
  O   O17       1.0  0.56301  0.06773  0.65188  1.0000
  O   O18       1.0  0.56301  0.06773  0.84812  1.0000
  O   O19       1.0  0.43699  0.93227  0.34812  1.0000
  O   O20       1.0  0.43700  0.93227  0.15188  1.0000
  O   O21       1.0  0.00067  0.40467  0.75000  1.0000
  O   O22       1.0  0.99933  0.59533  0.25000  1.0000
  O   O23       1.0  0.42339  0.73874  0.75000  1.0000
  O   O24       1.0  0.57661  0.26126  0.25000  1.0000
  O   O25       1.0  0.14399  0.07887  0.75000  1.0000
  O   O26       1.0  0.85601  0.92113  0.25000  1.0000
