data_image0
_chemical_formula_structural       Cd2H24C24N20
_chemical_formula_sum              "Cd2 H24 C24 N20"
_cell_length_a       7.62554
_cell_length_b       8.95857
_cell_length_c       13.9316
_cell_angle_alpha    79.2382
_cell_angle_beta     74.1162
_cell_angle_gamma    64.8273

_space_group_name_H-M_alt    "P 1"
_space_group_IT_number       1

loop_
  _space_group_symop_operation_xyz
  'x, y, z'

loop_
  _atom_site_type_symbol
  _atom_site_label
  _atom_site_symmetry_multiplicity
  _atom_site_fract_x
  _atom_site_fract_y
  _atom_site_fract_z
  _atom_site_occupancy
  Cd  Cd1       1.0  0.00000  0.50000  1.00000  1.0000
  Cd  Cd2       1.0  0.50000  0.00001  0.50000  1.0000
  H   H1        1.0  0.61573  0.38137  0.01184  1.0000
  H   H2        1.0  0.00859  0.11819  0.48844  1.0000
  H   H3        1.0  0.38428  0.61863  0.98815  1.0000
  H   H4        1.0  0.99141  0.88181  0.51156  1.0000
  H   H5        1.0  0.65715  0.13733  0.89995  1.0000
  H   H6        1.0  0.69412  0.36237  0.60018  1.0000
  H   H7        1.0  0.34285  0.86267  0.10005  1.0000
  H   H8        1.0  0.30588  0.63761  0.39982  1.0000
  H   H9        1.0  0.21974  0.14622  0.87268  1.0000
  H   H10       1.0  0.23825  0.35385  0.62735  1.0000
  H   H11       1.0  0.78026  0.85377  0.12732  1.0000
  H   H12       1.0  0.76175  0.64615  0.37266  1.0000
  H   H13       1.0  0.21431  0.94504  0.77408  1.0000
  H   H14       1.0  0.93323  0.55526  0.72570  1.0000
  H   H15       1.0  0.78569  0.05495  0.22592  1.0000
  H   H16       1.0  0.06677  0.44473  0.27430  1.0000
  H   H17       1.0  0.98638  0.00037  0.73859  1.0000
  H   H18       1.0  0.72499  0.50009  0.76135  1.0000
  H   H19       1.0  0.01362  0.99962  0.26141  1.0000
  H   H20       1.0  0.27501  0.49990  0.23866  1.0000
  H   H21       1.0  0.04470  0.85477  0.84475  1.0000
  H   H22       1.0  0.74415  0.64533  0.65499  1.0000
  H   H23       1.0  0.95530  0.14523  0.15525  1.0000
  H   H24       1.0  0.25585  0.35466  0.34502  1.0000
  C   C1        1.0  0.29175  0.51861  0.75988  1.0000
  C   C2        1.0  0.57005  0.98152  0.74011  1.0000
  C   C3        1.0  0.70824  0.48141  0.24011  1.0000
  C   C4        1.0  0.42995  0.01848  0.25988  1.0000
  C   C5        1.0  0.74766  0.29741  0.96583  1.0000
  C   C6        1.0  0.01054  0.20223  0.53441  1.0000
  C   C7        1.0  0.25235  0.70259  0.03417  1.0000
  C   C8        1.0  0.98947  0.79776  0.46559  1.0000
  C   C9        1.0  0.76559  0.17638  0.91160  1.0000
  C   C10       1.0  0.85320  0.32335  0.58856  1.0000
  C   C11       1.0  0.23441  0.82362  0.08840  1.0000
  C   C12       1.0  0.14679  0.67664  0.41144  1.0000
  C   C13       1.0  0.36439  0.67428  0.61653  1.0000
  C   C14       1.0  0.65500  0.82567  0.88341  1.0000
  C   C15       1.0  0.63560  0.32574  0.38346  1.0000
  C   C16       1.0  0.34500  0.17433  0.11658  1.0000
  C   C17       1.0  0.06053  0.18054  0.89526  1.0000
  C   C18       1.0  0.13594  0.31943  0.60481  1.0000
  C   C19       1.0  0.93947  0.81946  0.10474  1.0000
  C   C20       1.0  0.86405  0.68058  0.39519  1.0000
  C   C21       1.0  0.05725  0.96750  0.80259  1.0000
  C   C22       1.0  0.82710  0.53270  0.69728  1.0000
  C   C23       1.0  0.94275  0.03250  0.19741  1.0000
  C   C24       1.0  0.17290  0.46729  0.30273  1.0000
  N   N1        1.0  0.23352  0.48752  0.84552  1.0000
  N   N2        1.0  0.56637  0.01274  0.65449  1.0000
  N   N3        1.0  0.76648  0.51249  0.15447  1.0000
  N   N4        1.0  0.43365  0.98727  0.34551  1.0000
  N   N5        1.0  0.36048  0.53630  0.66427  1.0000
  N   N6        1.0  0.56095  0.96371  0.83572  1.0000
  N   N7        1.0  0.63952  0.46372  0.33572  1.0000
  N   N8        1.0  0.43905  0.03628  0.16428  1.0000
  N   N9        1.0  0.37411  0.79287  0.56608  1.0000
  N   N10       1.0  0.73288  0.70706  0.93383  1.0000
  N   N11       1.0  0.62588  0.20716  0.43391  1.0000
  N   N12       1.0  0.26712  0.29294  0.06617  1.0000
  N   N13       1.0  0.93238  0.29899  0.95483  1.0000
  N   N14       1.0  0.18584  0.20080  0.54535  1.0000
  N   N15       1.0  0.06763  0.70101  0.04517  1.0000
  N   N16       1.0  0.81416  0.79920  0.45466  1.0000
  N   N17       1.0  0.96515  0.10336  0.86728  1.0000
  N   N18       1.0  0.93543  0.39658  0.63278  1.0000
  N   N19       1.0  0.03485  0.89664  0.13272  1.0000
  N   N20       1.0  0.06456  0.60342  0.36723  1.0000
