data_image0
_chemical_formula_structural       Ba2H60C36N24O28
_chemical_formula_sum              "Ba2 H60 C36 N24 O28"
_cell_length_a       7.43075
_cell_length_b       7.70298
_cell_length_c       28.3056
_cell_angle_alpha    86.144
_cell_angle_beta     82.5316
_cell_angle_gamma    61.1627

_space_group_name_H-M_alt    "P 1"
_space_group_IT_number       1

loop_
  _space_group_symop_operation_xyz
  'x, y, z'

loop_
  _atom_site_type_symbol
  _atom_site_label
  _atom_site_symmetry_multiplicity
  _atom_site_fract_x
  _atom_site_fract_y
  _atom_site_fract_z
  _atom_site_occupancy
  Ba  Ba1       1.0  0.55671  0.24996  0.74997  1.0000
  Ba  Ba2       1.0  0.44329  0.75004  0.25002  1.0000
  H   H1        1.0  0.25958  0.12956  0.86777  1.0000
  H   H2        1.0  0.74240  0.62960  0.36775  1.0000
  H   H3        1.0  0.74041  0.87044  0.13223  1.0000
  H   H4        1.0  0.25760  0.37040  0.63225  1.0000
  H   H5        1.0  0.91251  0.05770  0.88823  1.0000
  H   H6        1.0  0.14067  0.55798  0.38841  1.0000
  H   H7        1.0  0.08749  0.94230  0.11177  1.0000
  H   H8        1.0  0.85933  0.44202  0.61158  1.0000
  H   H9        1.0  0.03649  0.07903  0.83214  1.0000
  H   H10       1.0  0.05145  0.57886  0.33227  1.0000
  H   H11       1.0  0.96350  0.92098  0.16786  1.0000
  H   H12       1.0  0.94854  0.42114  0.66773  1.0000
  H   H13       1.0  0.85116  0.52628  0.88915  1.0000
  H   H14       1.0  0.73318  0.02651  0.38926  1.0000
  H   H15       1.0  0.14884  0.47372  0.11085  1.0000
  H   H16       1.0  0.26682  0.97349  0.61074  1.0000
  H   H17       1.0  0.50603  0.78775  0.89428  1.0000
  H   H18       1.0  0.81191  0.28784  0.39437  1.0000
  H   H19       1.0  0.49397  0.21225  0.10572  1.0000
  H   H20       1.0  0.18809  0.71215  0.60563  1.0000
  H   H21       1.0  0.45179  0.67185  0.84971  1.0000
  H   H22       1.0  0.02657  0.17151  0.34990  1.0000
  H   H23       1.0  0.54821  0.32815  0.15029  1.0000
  H   H24       1.0  0.97343  0.82849  0.65010  1.0000
  H   H25       1.0  0.40338  0.26815  0.89170  1.0000
  H   H26       1.0  0.43614  0.76803  0.39158  1.0000
  H   H27       1.0  0.59662  0.73185  0.10830  1.0000
  H   H28       1.0  0.56385  0.23197  0.60842  1.0000
  H   H29       1.0  0.54917  0.02836  0.91753  1.0000
  H   H30       1.0  0.50458  0.52820  0.41740  1.0000
  H   H31       1.0  0.45083  0.97164  0.08247  1.0000
  H   H32       1.0  0.49542  0.47180  0.58261  1.0000
  H   H33       1.0  0.52109  0.24417  0.94415  1.0000
  H   H34       1.0  0.29022  0.74398  0.44399  1.0000
  H   H35       1.0  0.47891  0.75583  0.05585  1.0000
  H   H36       1.0  0.70978  0.25602  0.55601  1.0000
  H   H37       1.0  0.60875  0.27823  0.01931  1.0000
  H   H38       1.0  0.09321  0.77849  0.51945  1.0000
  H   H39       1.0  0.39125  0.72177  0.98069  1.0000
  H   H40       1.0  0.90679  0.22151  0.48055  1.0000
  H   H41       1.0  0.71045  0.32211  0.06916  1.0000
  H   H42       1.0  0.89819  0.82217  0.56928  1.0000
  H   H43       1.0  0.28955  0.67788  0.93084  1.0000
  H   H44       1.0  0.10182  0.17783  0.43072  1.0000
  H   H45       1.0  0.55030  0.96456  0.66308  1.0000
  H   H46       1.0  0.82176  0.46515  0.16315  1.0000
  H   H47       1.0  0.44971  0.03544  0.33692  1.0000
  H   H48       1.0  0.17824  0.53485  0.83685  1.0000
  H   H49       1.0  0.39417  0.94243  0.70109  1.0000
  H   H50       1.0  0.96248  0.44266  0.20115  1.0000
  H   H51       1.0  0.60583  0.05757  0.29890  1.0000
  H   H52       1.0  0.03752  0.55734  0.79885  1.0000
  H   H53       1.0  0.74982  0.59427  0.75431  1.0000
  H   H54       1.0  0.90169  0.09426  0.25426  1.0000
  H   H55       1.0  0.25018  0.40573  0.24569  1.0000
  H   H56       1.0  0.09832  0.90574  0.74574  1.0000
  H   H57       1.0  0.58399  0.61949  0.72172  1.0000
  H   H58       1.0  0.07465  0.11953  0.22170  1.0000
  H   H59       1.0  0.41601  0.38050  0.27828  1.0000
  H   H60       1.0  0.92535  0.88047  0.77830  1.0000
  C   C1        1.0  0.09905  0.20060  0.93615  1.0000
  C   C2        1.0  0.76365  0.70062  0.43617  1.0000
  C   C3        1.0  0.90095  0.79940  0.06385  1.0000
  C   C4        1.0  0.23635  0.29938  0.56383  1.0000
  C   C5        1.0  0.96551  0.15202  0.86679  1.0000
  C   C6        1.0  0.01484  0.65215  0.36689  1.0000
  C   C7        1.0  0.03448  0.84799  0.13321  1.0000
  C   C8        1.0  0.98516  0.34785  0.63311  1.0000
  C   C9        1.0  0.77157  0.34268  0.85665  1.0000
  C   C10       1.0  0.02840  0.84268  0.35669  1.0000
  C   C11       1.0  0.22842  0.65732  0.14335  1.0000
  C   C12       1.0  0.97160  0.15732  0.64331  1.0000
  C   C13       1.0  0.56968  0.70236  0.86115  1.0000
  C   C14       1.0  0.86673  0.20227  0.36128  1.0000
  C   C15       1.0  0.43032  0.29764  0.13885  1.0000
  C   C16       1.0  0.13327  0.79774  0.63872  1.0000
  C   C17       1.0  0.61142  0.83265  0.82278  1.0000
  C   C18       1.0  0.73337  0.33239  0.32280  1.0000
  C   C19       1.0  0.38857  0.16735  0.17722  1.0000
  C   C20       1.0  0.26664  0.66762  0.67720  1.0000
  C   C21       1.0  0.44365  0.18553  0.92501  1.0000
  C   C22       1.0  0.44530  0.68541  0.42488  1.0000
  C   C23       1.0  0.55635  0.81447  0.07499  1.0000
  C   C24       1.0  0.55470  0.31459  0.57512  1.0000
  C   C25       1.0  0.24183  0.24570  0.00378  1.0000
  C   C26       1.0  0.50833  0.74570  0.50371  1.0000
  C   C27       1.0  0.75817  0.75430  0.99622  1.0000
  C   C28       1.0  0.49167  0.25430  0.49629  1.0000
  C   C29       1.0  0.04868  0.28060  0.03199  1.0000
  C   C30       1.0  0.63851  0.78048  0.53200  1.0000
  C   C31       1.0  0.95132  0.71940  0.96801  1.0000
  C   C32       1.0  0.36149  0.21952  0.46800  1.0000
  C   C33       1.0  0.89657  0.26259  0.00845  1.0000
  C   C34       1.0  0.83207  0.76249  0.50853  1.0000
  C   C35       1.0  0.10343  0.73740  0.99155  1.0000
  C   C36       1.0  0.16793  0.23750  0.49147  1.0000
  N   N1        1.0  0.92556  0.22304  0.96186  1.0000
  N   N2        1.0  0.88902  0.72305  0.46195  1.0000
  N   N3        1.0  0.07444  0.77696  0.03814  1.0000
  N   N4        1.0  0.11098  0.27696  0.53805  1.0000
  N   N5        1.0  0.12115  0.16870  0.88931  1.0000
  N   N6        1.0  0.82005  0.66898  0.38933  1.0000
  N   N7        1.0  0.87884  0.83130  0.11069  1.0000
  N   N8        1.0  0.17995  0.33103  0.61066  1.0000
  N   N9        1.0  0.74779  0.51655  0.87018  1.0000
  N   N10       1.0  0.86516  0.01661  0.37031  1.0000
  N   N11       1.0  0.25221  0.48345  0.12982  1.0000
  N   N12       1.0  0.13484  0.98339  0.62969  1.0000
  N   N13       1.0  0.25713  0.21016  0.95518  1.0000
  N   N14       1.0  0.57707  0.71010  0.45513  1.0000
  N   N15       1.0  0.74287  0.78984  0.04482  1.0000
  N   N16       1.0  0.42294  0.28990  0.54487  1.0000
  N   N17       1.0  0.02801  0.33426  0.07753  1.0000
  N   N18       1.0  0.56018  0.83414  0.57753  1.0000
  N   N19       1.0  0.97199  0.66573  0.92247  1.0000
  N   N20       1.0  0.43982  0.16587  0.42247  1.0000
  N   N21       1.0  0.72245  0.28890  0.03390  1.0000
  N   N22       1.0  0.95450  0.78889  0.53403  1.0000
  N   N23       1.0  0.27755  0.71110  0.96610  1.0000
  N   N24       1.0  0.04550  0.21111  0.46597  1.0000
  O   O1        1.0  0.64018  0.32840  0.83613  1.0000
  O   O2        1.0  0.19435  0.82825  0.33612  1.0000
  O   O3        1.0  0.35982  0.67161  0.16387  1.0000
  O   O4        1.0  0.80565  0.17174  0.66388  1.0000
  O   O5        1.0  0.77639  0.75417  0.79381  1.0000
  O   O6        1.0  0.67600  0.25379  0.29375  1.0000
  O   O7        1.0  0.22361  0.24583  0.20619  1.0000
  O   O8        1.0  0.32400  0.74622  0.70624  1.0000
  O   O9        1.0  0.47424  0.01278  0.82178  1.0000
  O   O10       1.0  0.69145  0.51251  0.32180  1.0000
  O   O11       1.0  0.52575  0.98722  0.17822  1.0000
  O   O12       1.0  0.30855  0.48749  0.67820  1.0000
  O   O13       1.0  0.38656  0.24782  0.02073  1.0000
  O   O14       1.0  0.34449  0.74803  0.52059  1.0000
  O   O15       1.0  0.61344  0.75218  0.97927  1.0000
  O   O16       1.0  0.65551  0.25197  0.47941  1.0000
  O   O17       1.0  0.86231  0.36267  0.10469  1.0000
  O   O18       1.0  0.67039  0.86260  0.60474  1.0000
  O   O19       1.0  0.13770  0.63733  0.89531  1.0000
  O   O20       1.0  0.32961  0.13740  0.39526  1.0000
  O   O21       1.0  0.47255  0.01619  0.69460  1.0000
  O   O22       1.0  0.81675  0.51665  0.19467  1.0000
  O   O23       1.0  0.52745  0.98381  0.30540  1.0000
  O   O24       1.0  0.18324  0.48335  0.80533  1.0000
  O   O25       1.0  0.71653  0.52029  0.73296  1.0000
  O   O26       1.0  0.03021  0.02031  0.23295  1.0000
  O   O27       1.0  0.28347  0.47971  0.26704  1.0000
  O   O28       1.0  0.96979  0.97969  0.76705  1.0000
