data_image0
_chemical_formula_structural       Sr2H60C36N24O28
_chemical_formula_sum              "Sr2 H60 C36 N24 O28"
_cell_length_a       7.52363
_cell_length_b       7.54156
_cell_length_c       26.5416
_cell_angle_alpha    83.7558
_cell_angle_beta     83.7408
_cell_angle_gamma    61.5502

_space_group_name_H-M_alt    "P 1"
_space_group_IT_number       1

loop_
  _space_group_symop_operation_xyz
  'x, y, z'

loop_
  _atom_site_type_symbol
  _atom_site_label
  _atom_site_symmetry_multiplicity
  _atom_site_fract_x
  _atom_site_fract_y
  _atom_site_fract_z
  _atom_site_occupancy
  Sr  Sr1       1.0  0.24685  0.75313  0.74988  1.0000
  Sr  Sr2       1.0  0.75314  0.24688  0.25012  1.0000
  H   H1        1.0  0.87951  0.89581  0.86145  1.0000
  H   H2        1.0  0.89530  0.88029  0.36147  1.0000
  H   H3        1.0  0.12049  0.10419  0.13856  1.0000
  H   H4        1.0  0.10470  0.11972  0.63853  1.0000
  H   H5        1.0  0.59580  0.97679  0.82513  1.0000
  H   H6        1.0  0.97712  0.59728  0.32513  1.0000
  H   H7        1.0  0.40420  0.02321  0.17487  1.0000
  H   H8        1.0  0.02288  0.40272  0.67487  1.0000
  H   H9        1.0  0.46477  0.97986  0.88513  1.0000
  H   H10       1.0  0.98126  0.46613  0.38511  1.0000
  H   H11       1.0  0.53523  0.02014  0.11487  1.0000
  H   H12       1.0  0.01874  0.53387  0.61489  1.0000
  H   H13       1.0  0.85674  0.50349  0.88094  1.0000
  H   H14       1.0  0.50321  0.85664  0.38089  1.0000
  H   H15       1.0  0.14326  0.49652  0.11906  1.0000
  H   H16       1.0  0.49679  0.14336  0.61911  1.0000
  H   H17       1.0  0.59800  0.37035  0.83657  1.0000
  H   H18       1.0  0.37022  0.59846  0.33629  1.0000
  H   H19       1.0  0.40201  0.62965  0.16343  1.0000
  H   H20       1.0  0.62978  0.40154  0.66371  1.0000
  H   H21       1.0  0.77299  0.23523  0.88491  1.0000
  H   H22       1.0  0.23444  0.77217  0.38481  1.0000
  H   H23       1.0  0.22701  0.76477  0.11509  1.0000
  H   H24       1.0  0.76556  0.22783  0.61519  1.0000
  H   H25       1.0  0.07132  0.98038  0.90715  1.0000
  H   H26       1.0  0.98081  0.07113  0.40728  1.0000
  H   H27       1.0  0.92868  0.01962  0.09285  1.0000
  H   H28       1.0  0.01919  0.92887  0.59272  1.0000
  H   H29       1.0  0.17275  0.72692  0.88875  1.0000
  H   H30       1.0  0.72686  0.17214  0.38881  1.0000
  H   H31       1.0  0.82725  0.27308  0.11125  1.0000
  H   H32       1.0  0.27314  0.82787  0.61119  1.0000
  H   H33       1.0  0.25888  0.77529  0.94293  1.0000
  H   H34       1.0  0.77489  0.25831  0.44302  1.0000
  H   H35       1.0  0.74112  0.22471  0.05707  1.0000
  H   H36       1.0  0.22511  0.74169  0.55698  1.0000
  H   H37       1.0  0.41086  0.71272  0.02391  1.0000
  H   H38       1.0  0.71267  0.41207  0.52384  1.0000
  H   H39       1.0  0.58914  0.28728  0.97609  1.0000
  H   H40       1.0  0.28733  0.58793  0.47616  1.0000
  H   H41       1.0  0.55878  0.66578  0.07761  1.0000
  H   H42       1.0  0.66586  0.55916  0.57763  1.0000
  H   H43       1.0  0.44122  0.33422  0.92239  1.0000
  H   H44       1.0  0.33415  0.44083  0.42237  1.0000
  H   H45       1.0  0.74923  0.51487  0.73519  1.0000
  H   H46       1.0  0.51539  0.74832  0.23533  1.0000
  H   H47       1.0  0.25078  0.48513  0.26481  1.0000
  H   H48       1.0  0.48461  0.25168  0.76467  1.0000
  H   H49       1.0  0.66149  0.67553  0.68726  1.0000
  H   H50       1.0  0.67635  0.66026  0.18744  1.0000
  H   H51       1.0  0.33851  0.32448  0.31274  1.0000
  H   H52       1.0  0.32364  0.33975  0.81256  1.0000
  H   H53       1.0  0.18991  0.16737  0.74143  1.0000
  H   H54       1.0  0.16831  0.18989  0.24155  1.0000
  H   H55       1.0  0.81009  0.83263  0.25857  1.0000
  H   H56       1.0  0.83169  0.81012  0.75845  1.0000
  H   H57       1.0  0.42884  0.06255  0.72310  1.0000
  H   H58       1.0  0.06305  0.42827  0.22321  1.0000
  H   H59       1.0  0.57116  0.93745  0.27690  1.0000
  H   H60       1.0  0.93695  0.57173  0.77679  1.0000
  C   C1        1.0  0.80098  0.81289  0.93478  1.0000
  C   C2        1.0  0.81283  0.80150  0.43484  1.0000
  C   C3        1.0  0.19902  0.18711  0.06522  1.0000
  C   C4        1.0  0.18717  0.19850  0.56516  1.0000
  C   C5        1.0  0.60166  0.89033  0.86143  1.0000
  C   C6        1.0  0.89085  0.60259  0.36147  1.0000
  C   C7        1.0  0.39834  0.10967  0.13857  1.0000
  C   C8        1.0  0.10915  0.39741  0.63853  1.0000
  C   C9        1.0  0.58798  0.70442  0.84911  1.0000
  C   C10       1.0  0.70486  0.58816  0.34924  1.0000
  C   C11       1.0  0.41202  0.29558  0.15089  1.0000
  C   C12       1.0  0.29514  0.41184  0.65076  1.0000
  C   C13       1.0  0.74450  0.33614  0.85037  1.0000
  C   C14       1.0  0.33575  0.74439  0.35030  1.0000
  C   C15       1.0  0.25551  0.66386  0.14963  1.0000
  C   C16       1.0  0.66425  0.25561  0.64970  1.0000
  C   C17       1.0  0.90737  0.22382  0.80885  1.0000
  C   C18       1.0  0.22335  0.90746  0.30891  1.0000
  C   C19       1.0  0.09264  0.77619  0.19115  1.0000
  C   C20       1.0  0.77665  0.09254  0.69109  1.0000
  C   C21       1.0  0.12746  0.82178  0.92095  1.0000
  C   C22       1.0  0.82175  0.12713  0.42104  1.0000
  C   C23       1.0  0.87254  0.17822  0.07905  1.0000
  C   C24       1.0  0.17825  0.87288  0.57896  1.0000
  C   C25       1.0  0.00084  0.75324  0.00653  1.0000
  C   C26       1.0  0.75288  0.00095  0.50662  1.0000
  C   C27       1.0  0.99916  0.24676  0.99347  1.0000
  C   C28       1.0  0.24712  0.99905  0.49338  1.0000
  C   C29       1.0  0.84566  0.71824  0.03731  1.0000
  C   C30       1.0  0.71824  0.84581  0.53739  1.0000
  C   C31       1.0  0.15434  0.28176  0.96269  1.0000
  C   C32       1.0  0.28176  0.15418  0.46261  1.0000
  C   C33       1.0  0.67509  0.73611  0.01227  1.0000
  C   C34       1.0  0.73620  0.67563  0.51232  1.0000
  C   C35       1.0  0.32490  0.26389  0.98773  1.0000
  C   C36       1.0  0.26380  0.32437  0.48768  1.0000
  N   N1        1.0  0.65620  0.78506  0.96240  1.0000
  N   N2        1.0  0.78511  0.65693  0.46245  1.0000
  N   N3        1.0  0.34379  0.21494  0.03760  1.0000
  N   N4        1.0  0.21489  0.34307  0.53755  1.0000
  N   N5        1.0  0.78067  0.85897  0.88484  1.0000
  N   N6        1.0  0.85880  0.78140  0.38488  1.0000
  N   N7        1.0  0.21932  0.14104  0.11516  1.0000
  N   N8        1.0  0.14120  0.21859  0.61512  1.0000
  N   N9        1.0  0.73637  0.52176  0.86225  1.0000
  N   N10       1.0  0.52165  0.73629  0.36228  1.0000
  N   N11       1.0  0.26362  0.47824  0.13775  1.0000
  N   N12       1.0  0.47835  0.26371  0.63772  1.0000
  N   N13       1.0  0.97273  0.79462  0.95438  1.0000
  N   N14       1.0  0.79445  0.97283  0.45446  1.0000
  N   N15       1.0  0.02727  0.20538  0.04562  1.0000
  N   N16       1.0  0.20555  0.02717  0.54554  1.0000
  N   N17       1.0  0.87993  0.66867  0.08693  1.0000
  N   N18       1.0  0.66878  0.87981  0.58702  1.0000
  N   N19       1.0  0.12007  0.33133  0.91307  1.0000
  N   N20       1.0  0.33122  0.12019  0.41298  1.0000
  N   N21       1.0  0.53519  0.70056  0.03956  1.0000
  N   N22       1.0  0.70069  0.53585  0.53957  1.0000
  N   N23       1.0  0.46481  0.29943  0.96044  1.0000
  N   N24       1.0  0.29931  0.46414  0.46043  1.0000
  O   O1        1.0  0.43615  0.73365  0.82739  1.0000
  O   O2        1.0  0.73452  0.43624  0.32765  1.0000
  O   O3        1.0  0.56385  0.26635  0.17261  1.0000
  O   O4        1.0  0.26548  0.56376  0.67236  1.0000
  O   O5        1.0  0.95702  0.32730  0.77410  1.0000
  O   O6        1.0  0.32730  0.95669  0.27415  1.0000
  O   O7        1.0  0.04298  0.67270  0.22590  1.0000
  O   O8        1.0  0.67270  0.04332  0.72585  1.0000
  O   O9        1.0  0.97837  0.03419  0.81117  1.0000
  O   O10       1.0  0.03317  0.97914  0.31131  1.0000
  O   O11       1.0  0.02163  0.96581  0.18883  1.0000
  O   O12       1.0  0.96683  0.02086  0.68869  1.0000
  O   O13       1.0  0.15020  0.74707  0.02398  1.0000
  O   O14       1.0  0.74630  0.15021  0.52406  1.0000
  O   O15       1.0  0.84980  0.25292  0.97602  1.0000
  O   O16       1.0  0.25370  0.84979  0.47594  1.0000
  O   O17       1.0  0.74687  0.64012  0.11665  1.0000
  O   O18       1.0  0.64049  0.74681  0.61671  1.0000
  O   O19       1.0  0.25313  0.35987  0.88335  1.0000
  O   O20       1.0  0.35951  0.25319  0.38329  1.0000
  O   O21       1.0  0.62654  0.60787  0.71748  1.0000
  O   O22       1.0  0.60835  0.62571  0.21767  1.0000
  O   O23       1.0  0.37345  0.39213  0.28252  1.0000
  O   O24       1.0  0.39164  0.37430  0.78233  1.0000
  O   O25       1.0  0.30089  0.05638  0.72240  1.0000
  O   O26       1.0  0.05722  0.30048  0.22248  1.0000
  O   O27       1.0  0.69912  0.94362  0.27760  1.0000
  O   O28       1.0  0.94278  0.69953  0.77752  1.0000
