data_image0
_chemical_formula_structural       Cd4H32C24S8N24
_chemical_formula_sum              "Cd4 H32 C24 S8 N24"
_cell_length_a       8.13488
_cell_length_b       10.1748
_cell_length_c       13.0661
_cell_angle_alpha    90.0001
_cell_angle_beta     90.0005
_cell_angle_gamma    90

_space_group_name_H-M_alt    "P 1"
_space_group_IT_number       1

loop_
  _space_group_symop_operation_xyz
  'x, y, z'

loop_
  _atom_site_type_symbol
  _atom_site_label
  _atom_site_symmetry_multiplicity
  _atom_site_fract_x
  _atom_site_fract_y
  _atom_site_fract_z
  _atom_site_occupancy
  Cd  Cd1       1.0  0.75000  0.41375  0.50000  1.0000
  Cd  Cd2       1.0  0.25000  0.08625  0.00000  1.0000
  Cd  Cd3       1.0  0.25000  0.58625  0.50000  1.0000
  Cd  Cd4       1.0  0.75000  0.91375  0.00000  1.0000
  H   H1        1.0  0.35151  0.00767  0.58559  1.0000
  H   H2        1.0  0.85153  0.49233  0.91441  1.0000
  H   H3        1.0  0.14849  0.00767  0.41441  1.0000
  H   H4        1.0  0.64847  0.49233  0.08559  1.0000
  H   H5        1.0  0.64847  0.99233  0.41441  1.0000
  H   H6        1.0  0.14847  0.50767  0.08559  1.0000
  H   H7        1.0  0.85153  0.99233  0.58560  1.0000
  H   H8        1.0  0.35153  0.50767  0.91440  1.0000
  H   H9        1.0  0.11633  0.11107  0.68532  1.0000
  H   H10       1.0  0.61633  0.38893  0.81468  1.0000
  H   H11       1.0  0.38367  0.11107  0.31468  1.0000
  H   H12       1.0  0.88367  0.38893  0.18532  1.0000
  H   H13       1.0  0.88367  0.88893  0.31468  1.0000
  H   H14       1.0  0.38367  0.61107  0.18532  1.0000
  H   H15       1.0  0.61633  0.88893  0.68532  1.0000
  H   H16       1.0  0.11633  0.61107  0.81468  1.0000
  H   H17       1.0  0.07571  0.27686  0.64432  1.0000
  H   H18       1.0  0.57572  0.22314  0.85568  1.0000
  H   H19       1.0  0.42429  0.27686  0.35568  1.0000
  H   H20       1.0  0.92428  0.22314  0.14432  1.0000
  H   H21       1.0  0.92428  0.72314  0.35568  1.0000
  H   H22       1.0  0.42428  0.77686  0.14432  1.0000
  H   H23       1.0  0.57572  0.72314  0.64432  1.0000
  H   H24       1.0  0.07572  0.77685  0.85568  1.0000
  H   H25       1.0  0.18214  0.24765  0.76127  1.0000
  H   H26       1.0  0.68214  0.25236  0.73873  1.0000
  H   H27       1.0  0.31786  0.24765  0.23873  1.0000
  H   H28       1.0  0.81785  0.25236  0.26127  1.0000
  H   H29       1.0  0.81785  0.75236  0.23873  1.0000
  H   H30       1.0  0.31786  0.74765  0.26127  1.0000
  H   H31       1.0  0.68214  0.75236  0.76127  1.0000
  H   H32       1.0  0.18214  0.74764  0.73873  1.0000
  C   C1        1.0  0.41626  0.32060  0.61011  1.0000
  C   C2        1.0  0.91626  0.17940  0.88989  1.0000
  C   C3        1.0  0.08374  0.32060  0.38989  1.0000
  C   C4        1.0  0.58374  0.17940  0.11010  1.0000
  C   C5        1.0  0.58374  0.67940  0.38990  1.0000
  C   C6        1.0  0.08373  0.82060  0.11011  1.0000
  C   C7        1.0  0.91626  0.67940  0.61011  1.0000
  C   C8        1.0  0.41626  0.82060  0.88989  1.0000
  C   C9        1.0  0.39932  0.10725  0.58648  1.0000
  C   C10       1.0  0.89933  0.39274  0.91352  1.0000
  C   C11       1.0  0.10068  0.10725  0.41352  1.0000
  C   C12       1.0  0.60067  0.39274  0.08648  1.0000
  C   C13       1.0  0.60067  0.89275  0.41352  1.0000
  C   C14       1.0  0.10067  0.60726  0.08648  1.0000
  C   C15       1.0  0.89934  0.89274  0.58649  1.0000
  C   C16       1.0  0.39933  0.60726  0.91352  1.0000
  C   C17       1.0  0.16344  0.21180  0.68302  1.0000
  C   C18       1.0  0.66344  0.28820  0.81698  1.0000
  C   C19       1.0  0.33657  0.21180  0.31698  1.0000
  C   C20       1.0  0.83656  0.28820  0.18302  1.0000
  C   C21       1.0  0.83656  0.78820  0.31698  1.0000
  C   C22       1.0  0.33656  0.71180  0.18302  1.0000
  C   C23       1.0  0.66344  0.78820  0.68302  1.0000
  C   C24       1.0  0.16344  0.71180  0.81698  1.0000
  S   S1        1.0  0.37649  0.47651  0.65398  1.0000
  S   S2        1.0  0.87648  0.02348  0.84602  1.0000
  S   S3        1.0  0.12351  0.47651  0.34601  1.0000
  S   S4        1.0  0.62351  0.02349  0.15398  1.0000
  S   S5        1.0  0.62351  0.52349  0.34601  1.0000
  S   S6        1.0  0.12351  0.97652  0.15399  1.0000
  S   S7        1.0  0.87649  0.52348  0.65398  1.0000
  S   S8        1.0  0.37649  0.97651  0.84601  1.0000
  N   N1        1.0  0.31926  0.21228  0.62849  1.0000
  N   N2        1.0  0.81926  0.28772  0.87151  1.0000
  N   N3        1.0  0.18075  0.21228  0.37152  1.0000
  N   N4        1.0  0.68074  0.28772  0.12849  1.0000
  N   N5        1.0  0.68074  0.78772  0.37151  1.0000
  N   N6        1.0  0.18074  0.71228  0.12849  1.0000
  N   N7        1.0  0.81926  0.78772  0.62849  1.0000
  N   N8        1.0  0.31926  0.71228  0.87151  1.0000
  N   N9        1.0  0.54933  0.27842  0.55894  1.0000
  N   N10       1.0  0.04933  0.22157  0.94106  1.0000
  N   N11       1.0  0.95067  0.27842  0.44106  1.0000
  N   N12       1.0  0.45067  0.22157  0.05894  1.0000
  N   N13       1.0  0.45067  0.72158  0.44106  1.0000
  N   N14       1.0  0.95067  0.77842  0.05894  1.0000
  N   N15       1.0  0.04933  0.72158  0.55894  1.0000
  N   N16       1.0  0.54933  0.77842  0.94106  1.0000
  N   N17       1.0  0.53858  0.14470  0.54369  1.0000
  N   N18       1.0  0.03859  0.35529  0.95630  1.0000
  N   N19       1.0  0.96142  0.14470  0.45631  1.0000
  N   N20       1.0  0.46141  0.35529  0.04370  1.0000
  N   N21       1.0  0.46141  0.85529  0.45630  1.0000
  N   N22       1.0  0.96141  0.64471  0.04370  1.0000
  N   N23       1.0  0.03859  0.85529  0.54370  1.0000
  N   N24       1.0  0.53859  0.64471  0.95630  1.0000
