data_image0
_chemical_formula_structural       Cd4H16C12S4I4N12
_chemical_formula_sum              "Cd4 H16 C12 S4 I4 N12"
_cell_length_a       6.99944
_cell_length_b       10.1435
_cell_length_c       11.3899
_cell_angle_alpha    89.9996
_cell_angle_beta     94.6647
_cell_angle_gamma    90.0002

_space_group_name_H-M_alt    "P 1"
_space_group_IT_number       1

loop_
  _space_group_symop_operation_xyz
  'x, y, z'

loop_
  _atom_site_type_symbol
  _atom_site_label
  _atom_site_symmetry_multiplicity
  _atom_site_fract_x
  _atom_site_fract_y
  _atom_site_fract_z
  _atom_site_occupancy
  Cd  Cd1       1.0  0.25824  0.06677  0.59659  1.0000
  Cd  Cd2       1.0  0.24176  0.56678  0.90341  1.0000
  Cd  Cd3       1.0  0.74175  0.93322  0.40341  1.0000
  Cd  Cd4       1.0  0.75824  0.43323  0.09659  1.0000
  H   H1        1.0  0.99529  0.30007  0.71889  1.0000
  H   H2        1.0  0.50472  0.80009  0.78111  1.0000
  H   H3        1.0  0.00470  0.69992  0.28110  1.0000
  H   H4        1.0  0.49529  0.19992  0.21890  1.0000
  H   H5        1.0  0.70272  0.44050  0.73864  1.0000
  H   H6        1.0  0.79729  0.94052  0.76136  1.0000
  H   H7        1.0  0.29727  0.55949  0.26136  1.0000
  H   H8        1.0  0.20272  0.05949  0.23864  1.0000
  H   H9        1.0  0.47835  0.36508  0.68807  1.0000
  H   H10       1.0  0.02166  0.86509  0.81193  1.0000
  H   H11       1.0  0.52164  0.63491  0.31193  1.0000
  H   H12       1.0  0.97835  0.13491  0.18808  1.0000
  H   H13       1.0  0.59459  0.47644  0.59460  1.0000
  H   H14       1.0  0.90542  0.97644  0.90539  1.0000
  H   H15       1.0  0.40540  0.52356  0.40539  1.0000
  H   H16       1.0  0.09460  0.02356  0.09461  1.0000
  C   C1        1.0  0.65281  0.20370  0.52966  1.0000
  C   C2        1.0  0.84719  0.70371  0.97033  1.0000
  C   C3        1.0  0.34717  0.79629  0.47034  1.0000
  C   C4        1.0  0.15282  0.29630  0.02967  1.0000
  C   C5        1.0  0.90328  0.25146  0.65095  1.0000
  C   C6        1.0  0.59672  0.75147  0.84905  1.0000
  C   C7        1.0  0.09671  0.74854  0.34905  1.0000
  C   C8        1.0  0.40329  0.24854  0.15096  1.0000
  C   C9        1.0  0.61711  0.40000  0.66245  1.0000
  C   C10       1.0  0.88291  0.90001  0.83755  1.0000
  C   C11       1.0  0.38289  0.59999  0.33755  1.0000
  C   C12       1.0  0.11711  0.10000  0.16245  1.0000
  S   S1        1.0  0.43049  0.21065  0.45484  1.0000
  S   S2        1.0  0.06952  0.71065  0.04516  1.0000
  S   S3        1.0  0.56950  0.78935  0.54517  1.0000
  S   S4        1.0  0.93050  0.28935  0.95484  1.0000
  I   I1        1.0  0.39498  0.08714  0.82623  1.0000
  I   I2        1.0  0.10502  0.58712  0.67376  1.0000
  I   I3        1.0  0.60501  0.91286  0.17376  1.0000
  I   I4        1.0  0.89498  0.41288  0.32624  1.0000
  N   N1        1.0  0.94900  0.14736  0.58947  1.0000
  N   N2        1.0  0.55100  0.64738  0.91052  1.0000
  N   N3        1.0  0.05099  0.85262  0.41052  1.0000
  N   N4        1.0  0.44900  0.35263  0.08948  1.0000
  N   N5        1.0  0.79278  0.11727  0.51298  1.0000
  N   N6        1.0  0.70722  0.61727  0.98701  1.0000
  N   N7        1.0  0.20721  0.88273  0.48702  1.0000
  N   N8        1.0  0.29279  0.38273  0.01299  1.0000
  N   N9        1.0  0.72140  0.28942  0.61712  1.0000
  N   N10       1.0  0.77861  0.78944  0.88288  1.0000
  N   N11       1.0  0.27860  0.71057  0.38288  1.0000
  N   N12       1.0  0.22140  0.21057  0.11712  1.0000
