data_image0
_chemical_formula_structural       Cd4H16C12S4Br4N12
_chemical_formula_sum              "Cd4 H16 C12 S4 Br4 N12"
_cell_length_a       7.01808
_cell_length_b       9.93225
_cell_length_c       11.6244
_cell_angle_alpha    115.555
_cell_angle_beta     89.999
_cell_angle_gamma    90.0002

_space_group_name_H-M_alt    "P 1"
_space_group_IT_number       1

loop_
  _space_group_symop_operation_xyz
  'x, y, z'

loop_
  _atom_site_type_symbol
  _atom_site_label
  _atom_site_symmetry_multiplicity
  _atom_site_fract_x
  _atom_site_fract_y
  _atom_site_fract_z
  _atom_site_occupancy
  Cd  Cd1       1.0  0.24470  0.03460  0.62093  1.0000
  Cd  Cd2       1.0  0.74469  0.46539  0.37908  1.0000
  Cd  Cd3       1.0  0.75531  0.96539  0.37907  1.0000
  Cd  Cd4       1.0  0.25530  0.53461  0.62092  1.0000
  H   H1        1.0  0.51400  0.29196  0.87109  1.0000
  H   H2        1.0  0.01401  0.20805  0.12891  1.0000
  H   H3        1.0  0.48601  0.70804  0.12891  1.0000
  H   H4        1.0  0.98601  0.79195  0.87109  1.0000
  H   H5        1.0  0.02060  0.42179  0.83192  1.0000
  H   H6        1.0  0.52061  0.07822  0.16808  1.0000
  H   H7        1.0  0.97939  0.57823  0.16809  1.0000
  H   H8        1.0  0.47939  0.92178  0.83192  1.0000
  H   H9        1.0  0.89277  0.39204  0.95263  1.0000
  H   H10       1.0  0.39278  0.10796  0.04736  1.0000
  H   H11       1.0  0.10721  0.60796  0.04736  1.0000
  H   H12       1.0  0.60722  0.89204  0.95264  1.0000
  H   H13       1.0  0.80276  0.52165  0.89618  1.0000
  H   H14       1.0  0.30276  0.97835  0.10382  1.0000
  H   H15       1.0  0.19723  0.47835  0.10382  1.0000
  H   H16       1.0  0.69723  0.02165  0.89618  1.0000
  C   C1        1.0  0.82951  0.21044  0.64754  1.0000
  C   C2        1.0  0.32951  0.28956  0.35246  1.0000
  C   C3        1.0  0.17050  0.78956  0.35247  1.0000
  C   C4        1.0  0.67050  0.71044  0.64754  1.0000
  C   C5        1.0  0.59697  0.24683  0.78383  1.0000
  C   C6        1.0  0.09698  0.25317  0.21617  1.0000
  C   C7        1.0  0.40303  0.75316  0.21617  1.0000
  C   C8        1.0  0.90302  0.74683  0.78383  1.0000
  C   C9        1.0  0.87929  0.41597  0.86952  1.0000
  C   C10       1.0  0.37929  0.08404  0.13048  1.0000
  C   C11       1.0  0.12071  0.58404  0.13048  1.0000
  C   C12       1.0  0.62071  0.91596  0.86952  1.0000
  S   S1        1.0  0.03354  0.22107  0.57077  1.0000
  S   S2        1.0  0.53353  0.27893  0.42923  1.0000
  S   S3        1.0  0.96646  0.77893  0.42923  1.0000
  S   S4        1.0  0.46646  0.72108  0.57077  1.0000
  Br  Br1       1.0  0.12097  0.07667  0.84442  1.0000
  Br  Br2       1.0  0.62096  0.42330  0.15557  1.0000
  Br  Br3       1.0  0.87905  0.92330  0.15557  1.0000
  Br  Br4       1.0  0.37904  0.57670  0.84443  1.0000
  N   N1        1.0  0.54435  0.13685  0.67474  1.0000
  N   N2        1.0  0.04437  0.36317  0.32527  1.0000
  N   N3        1.0  0.45565  0.86315  0.32526  1.0000
  N   N4        1.0  0.95564  0.63684  0.67473  1.0000
  N   N5        1.0  0.68934  0.11376  0.58931  1.0000
  N   N6        1.0  0.18935  0.38624  0.41069  1.0000
  N   N7        1.0  0.31066  0.88624  0.41069  1.0000
  N   N8        1.0  0.81065  0.61376  0.58930  1.0000
  N   N9        1.0  0.77330  0.29572  0.77133  1.0000
  N   N10       1.0  0.27332  0.20428  0.22867  1.0000
  N   N11       1.0  0.22669  0.70429  0.22867  1.0000
  N   N12       1.0  0.72669  0.79571  0.77133  1.0000
