data_image0
_chemical_formula_structural       Cd8H32C24S8N24Cl8
_chemical_formula_sum              "Cd8 H32 C24 S8 N24 Cl8"
_cell_length_a       7.56555
_cell_length_b       10.7039
_cell_length_c       17.77
_cell_angle_alpha    90
_cell_angle_beta     90
_cell_angle_gamma    90

_space_group_name_H-M_alt    "P 1"
_space_group_IT_number       1

loop_
  _space_group_symop_operation_xyz
  'x, y, z'

loop_
  _atom_site_type_symbol
  _atom_site_label
  _atom_site_symmetry_multiplicity
  _atom_site_fract_x
  _atom_site_fract_y
  _atom_site_fract_z
  _atom_site_occupancy
  Cd  Cd1       1.0  0.82268  0.82017  0.33151  1.0000
  Cd  Cd2       1.0  0.67732  0.67983  0.83151  1.0000
  Cd  Cd3       1.0  0.82268  0.17982  0.16849  1.0000
  Cd  Cd4       1.0  0.67732  0.32018  0.66849  1.0000
  Cd  Cd5       1.0  0.17732  0.17983  0.66849  1.0000
  Cd  Cd6       1.0  0.32268  0.32017  0.16849  1.0000
  Cd  Cd7       1.0  0.17732  0.82018  0.83151  1.0000
  Cd  Cd8       1.0  0.32268  0.67983  0.33151  1.0000
  H   H1        1.0  0.43738  0.13031  0.32700  1.0000
  H   H2        1.0  0.06263  0.36969  0.82700  1.0000
  H   H3        1.0  0.43738  0.86969  0.17300  1.0000
  H   H4        1.0  0.06262  0.63031  0.67300  1.0000
  H   H5        1.0  0.56262  0.86969  0.67300  1.0000
  H   H6        1.0  0.93738  0.63031  0.17300  1.0000
  H   H7        1.0  0.56262  0.13031  0.82700  1.0000
  H   H8        1.0  0.93738  0.36969  0.32700  1.0000
  H   H9        1.0  0.34181  0.04336  0.45308  1.0000
  H   H10       1.0  0.15819  0.45664  0.95308  1.0000
  H   H11       1.0  0.34180  0.95664  0.04692  1.0000
  H   H12       1.0  0.15819  0.54336  0.54692  1.0000
  H   H13       1.0  0.65819  0.95664  0.54692  1.0000
  H   H14       1.0  0.84180  0.54336  0.04692  1.0000
  H   H15       1.0  0.65819  0.04336  0.95308  1.0000
  H   H16       1.0  0.84180  0.45664  0.45308  1.0000
  H   H17       1.0  0.15834  0.93935  0.44356  1.0000
  H   H18       1.0  0.34166  0.56065  0.94356  1.0000
  H   H19       1.0  0.15834  0.06065  0.05644  1.0000
  H   H20       1.0  0.34166  0.43935  0.55644  1.0000
  H   H21       1.0  0.84166  0.06065  0.55644  1.0000
  H   H22       1.0  0.65834  0.43935  0.05644  1.0000
  H   H23       1.0  0.84166  0.93935  0.94356  1.0000
  H   H24       1.0  0.65834  0.56065  0.44356  1.0000
  H   H25       1.0  0.12511  0.09410  0.47940  1.0000
  H   H26       1.0  0.37489  0.40591  0.97940  1.0000
  H   H27       1.0  0.12511  0.90591  0.02060  1.0000
  H   H28       1.0  0.37489  0.59410  0.52060  1.0000
  H   H29       1.0  0.87489  0.90591  0.52060  1.0000
  H   H30       1.0  0.62511  0.59410  0.02060  1.0000
  H   H31       1.0  0.87489  0.09409  0.97940  1.0000
  H   H32       1.0  0.62511  0.40591  0.47940  1.0000
  C   C1        1.0  0.01068  0.09791  0.32843  1.0000
  C   C2        1.0  0.48933  0.40209  0.82843  1.0000
  C   C3        1.0  0.01068  0.90209  0.17157  1.0000
  C   C4        1.0  0.48932  0.59791  0.67157  1.0000
  C   C5        1.0  0.98932  0.90209  0.67157  1.0000
  C   C6        1.0  0.51068  0.59791  0.17157  1.0000
  C   C7        1.0  0.98933  0.09791  0.82843  1.0000
  C   C8        1.0  0.51068  0.40209  0.32843  1.0000
  C   C9        1.0  0.29625  0.12929  0.31568  1.0000
  C   C10       1.0  0.20375  0.37071  0.81568  1.0000
  C   C11       1.0  0.29625  0.87071  0.18431  1.0000
  C   C12       1.0  0.20375  0.62929  0.68432  1.0000
  C   C13       1.0  0.70375  0.87071  0.68432  1.0000
  C   C14       1.0  0.79625  0.62929  0.18432  1.0000
  C   C15       1.0  0.70375  0.12929  0.81568  1.0000
  C   C16       1.0  0.79625  0.37071  0.31568  1.0000
  C   C17       1.0  0.20107  0.03697  0.43971  1.0000
  C   C18       1.0  0.29893  0.46304  0.93971  1.0000
  C   C19       1.0  0.20107  0.96304  0.06029  1.0000
  C   C20       1.0  0.29893  0.53697  0.56029  1.0000
  C   C21       1.0  0.79893  0.96303  0.56029  1.0000
  C   C22       1.0  0.70107  0.53697  0.06029  1.0000
  C   C23       1.0  0.79893  0.03697  0.93971  1.0000
  C   C24       1.0  0.70107  0.46303  0.43971  1.0000
  S   S1        1.0  0.80924  0.05473  0.36417  1.0000
  S   S2        1.0  0.69077  0.44527  0.86418  1.0000
  S   S3        1.0  0.80924  0.94527  0.13583  1.0000
  S   S4        1.0  0.69076  0.55473  0.63583  1.0000
  S   S5        1.0  0.19076  0.94527  0.63583  1.0000
  S   S6        1.0  0.30923  0.55473  0.13583  1.0000
  S   S7        1.0  0.19077  0.05473  0.86417  1.0000
  S   S8        1.0  0.30923  0.44527  0.36417  1.0000
  N   N1        1.0  0.04074  0.15134  0.26153  1.0000
  N   N2        1.0  0.45926  0.34866  0.76153  1.0000
  N   N3        1.0  0.04075  0.84866  0.23847  1.0000
  N   N4        1.0  0.45926  0.65134  0.73847  1.0000
  N   N5        1.0  0.95926  0.84866  0.73847  1.0000
  N   N6        1.0  0.54074  0.65134  0.23847  1.0000
  N   N7        1.0  0.95926  0.15134  0.76153  1.0000
  N   N8        1.0  0.54074  0.34866  0.26153  1.0000
  N   N9        1.0  0.17260  0.08411  0.36373  1.0000
  N   N10       1.0  0.32740  0.41589  0.86373  1.0000
  N   N11       1.0  0.17260  0.91589  0.13627  1.0000
  N   N12       1.0  0.32740  0.58411  0.63627  1.0000
  N   N13       1.0  0.82740  0.91589  0.63627  1.0000
  N   N14       1.0  0.67260  0.58411  0.13627  1.0000
  N   N15       1.0  0.82740  0.08411  0.86373  1.0000
  N   N16       1.0  0.67260  0.41589  0.36374  1.0000
  N   N17       1.0  0.21903  0.17051  0.25363  1.0000
  N   N18       1.0  0.28098  0.32949  0.75363  1.0000
  N   N19       1.0  0.21903  0.82948  0.24637  1.0000
  N   N20       1.0  0.28097  0.67052  0.74637  1.0000
  N   N21       1.0  0.78097  0.82949  0.74637  1.0000
  N   N22       1.0  0.71903  0.67051  0.24637  1.0000
  N   N23       1.0  0.78098  0.17052  0.75363  1.0000
  N   N24       1.0  0.71902  0.32948  0.25363  1.0000
  Cl  Cl1       1.0  0.03791  0.70396  0.41683  1.0000
  Cl  Cl2       1.0  0.46209  0.79604  0.91683  1.0000
  Cl  Cl3       1.0  0.03791  0.29604  0.08317  1.0000
  Cl  Cl4       1.0  0.46209  0.20396  0.58317  1.0000
  Cl  Cl5       1.0  0.96209  0.29604  0.58317  1.0000
  Cl  Cl6       1.0  0.53791  0.20396  0.08317  1.0000
  Cl  Cl7       1.0  0.96209  0.70396  0.91683  1.0000
  Cl  Cl8       1.0  0.53791  0.79604  0.41683  1.0000
