data_image0
_chemical_formula_structural       Cd3H18C12S4N12O2
_chemical_formula_sum              "Cd3 H18 C12 S4 N12 O2"
_cell_length_a       6.82243
_cell_length_b       9.58414
_cell_length_c       9.71662
_cell_angle_alpha    89.5477
_cell_angle_beta     109.787
_cell_angle_gamma    94.8539

_space_group_name_H-M_alt    "P 1"
_space_group_IT_number       1

loop_
  _space_group_symop_operation_xyz
  'x, y, z'

loop_
  _atom_site_type_symbol
  _atom_site_label
  _atom_site_symmetry_multiplicity
  _atom_site_fract_x
  _atom_site_fract_y
  _atom_site_fract_z
  _atom_site_occupancy
  Cd  Cd1       1.0  1.00000  0.00000  0.50000  1.0000
  Cd  Cd2       1.0  0.50628  0.81565  0.50943  1.0000
  Cd  Cd3       1.0  0.49372  0.18436  0.49057  1.0000
  H   H1        1.0  0.37792  0.00063  0.68137  1.0000
  H   H2        1.0  0.62208  0.99937  0.31862  1.0000
  H   H3        1.0  0.39599  0.94172  0.06629  1.0000
  H   H4        1.0  0.60402  0.05825  0.93371  1.0000
  H   H5        1.0  0.87730  0.74836  0.06022  1.0000
  H   H6        1.0  0.12270  0.25162  0.93978  1.0000
  H   H7        1.0  0.11436  0.83065  0.18538  1.0000
  H   H8        1.0  0.88564  0.16934  0.81462  1.0000
  H   H9        1.0  0.11793  0.66840  0.09636  1.0000
  H   H10       1.0  0.88206  0.33159  0.90364  1.0000
  H   H11       1.0  0.77600  0.49880  0.64397  1.0000
  H   H12       1.0  0.22401  0.50121  0.35604  1.0000
  H   H13       1.0  0.10215  0.64905  0.77794  1.0000
  H   H14       1.0  0.89786  0.35096  0.22206  1.0000
  H   H15       1.0  0.31986  0.62584  0.72059  1.0000
  H   H16       1.0  0.68014  0.37416  0.27941  1.0000
  H   H17       1.0  0.30586  0.54435  0.88295  1.0000
  H   H18       1.0  0.69414  0.45566  0.11705  1.0000
  C   C1        1.0  0.94468  0.84779  0.82184  1.0000
  C   C2        1.0  0.05533  0.15221  0.17816  1.0000
  C   C3        1.0  0.25806  0.92616  0.96870  1.0000
  C   C4        1.0  0.74195  0.07382  0.03131  1.0000
  C   C5        1.0  0.04615  0.76814  0.08405  1.0000
  C   C6        1.0  0.95385  0.23185  0.91594  1.0000
  C   C7        1.0  0.18088  0.34022  0.64783  1.0000
  C   C8        1.0  0.81911  0.65979  0.35217  1.0000
  C   C9        1.0  0.88533  0.42806  0.63082  1.0000
  C   C10       1.0  0.11466  0.57195  0.36919  1.0000
  C   C11       1.0  0.21363  0.57579  0.77266  1.0000
  C   C12       1.0  0.78637  0.42421  0.22733  1.0000
  S   S1        1.0  0.71034  0.74641  0.76853  1.0000
  S   S2        1.0  0.28965  0.25361  0.23147  1.0000
  S   S3        1.0  0.44542  0.33447  0.69768  1.0000
  S   S4        1.0  0.55457  0.66553  0.30232  1.0000
  N   N1        1.0  0.23682  0.97813  0.83921  1.0000
  N   N2        1.0  0.76320  0.02187  0.16079  1.0000
  N   N3        1.0  0.03898  0.92998  0.74612  1.0000
  N   N4        1.0  0.96103  0.07002  0.25389  1.0000
  N   N5        1.0  0.08119  0.84584  0.96460  1.0000
  N   N6        1.0  0.91882  0.15415  0.03540  1.0000
  N   N7        1.0  0.83706  0.30477  0.56271  1.0000
  N   N8        1.0  0.16293  0.69524  0.43729  1.0000
  N   N9        1.0  0.02134  0.24815  0.57265  1.0000
  N   N10       1.0  0.97864  0.75185  0.42735  1.0000
  N   N11       1.0  0.09640  0.45438  0.68609  1.0000
  N   N12       1.0  0.90359  0.54562  0.31391  1.0000
  O   O1        1.0  0.35081  0.99417  0.57552  1.0000
  O   O2        1.0  0.64919  0.00584  0.42447  1.0000
