data_image0
_chemical_formula_structural       Cd8H32C24S8Br8N24
_chemical_formula_sum              "Cd8 H32 C24 S8 Br8 N24"
_cell_length_a       7.796
_cell_length_b       10.7216
_cell_length_c       17.8083
_cell_angle_alpha    90
_cell_angle_beta     90
_cell_angle_gamma    90

_space_group_name_H-M_alt    "P 1"
_space_group_IT_number       1

loop_
  _space_group_symop_operation_xyz
  'x, y, z'

loop_
  _atom_site_type_symbol
  _atom_site_label
  _atom_site_symmetry_multiplicity
  _atom_site_fract_x
  _atom_site_fract_y
  _atom_site_fract_z
  _atom_site_occupancy
  Cd  Cd1       1.0  0.81450  0.82125  0.33167  1.0000
  Cd  Cd2       1.0  0.68549  0.67875  0.83167  1.0000
  Cd  Cd3       1.0  0.81450  0.17875  0.16833  1.0000
  Cd  Cd4       1.0  0.68549  0.32125  0.66833  1.0000
  Cd  Cd5       1.0  0.18550  0.17875  0.66833  1.0000
  Cd  Cd6       1.0  0.31450  0.32125  0.16833  1.0000
  Cd  Cd7       1.0  0.18550  0.82125  0.83167  1.0000
  Cd  Cd8       1.0  0.31450  0.67875  0.33167  1.0000
  H   H1        1.0  0.41360  0.13519  0.32693  1.0000
  H   H2        1.0  0.08639  0.36481  0.82694  1.0000
  H   H3        1.0  0.41360  0.86481  0.17307  1.0000
  H   H4        1.0  0.08640  0.63520  0.67307  1.0000
  H   H5        1.0  0.58641  0.86480  0.67307  1.0000
  H   H6        1.0  0.91360  0.63519  0.17307  1.0000
  H   H7        1.0  0.58640  0.13520  0.82693  1.0000
  H   H8        1.0  0.91359  0.36481  0.32693  1.0000
  H   H9        1.0  0.32042  0.04848  0.45200  1.0000
  H   H10       1.0  0.17958  0.45152  0.95200  1.0000
  H   H11       1.0  0.32041  0.95152  0.04800  1.0000
  H   H12       1.0  0.17958  0.54848  0.54800  1.0000
  H   H13       1.0  0.67959  0.95151  0.54800  1.0000
  H   H14       1.0  0.82041  0.54848  0.04800  1.0000
  H   H15       1.0  0.67959  0.04848  0.95200  1.0000
  H   H16       1.0  0.82042  0.45151  0.45200  1.0000
  H   H17       1.0  0.14329  0.94392  0.44251  1.0000
  H   H18       1.0  0.35671  0.55608  0.94250  1.0000
  H   H19       1.0  0.14328  0.05608  0.05749  1.0000
  H   H20       1.0  0.35671  0.44392  0.55749  1.0000
  H   H21       1.0  0.85672  0.05608  0.55749  1.0000
  H   H22       1.0  0.64329  0.44392  0.05750  1.0000
  H   H23       1.0  0.85671  0.94392  0.94250  1.0000
  H   H24       1.0  0.64329  0.55608  0.44251  1.0000
  H   H25       1.0  0.10978  0.09853  0.47802  1.0000
  H   H26       1.0  0.39023  0.40147  0.97802  1.0000
  H   H27       1.0  0.10977  0.90147  0.02198  1.0000
  H   H28       1.0  0.39022  0.59853  0.52198  1.0000
  H   H29       1.0  0.89023  0.90146  0.52199  1.0000
  H   H30       1.0  0.60977  0.59853  0.02199  1.0000
  H   H31       1.0  0.89023  0.09853  0.97801  1.0000
  H   H32       1.0  0.60977  0.40146  0.47802  1.0000
  C   C1        1.0  0.99999  0.10091  0.32707  1.0000
  C   C2        1.0  0.50000  0.39909  0.82707  1.0000
  C   C3        1.0  0.99999  0.89909  0.17293  1.0000
  C   C4        1.0  0.50001  0.60090  0.67293  1.0000
  C   C5        1.0  0.00001  0.89909  0.67294  1.0000
  C   C6        1.0  0.49999  0.60090  0.17293  1.0000
  C   C7        1.0  0.00001  0.10091  0.82706  1.0000
  C   C8        1.0  0.49999  0.39909  0.32707  1.0000
  C   C9        1.0  0.27699  0.13367  0.31512  1.0000
  C   C10       1.0  0.22302  0.36633  0.81512  1.0000
  C   C11       1.0  0.27700  0.86633  0.18488  1.0000
  C   C12       1.0  0.22301  0.63367  0.68488  1.0000
  C   C13       1.0  0.72299  0.86633  0.68488  1.0000
  C   C14       1.0  0.77698  0.63367  0.18489  1.0000
  C   C15       1.0  0.72302  0.13367  0.81511  1.0000
  C   C16       1.0  0.77702  0.36633  0.31512  1.0000
  C   C17       1.0  0.18400  0.04152  0.43862  1.0000
  C   C18       1.0  0.31600  0.45848  0.93862  1.0000
  C   C19       1.0  0.18400  0.95848  0.06138  1.0000
  C   C20       1.0  0.31600  0.54152  0.56138  1.0000
  C   C21       1.0  0.81600  0.95848  0.56139  1.0000
  C   C22       1.0  0.68400  0.54152  0.06139  1.0000
  C   C23       1.0  0.81600  0.04152  0.93861  1.0000
  C   C24       1.0  0.68401  0.45848  0.43861  1.0000
  S   S1        1.0  0.80485  0.05616  0.36240  1.0000
  S   S2        1.0  0.69515  0.44384  0.86240  1.0000
  S   S3        1.0  0.80484  0.94384  0.13760  1.0000
  S   S4        1.0  0.69515  0.55616  0.63760  1.0000
  S   S5        1.0  0.19516  0.94384  0.63760  1.0000
  S   S6        1.0  0.30484  0.55616  0.13760  1.0000
  S   S7        1.0  0.19516  0.05616  0.86240  1.0000
  S   S8        1.0  0.30485  0.44384  0.36240  1.0000
  Br  Br1       1.0  0.02371  0.69454  0.42310  1.0000
  Br  Br2       1.0  0.47629  0.80547  0.92311  1.0000
  Br  Br3       1.0  0.02371  0.30547  0.07689  1.0000
  Br  Br4       1.0  0.47628  0.19454  0.57690  1.0000
  Br  Br5       1.0  0.97628  0.30544  0.57689  1.0000
  Br  Br6       1.0  0.52371  0.19454  0.07690  1.0000
  Br  Br7       1.0  0.97628  0.69453  0.92310  1.0000
  Br  Br8       1.0  0.52371  0.80546  0.42311  1.0000
  N   N1        1.0  0.02972  0.15473  0.26038  1.0000
  N   N2        1.0  0.47028  0.34527  0.76038  1.0000
  N   N3        1.0  0.02972  0.84527  0.23962  1.0000
  N   N4        1.0  0.47028  0.65473  0.73962  1.0000
  N   N5        1.0  0.97029  0.84527  0.73962  1.0000
  N   N6        1.0  0.52971  0.65473  0.23962  1.0000
  N   N7        1.0  0.97029  0.15474  0.76038  1.0000
  N   N8        1.0  0.52971  0.34527  0.26038  1.0000
  N   N9        1.0  0.15672  0.08813  0.36274  1.0000
  N   N10       1.0  0.34328  0.41187  0.86274  1.0000
  N   N11       1.0  0.15672  0.91187  0.13725  1.0000
  N   N12       1.0  0.34328  0.58813  0.63726  1.0000
  N   N13       1.0  0.84329  0.91187  0.63725  1.0000
  N   N14       1.0  0.65672  0.58813  0.13726  1.0000
  N   N15       1.0  0.84328  0.08814  0.86274  1.0000
  N   N16       1.0  0.65671  0.41187  0.36275  1.0000
  N   N17       1.0  0.20283  0.17467  0.25301  1.0000
  N   N18       1.0  0.29717  0.32533  0.75301  1.0000
  N   N19       1.0  0.20283  0.82533  0.24699  1.0000
  N   N20       1.0  0.29718  0.67467  0.74699  1.0000
  N   N21       1.0  0.79718  0.82533  0.74700  1.0000
  N   N22       1.0  0.70282  0.67467  0.24699  1.0000
  N   N23       1.0  0.79717  0.17467  0.75300  1.0000
  N   N24       1.0  0.70282  0.32533  0.25300  1.0000
