data_image0
_chemical_formula_structural       Cu2H12C18S2N6
_chemical_formula_sum              "Cu2 H12 C18 S2 N6"
_cell_length_a       3.68802
_cell_length_b       10.9212
_cell_length_c       11.2301
_cell_angle_alpha    101.687
_cell_angle_beta     90.0045
_cell_angle_gamma    100.038

_space_group_name_H-M_alt    "P 1"
_space_group_IT_number       1

loop_
  _space_group_symop_operation_xyz
  'x, y, z'

loop_
  _atom_site_type_symbol
  _atom_site_label
  _atom_site_symmetry_multiplicity
  _atom_site_fract_x
  _atom_site_fract_y
  _atom_site_fract_z
  _atom_site_occupancy
  Cu  Cu1       1.0  0.09563  0.71826  0.36205  1.0000
  Cu  Cu2       1.0  0.62638  0.71798  0.86201  1.0000
  H   H1        1.0  0.00628  0.87064  0.17395  1.0000
  H   H2        1.0  0.86793  0.87142  0.67393  1.0000
  H   H3        1.0  0.21001  0.31297  0.24985  1.0000
  H   H4        1.0  0.10123  0.31388  0.75032  1.0000
  H   H5        1.0  0.44094  0.48028  0.43164  1.0000
  H   H6        1.0  0.03299  0.48019  0.93182  1.0000
  H   H7        1.0  0.62074  0.42349  0.62316  1.0000
  H   H8        1.0  0.79648  0.42204  0.12303  1.0000
  H   H9        1.0  0.56077  0.19498  0.63658  1.0000
  H   H10       1.0  0.63162  0.19312  0.13622  1.0000
  H   H11       1.0  0.37473  0.96505  0.53611  1.0000
  H   H12       1.0  0.59506  0.96368  0.03605  1.0000
  C   C1        1.0  0.09350  0.66130  0.61999  1.0000
  C   C2        1.0  0.56872  0.66084  0.11987  1.0000
  C   C3        1.0  0.10185  0.94618  0.25290  1.0000
  C   C4        1.0  0.84735  0.94657  0.75292  1.0000
  C   C5        1.0  0.25232  0.15824  0.34013  1.0000
  C   C6        1.0  0.90569  0.15832  0.84025  1.0000
  C   C7        1.0  0.28631  0.28786  0.33430  1.0000
  C   C8        1.0  0.99940  0.28815  0.83455  1.0000
  C   C9        1.0  0.41600  0.38034  0.43552  1.0000
  C   C10       1.0  0.95994  0.38008  0.93565  1.0000
  C   C11       1.0  0.51740  0.34808  0.54519  1.0000
  C   C12       1.0  0.82610  0.34706  0.04512  1.0000
  C   C13       1.0  0.48679  0.22260  0.55334  1.0000
  C   C14       1.0  0.73364  0.22137  0.05320  1.0000
  C   C15       1.0  0.35270  0.12594  0.45136  1.0000
  C   C16       1.0  0.77331  0.12528  0.95133  1.0000
  C   C17       1.0  0.30797  0.99562  0.45330  1.0000
  C   C18       1.0  0.69083  0.99484  0.95326  1.0000
  S   S1        1.0  0.07842  0.62181  0.75412  1.0000
  S   S2        1.0  0.54339  0.62166  0.25413  1.0000
  N   N1        1.0  0.09729  0.68602  0.52210  1.0000
  N   N2        1.0  0.59052  0.68548  0.02196  1.0000
  N   N3        1.0  0.18283  0.90570  0.35632  1.0000
  N   N4        1.0  0.72773  0.90545  0.85633  1.0000
  N   N5        1.0  0.12777  0.06443  0.24066  1.0000
  N   N6        1.0  0.93755  0.06504  0.74074  1.0000
