data_image0
_chemical_formula_structural       Ni2H40C28O10
_chemical_formula_sum              "Ni2 H40 C28 O10"
_cell_length_a       6.3131
_cell_length_b       10.0648
_cell_length_c       11.2084
_cell_angle_alpha    112.735
_cell_angle_beta     90.0008
_cell_angle_gamma    90.002

_space_group_name_H-M_alt    "P 1"
_space_group_IT_number       1

loop_
  _space_group_symop_operation_xyz
  'x, y, z'

loop_
  _atom_site_type_symbol
  _atom_site_label
  _atom_site_symmetry_multiplicity
  _atom_site_fract_x
  _atom_site_fract_y
  _atom_site_fract_z
  _atom_site_occupancy
  Ni  Ni1       1.0  0.63067  0.99524  0.00985  1.0000
  Ni  Ni2       1.0  0.13067  0.00474  0.99014  1.0000
  H   H1        1.0  0.50366  0.04349  0.40218  1.0000
  H   H2        1.0  0.00362  0.95651  0.59781  1.0000
  H   H3        1.0  0.65016  0.96853  0.25614  1.0000
  H   H4        1.0  0.15014  0.03147  0.74385  1.0000
  H   H5        1.0  0.77742  0.87505  0.44659  1.0000
  H   H6        1.0  0.27739  0.12498  0.55341  1.0000
  H   H7        1.0  0.84606  0.78974  0.28111  1.0000
  H   H8        1.0  0.34604  0.21028  0.71888  1.0000
  H   H9        1.0  0.91418  0.62747  0.39863  1.0000
  H   H10       1.0  0.41413  0.37257  0.60137  1.0000
  H   H11       1.0  0.80991  0.51903  0.16503  1.0000
  H   H12       1.0  0.30988  0.48099  0.83497  1.0000
  H   H13       1.0  0.71250  0.41399  0.24812  1.0000
  H   H14       1.0  0.21245  0.58602  0.75190  1.0000
  H   H15       1.0  0.54971  0.69090  0.11123  1.0000
  H   H16       1.0  0.04969  0.30910  0.88877  1.0000
  H   H17       1.0  0.28485  0.70032  0.16383  1.0000
  H   H18       1.0  0.78484  0.29966  0.83617  1.0000
  H   H19       1.0  0.33130  0.43177  0.31772  1.0000
  H   H20       1.0  0.83125  0.56822  0.68229  1.0000
  H   H21       1.0  0.15422  0.54477  0.27798  1.0000
  H   H22       1.0  0.65418  0.45521  0.72203  1.0000
  H   H23       1.0  0.25933  0.65802  0.51154  1.0000
  H   H24       1.0  0.75927  0.34199  0.48847  1.0000
  H   H25       1.0  0.19157  0.82487  0.39882  1.0000
  H   H26       1.0  0.69153  0.17512  0.60117  1.0000
  H   H27       1.0  0.39565  0.89252  0.51614  1.0000
  H   H28       1.0  0.89561  0.10749  0.48385  1.0000
  H   H29       1.0  0.63883  0.72559  0.56862  1.0000
  H   H30       1.0  0.13877  0.27444  0.43138  1.0000
  H   H31       1.0  0.61106  0.53599  0.48774  1.0000
  H   H32       1.0  0.11099  0.46404  0.51228  1.0000
  H   H33       1.0  0.24858  0.45454  0.04377  1.0000
  H   H34       1.0  0.74855  0.54544  0.95624  1.0000
  H   H35       1.0  0.51787  0.42856  0.99475  1.0000
  H   H36       1.0  0.01786  0.57143  0.00525  1.0000
  H   H37       1.0  0.89178  0.18052  0.17005  1.0000
  H   H38       1.0  0.39177  0.81945  0.82993  1.0000
  H   H39       1.0  0.98993  0.04338  0.20663  1.0000
  H   H40       1.0  0.48991  0.95660  0.79337  1.0000
  C   C1        1.0  0.32056  0.98250  0.23031  1.0000
  C   C2        1.0  0.82054  0.01749  0.76968  1.0000
  C   C3        1.0  0.50440  0.95768  0.30470  1.0000
  C   C4        1.0  0.00437  0.04232  0.69529  1.0000
  C   C5        1.0  0.50731  0.81008  0.31791  1.0000
  C   C6        1.0  0.00729  0.18992  0.68209  1.0000
  C   C7        1.0  0.73462  0.78609  0.35552  1.0000
  C   C8        1.0  0.23459  0.21392  0.64448  1.0000
  C   C9        1.0  0.75152  0.64144  0.37032  1.0000
  C   C10       1.0  0.25148  0.35858  0.62968  1.0000
  C   C11       1.0  0.69779  0.51941  0.24049  1.0000
  C   C12       1.0  0.19775  0.48060  0.75952  1.0000
  C   C13       1.0  0.46981  0.53856  0.20068  1.0000
  C   C14       1.0  0.96978  0.46144  0.79933  1.0000
  C   C15       1.0  0.44967  0.68655  0.18998  1.0000
  C   C16       1.0  0.94965  0.31345  0.81001  1.0000
  C   C17       1.0  0.31831  0.53602  0.30725  1.0000
  C   C18       1.0  0.81826  0.46397  0.69276  1.0000
  C   C19       1.0  0.37105  0.65958  0.43642  1.0000
  C   C20       1.0  0.87100  0.34043  0.56359  1.0000
  C   C21       1.0  0.35446  0.80573  0.42329  1.0000
  C   C22       1.0  0.85442  0.19427  0.57670  1.0000
  C   C23       1.0  0.59773  0.63906  0.47552  1.0000
  C   C24       1.0  0.09767  0.36096  0.52449  1.0000
  C   C25       1.0  0.40495  0.42482  0.06826  1.0000
  C   C26       1.0  0.90492  0.57517  0.93174  1.0000
  C   C27       1.0  0.39260  0.26891  0.05367  1.0000
  C   C28       1.0  0.89257  0.73108  0.94633  1.0000
  O   O1        1.0  0.35993  0.98589  0.11863  1.0000
  O   O2        1.0  0.85992  0.01408  0.88136  1.0000
  O   O3        1.0  0.13479  0.00012  0.27793  1.0000
  O   O4        1.0  0.63477  0.99988  0.72207  1.0000
  O   O5        1.0  0.89490  0.07572  0.14110  1.0000
  O   O6        1.0  0.39488  0.92425  0.85889  1.0000
  O   O7        1.0  0.56651  0.20651  0.05753  1.0000
  O   O8        1.0  0.06648  0.79348  0.94248  1.0000
  O   O9        1.0  0.20826  0.21164  0.03339  1.0000
  O   O10       1.0  0.70824  0.78833  0.96660  1.0000
