data_image0
_chemical_formula_structural       Cd4H48C44N8O16
_chemical_formula_sum              "Cd4 H48 C44 N8 O16"
_cell_length_a       8.5423
_cell_length_b       9.33956
_cell_length_c       16.0819
_cell_angle_alpha    90
_cell_angle_beta     90
_cell_angle_gamma    90

_space_group_name_H-M_alt    "P 1"
_space_group_IT_number       1

loop_
  _space_group_symop_operation_xyz
  'x, y, z'

loop_
  _atom_site_type_symbol
  _atom_site_label
  _atom_site_symmetry_multiplicity
  _atom_site_fract_x
  _atom_site_fract_y
  _atom_site_fract_z
  _atom_site_occupancy
  Cd  Cd1       1.0  0.95632  0.41820  0.77780  1.0000
  Cd  Cd2       1.0  0.54369  0.58180  0.27780  1.0000
  Cd  Cd3       1.0  0.04368  0.91820  0.72220  1.0000
  Cd  Cd4       1.0  0.45632  0.08180  0.22220  1.0000
  H   H1        1.0  0.19166  0.55071  0.67460  1.0000
  H   H2        1.0  0.30834  0.44929  0.17460  1.0000
  H   H3        1.0  0.80834  0.05071  0.82540  1.0000
  H   H4        1.0  0.69166  0.94929  0.32540  1.0000
  H   H5        1.0  0.46041  0.17309  0.78102  1.0000
  H   H6        1.0  0.03959  0.82691  0.28102  1.0000
  H   H7        1.0  0.53959  0.67309  0.71898  1.0000
  H   H8        1.0  0.96041  0.32691  0.21898  1.0000
  H   H9        1.0  0.50515  0.18159  0.67402  1.0000
  H   H10       1.0  0.99485  0.81841  0.17402  1.0000
  H   H11       1.0  0.49485  0.68159  0.82598  1.0000
  H   H12       1.0  0.00515  0.31841  0.32598  1.0000
  H   H13       1.0  0.45213  0.46112  0.69234  1.0000
  H   H14       1.0  0.04787  0.53888  0.19234  1.0000
  H   H15       1.0  0.54787  0.96112  0.80766  1.0000
  H   H16       1.0  0.95213  0.03888  0.30766  1.0000
  H   H17       1.0  0.34392  0.40653  0.78073  1.0000
  H   H18       1.0  0.15608  0.59347  0.28073  1.0000
  H   H19       1.0  0.65608  0.90653  0.71927  1.0000
  H   H20       1.0  0.84392  0.09347  0.21927  1.0000
  H   H21       1.0  0.29955  0.32185  0.59946  1.0000
  H   H22       1.0  0.20046  0.67814  0.09946  1.0000
  H   H23       1.0  0.70046  0.82186  0.90054  1.0000
  H   H24       1.0  0.79954  0.17814  0.40054  1.0000
  H   H25       1.0  0.95643  0.55099  0.59636  1.0000
  H   H26       1.0  0.54357  0.44901  0.09636  1.0000
  H   H27       1.0  0.04357  0.05099  0.90364  1.0000
  H   H28       1.0  0.45643  0.94901  0.40364  1.0000
  H   H29       1.0  0.97806  0.36634  0.57669  1.0000
  H   H30       1.0  0.52194  0.63366  0.07669  1.0000
  H   H31       1.0  0.02194  0.86634  0.92331  1.0000
  H   H32       1.0  0.47806  0.13366  0.42331  1.0000
  H   H33       1.0  0.35770  0.76409  0.42118  1.0000
  H   H34       1.0  0.14230  0.23591  0.92118  1.0000
  H   H35       1.0  0.64230  0.26409  0.07882  1.0000
  H   H36       1.0  0.85770  0.73591  0.57882  1.0000
  H   H37       1.0  0.17265  0.72547  0.53882  1.0000
  H   H38       1.0  0.32735  0.27453  0.03882  1.0000
  H   H39       1.0  0.82735  0.22547  0.96118  1.0000
  H   H40       1.0  0.67265  0.77453  0.46118  1.0000
  H   H41       1.0  0.15744  0.27831  0.46827  1.0000
  H   H42       1.0  0.34256  0.72169  0.96827  1.0000
  H   H43       1.0  0.84256  0.77831  0.03173  1.0000
  H   H44       1.0  0.65744  0.22169  0.53173  1.0000
  H   H45       1.0  0.35522  0.33377  0.35943  1.0000
  H   H46       1.0  0.14478  0.66623  0.85943  1.0000
  H   H47       1.0  0.64478  0.83377  0.14057  1.0000
  H   H48       1.0  0.85522  0.16623  0.64057  1.0000
  C   C1        1.0  0.66677  0.29486  0.74968  1.0000
  C   C2        1.0  0.83323  0.70513  0.24968  1.0000
  C   C3        1.0  0.33323  0.79486  0.75032  1.0000
  C   C4        1.0  0.16677  0.20514  0.25032  1.0000
  C   C5        1.0  0.50089  0.24516  0.73171  1.0000
  C   C6        1.0  0.99911  0.75484  0.23171  1.0000
  C   C7        1.0  0.49911  0.74516  0.76829  1.0000
  C   C8        1.0  0.00089  0.25484  0.26829  1.0000
  C   C9        1.0  0.38815  0.37098  0.72007  1.0000
  C   C10       1.0  0.11185  0.62902  0.22007  1.0000
  C   C11       1.0  0.61185  0.87098  0.77993  1.0000
  C   C12       1.0  0.88815  0.12902  0.27993  1.0000
  C   C13       1.0  0.25071  0.33626  0.66230  1.0000
  C   C14       1.0  0.24929  0.66374  0.16230  1.0000
  C   C15       1.0  0.74929  0.83626  0.83770  1.0000
  C   C16       1.0  0.75071  0.16374  0.33770  1.0000
  C   C17       1.0  0.17200  0.19363  0.68434  1.0000
  C   C18       1.0  0.32800  0.80637  0.18434  1.0000
  C   C19       1.0  0.82800  0.69363  0.81566  1.0000
  C   C20       1.0  0.67200  0.30637  0.31566  1.0000
  C   C21       1.0  0.04326  0.46630  0.58653  1.0000
  C   C22       1.0  0.45674  0.53370  0.08653  1.0000
  C   C23       1.0  0.95674  0.96630  0.91347  1.0000
  C   C24       1.0  0.54326  0.03370  0.41347  1.0000
  C   C25       1.0  0.31283  0.65762  0.43521  1.0000
  C   C26       1.0  0.18717  0.34238  0.93521  1.0000
  C   C27       1.0  0.68717  0.15762  0.06479  1.0000
  C   C28       1.0  0.81283  0.84238  0.56479  1.0000
  C   C29       1.0  0.20585  0.63599  0.49909  1.0000
  C   C30       1.0  0.29415  0.36401  0.99909  1.0000
  C   C31       1.0  0.79415  0.13599  0.00091  1.0000
  C   C32       1.0  0.70585  0.86401  0.50091  1.0000
  C   C33       1.0  0.14709  0.49799  0.51307  1.0000
  C   C34       1.0  0.35291  0.50201  0.01307  1.0000
  C   C35       1.0  0.85291  0.99799  0.98693  1.0000
  C   C36       1.0  0.64709  0.00201  0.48693  1.0000
  C   C37       1.0  0.19998  0.38780  0.46108  1.0000
  C   C38       1.0  0.30002  0.61220  0.96108  1.0000
  C   C39       1.0  0.80002  0.88780  0.03892  1.0000
  C   C40       1.0  0.69998  0.11220  0.53892  1.0000
  C   C41       1.0  0.31066  0.41773  0.40009  1.0000
  C   C42       1.0  0.18934  0.58227  0.90009  1.0000
  C   C43       1.0  0.68934  0.91773  0.09991  1.0000
  C   C44       1.0  0.81066  0.08227  0.59991  1.0000
  N   N1        1.0  0.13580  0.45394  0.66417  1.0000
  N   N2        1.0  0.36420  0.54606  0.16417  1.0000
  N   N3        1.0  0.86420  0.95394  0.83583  1.0000
  N   N4        1.0  0.63580  0.04606  0.33583  1.0000
  N   N5        1.0  0.36645  0.55047  0.38709  1.0000
  N   N6        1.0  0.13355  0.44953  0.88709  1.0000
  N   N7        1.0  0.63355  0.05047  0.11291  1.0000
  N   N8        1.0  0.86645  0.94953  0.61291  1.0000
  O   O1        1.0  0.72777  0.38531  0.69945  1.0000
  O   O2        1.0  0.77223  0.61469  0.19945  1.0000
  O   O3        1.0  0.27223  0.88531  0.80055  1.0000
  O   O4        1.0  0.22777  0.11469  0.30055  1.0000
  O   O5        1.0  0.74052  0.24482  0.81224  1.0000
  O   O6        1.0  0.75947  0.75518  0.31224  1.0000
  O   O7        1.0  0.25947  0.74482  0.68776  1.0000
  O   O8        1.0  0.24052  0.25518  0.18776  1.0000
  O   O9        1.0  0.07227  0.19080  0.74420  1.0000
  O   O10       1.0  0.42772  0.80920  0.24420  1.0000
  O   O11       1.0  0.92772  0.69080  0.75580  1.0000
  O   O12       1.0  0.57227  0.30920  0.25580  1.0000
  O   O13       1.0  0.20905  0.08407  0.64290  1.0000
  O   O14       1.0  0.29095  0.91593  0.14290  1.0000
  O   O15       1.0  0.79095  0.58407  0.85710  1.0000
  O   O16       1.0  0.70905  0.41593  0.35710  1.0000
