data_image0
_chemical_formula_structural       ZnH16C11N2O6
_chemical_formula_sum              "Zn1 H16 C11 N2 O6"
_cell_length_a       6.06084
_cell_length_b       7.09298
_cell_length_c       8.75174
_cell_angle_alpha    102.306
_cell_angle_beta     104.108
_cell_angle_gamma    112.259

_space_group_name_H-M_alt    "P 1"
_space_group_IT_number       1

loop_
  _space_group_symop_operation_xyz
  'x, y, z'

loop_
  _atom_site_type_symbol
  _atom_site_label
  _atom_site_symmetry_multiplicity
  _atom_site_fract_x
  _atom_site_fract_y
  _atom_site_fract_z
  _atom_site_occupancy
  Zn  Zn1       1.0  0.57633  0.86145  0.67175  1.0000
  H   H1        1.0  0.12458  0.84361  0.69101  1.0000
  H   H2        1.0  0.11678  0.63711  0.55959  1.0000
  H   H3        1.0  0.50951  0.57177  0.82619  1.0000
  H   H4        1.0  0.79954  0.76751  0.93075  1.0000
  H   H5        1.0  0.55300  0.23320  0.76664  1.0000
  H   H6        1.0  0.34474  0.40137  0.14037  1.0000
  H   H7        1.0  0.31339  0.62958  0.11958  1.0000
  H   H8        1.0  0.82627  0.41228  0.05009  1.0000
  H   H9        1.0  0.87342  0.17862  0.03444  1.0000
  H   H10       1.0  0.02377  0.48467  0.83602  1.0000
  H   H11       1.0  0.84184  0.25965  0.53869  1.0000
  H   H12       1.0  0.70381  0.42785  0.60021  1.0000
  H   H13       1.0  0.79621  0.82944  0.24919  1.0000
  H   H14       1.0  0.15094  0.03718  0.52185  1.0000
  H   H15       1.0  0.67111  0.17959  0.25365  1.0000
  H   H16       1.0  0.28931  0.96222  0.98695  1.0000
  C   C1        1.0  0.25042  0.55698  0.33161  1.0000
  C   C2        1.0  0.22304  0.48217  0.14899  1.0000
  C   C3        1.0  0.95057  0.34047  0.02316  1.0000
  C   C4        1.0  0.94012  0.32049  0.84297  1.0000
  C   C5        1.0  0.10184  0.21148  0.79720  1.0000
  C   C6        1.0  0.67488  0.25881  0.56720  1.0000
  C   C7        1.0  0.99252  0.90956  0.25382  1.0000
  C   C8        1.0  0.19343  0.02629  0.40745  1.0000
  C   C9        1.0  0.44341  0.12382  0.41049  1.0000
  C   C10       1.0  0.47925  0.10162  0.25645  1.0000
  C   C11       1.0  0.26833  0.98388  0.10895  1.0000
  N   N1        1.0  0.67557  0.19288  0.71790  1.0000
  N   N2        1.0  0.02790  0.88864  0.10661  1.0000
  O   O1        1.0  0.05724  0.48998  0.37362  1.0000
  O   O2        1.0  0.48045  0.69145  0.43230  1.0000
  O   O3        1.0  0.98554  0.00553  0.72463  1.0000
  O   O4        1.0  0.33829  0.32512  0.83605  1.0000
  O   O5        1.0  0.20411  0.74370  0.67906  1.0000
  O   O6        1.0  0.65224  0.69040  0.81533  1.0000
