data_image0
_chemical_formula_structural       Zn4H56C40N8O24
_chemical_formula_sum              "Zn4 H56 C40 N8 O24"
_cell_length_a       9.30286
_cell_length_b       9.30286
_cell_length_c       14.7797
_cell_angle_alpha    90
_cell_angle_beta     90
_cell_angle_gamma    90

_space_group_name_H-M_alt    "P 1"
_space_group_IT_number       1

loop_
  _space_group_symop_operation_xyz
  'x, y, z'

loop_
  _atom_site_type_symbol
  _atom_site_label
  _atom_site_symmetry_multiplicity
  _atom_site_fract_x
  _atom_site_fract_y
  _atom_site_fract_z
  _atom_site_occupancy
  Zn  Zn1       1.0  0.60451  0.07548  0.00664  1.0000
  Zn  Zn2       1.0  0.39549  0.92452  0.50664  1.0000
  Zn  Zn3       1.0  0.92452  0.60451  0.75664  1.0000
  Zn  Zn4       1.0  0.07548  0.39549  0.25664  1.0000
  H   H1        1.0  0.60828  0.77511  0.07399  1.0000
  H   H2        1.0  0.39173  0.22489  0.57399  1.0000
  H   H3        1.0  0.22489  0.60827  0.82399  1.0000
  H   H4        1.0  0.77511  0.39172  0.32400  1.0000
  H   H5        1.0  0.57332  0.88418  0.15504  1.0000
  H   H6        1.0  0.42668  0.11582  0.65504  1.0000
  H   H7        1.0  0.11582  0.57332  0.90504  1.0000
  H   H8        1.0  0.88418  0.42668  0.40504  1.0000
  H   H9        1.0  0.54395  0.27263  0.12474  1.0000
  H   H10       1.0  0.45605  0.72737  0.62474  1.0000
  H   H11       1.0  0.72737  0.54395  0.87474  1.0000
  H   H12       1.0  0.27263  0.45605  0.37474  1.0000
  H   H13       1.0  0.56781  0.12447  0.18308  1.0000
  H   H14       1.0  0.43219  0.87553  0.68308  1.0000
  H   H15       1.0  0.87553  0.56781  0.93309  1.0000
  H   H16       1.0  0.12448  0.43218  0.43309  1.0000
  H   H17       1.0  0.36077  0.21161  0.02586  1.0000
  H   H18       1.0  0.63923  0.78838  0.52586  1.0000
  H   H19       1.0  0.78839  0.36077  0.77586  1.0000
  H   H20       1.0  0.21161  0.63923  0.27586  1.0000
  H   H21       1.0  0.25290  0.11880  0.87088  1.0000
  H   H22       1.0  0.74710  0.88120  0.37088  1.0000
  H   H23       1.0  0.88120  0.25290  0.62088  1.0000
  H   H24       1.0  0.11880  0.74710  0.12088  1.0000
  H   H25       1.0  0.37116  0.31402  0.79566  1.0000
  H   H26       1.0  0.62884  0.68598  0.29565  1.0000
  H   H27       1.0  0.68598  0.37116  0.54565  1.0000
  H   H28       1.0  0.31402  0.62884  0.04566  1.0000
  H   H29       1.0  0.33151  0.36996  0.90617  1.0000
  H   H30       1.0  0.66849  0.63005  0.40617  1.0000
  H   H31       1.0  0.63005  0.33151  0.65617  1.0000
  H   H32       1.0  0.36995  0.66849  0.15617  1.0000
  H   H33       1.0  0.30513  0.99170  0.09831  1.0000
  H   H34       1.0  0.69487  0.00830  0.59831  1.0000
  H   H35       1.0  0.00830  0.30513  0.84831  1.0000
  H   H36       1.0  0.99170  0.69487  0.34831  1.0000
  H   H37       1.0  0.31916  0.90103  0.99420  1.0000
  H   H38       1.0  0.68084  0.09897  0.49420  1.0000
  H   H39       1.0  0.09897  0.31916  0.74420  1.0000
  H   H40       1.0  0.90103  0.68084  0.24420  1.0000
  H   H41       1.0  0.82071  0.83130  0.96574  1.0000
  H   H42       1.0  0.17929  0.16870  0.46574  1.0000
  H   H43       1.0  0.16870  0.82071  0.71574  1.0000
  H   H44       1.0  0.83130  0.17929  0.21574  1.0000
  H   H45       1.0  0.08407  0.80128  0.97158  1.0000
  H   H46       1.0  0.91593  0.19872  0.47158  1.0000
  H   H47       1.0  0.19872  0.08407  0.72158  1.0000
  H   H48       1.0  0.80128  0.91593  0.22158  1.0000
  H   H49       1.0  0.11600  0.24951  0.04739  1.0000
  H   H50       1.0  0.88400  0.75049  0.54739  1.0000
  H   H51       1.0  0.75049  0.11600  0.79739  1.0000
  H   H52       1.0  0.24951  0.88400  0.29739  1.0000
  H   H53       1.0  0.85161  0.26279  0.03680  1.0000
  H   H54       1.0  0.14839  0.73721  0.53680  1.0000
  H   H55       1.0  0.73721  0.85161  0.78680  1.0000
  H   H56       1.0  0.26279  0.14839  0.28680  1.0000
  C   C1        1.0  0.46053  0.03269  0.84083  1.0000
  C   C2        1.0  0.53947  0.96731  0.34083  1.0000
  C   C3        1.0  0.96731  0.46053  0.59083  1.0000
  C   C4        1.0  0.03269  0.53947  0.09083  1.0000
  C   C5        1.0  0.36409  0.14073  0.89267  1.0000
  C   C6        1.0  0.63591  0.85927  0.39267  1.0000
  C   C7        1.0  0.85927  0.36409  0.64267  1.0000
  C   C8        1.0  0.14073  0.63591  0.14267  1.0000
  C   C9        1.0  0.39928  0.29573  0.86688  1.0000
  C   C10       1.0  0.60072  0.70428  0.36688  1.0000
  C   C11       1.0  0.70428  0.39928  0.61688  1.0000
  C   C12       1.0  0.29572  0.60072  0.11688  1.0000
  C   C13       1.0  0.55543  0.34217  0.87940  1.0000
  C   C14       1.0  0.44457  0.65783  0.37940  1.0000
  C   C15       1.0  0.65783  0.55543  0.62940  1.0000
  C   C16       1.0  0.34217  0.44457  0.12941  1.0000
  C   C17       1.0  0.28430  0.00238  0.02529  1.0000
  C   C18       1.0  0.71570  0.99762  0.52529  1.0000
  C   C19       1.0  0.99762  0.28430  0.77529  1.0000
  C   C20       1.0  0.00238  0.71570  0.27529  1.0000
  C   C21       1.0  0.88946  0.92143  0.98464  1.0000
  C   C22       1.0  0.11054  0.07857  0.48464  1.0000
  C   C23       1.0  0.07857  0.88946  0.73464  1.0000
  C   C24       1.0  0.92143  0.11054  0.23464  1.0000
  C   C25       1.0  0.03801  0.90600  0.98717  1.0000
  C   C26       1.0  0.96200  0.09400  0.48717  1.0000
  C   C27       1.0  0.09400  0.03801  0.73717  1.0000
  C   C28       1.0  0.90600  0.96199  0.23717  1.0000
  C   C29       1.0  0.12450  0.02279  0.01148  1.0000
  C   C30       1.0  0.87550  0.97721  0.51148  1.0000
  C   C31       1.0  0.97721  0.12450  0.76148  1.0000
  C   C32       1.0  0.02279  0.87550  0.26148  1.0000
  C   C33       1.0  0.05606  0.15413  0.02738  1.0000
  C   C34       1.0  0.94394  0.84587  0.52738  1.0000
  C   C35       1.0  0.84586  0.05606  0.77739  1.0000
  C   C36       1.0  0.15413  0.94394  0.27738  1.0000
  C   C37       1.0  0.90705  0.16228  0.02269  1.0000
  C   C38       1.0  0.09295  0.83772  0.52268  1.0000
  C   C39       1.0  0.83772  0.90705  0.77269  1.0000
  C   C40       1.0  0.16228  0.09295  0.27269  1.0000
  N   N1        1.0  0.37724  0.11780  0.99091  1.0000
  N   N2        1.0  0.62276  0.88220  0.49091  1.0000
  N   N3        1.0  0.88221  0.37724  0.74091  1.0000
  N   N4        1.0  0.11779  0.62276  0.24091  1.0000
  N   N5        1.0  0.82465  0.04721  0.00323  1.0000
  N   N6        1.0  0.17535  0.95279  0.50323  1.0000
  N   N7        1.0  0.95279  0.82465  0.75323  1.0000
  N   N8        1.0  0.04721  0.17535  0.25323  1.0000
  O   O1        1.0  0.54790  0.95626  0.88559  1.0000
  O   O2        1.0  0.45210  0.04374  0.38560  1.0000
  O   O3        1.0  0.04374  0.54790  0.63559  1.0000
  O   O4        1.0  0.95626  0.45210  0.13560  1.0000
  O   O5        1.0  0.44441  0.02770  0.75537  1.0000
  O   O6        1.0  0.55559  0.97230  0.25537  1.0000
  O   O7        1.0  0.97230  0.44441  0.50537  1.0000
  O   O8        1.0  0.02770  0.55559  0.00537  1.0000
  O   O9        1.0  0.64254  0.26278  0.92350  1.0000
  O   O10       1.0  0.35746  0.73722  0.42350  1.0000
  O   O11       1.0  0.73722  0.64254  0.67350  1.0000
  O   O12       1.0  0.26278  0.35746  0.17350  1.0000
  O   O13       1.0  0.58982  0.45945  0.84156  1.0000
  O   O14       1.0  0.41017  0.54056  0.34156  1.0000
  O   O15       1.0  0.54056  0.58982  0.59156  1.0000
  O   O16       1.0  0.45944  0.41018  0.09156  1.0000
  O   O17       1.0  0.56946  0.86926  0.08837  1.0000
  O   O18       1.0  0.43055  0.13074  0.58837  1.0000
  O   O19       1.0  0.13074  0.56946  0.83837  1.0000
  O   O20       1.0  0.86926  0.43055  0.33838  1.0000
  O   O21       1.0  0.60681  0.18360  0.13292  1.0000
  O   O22       1.0  0.39319  0.81640  0.63292  1.0000
  O   O23       1.0  0.81640  0.60681  0.88292  1.0000
  O   O24       1.0  0.18360  0.39319  0.38292  1.0000
