data_image0
_chemical_formula_structural       Ni2H24C20N4O10
_chemical_formula_sum              "Ni2 H24 C20 N4 O10"
_cell_length_a       5.92252
_cell_length_b       9.23651
_cell_length_c       11.9943
_cell_angle_alpha    89.9996
_cell_angle_beta     89.9992
_cell_angle_gamma    97.5039

_space_group_name_H-M_alt    "P 1"
_space_group_IT_number       1

loop_
  _space_group_symop_operation_xyz
  'x, y, z'

loop_
  _atom_site_type_symbol
  _atom_site_label
  _atom_site_symmetry_multiplicity
  _atom_site_fract_x
  _atom_site_fract_y
  _atom_site_fract_z
  _atom_site_occupancy
  Ni  Ni1       1.0  0.03165  0.47346  0.89676  1.0000
  Ni  Ni2       1.0  0.96835  0.52654  0.39676  1.0000
  H   H1        1.0  0.67388  0.50206  0.76960  1.0000
  H   H2        1.0  0.32613  0.49794  0.26959  1.0000
  H   H3        1.0  0.57293  0.47931  0.89074  1.0000
  H   H4        1.0  0.42707  0.52069  0.39074  1.0000
  H   H5        1.0  0.85087  0.70116  0.95501  1.0000
  H   H6        1.0  0.14912  0.29885  0.45501  1.0000
  H   H7        1.0  0.22869  0.84853  0.02558  1.0000
  H   H8        1.0  0.77131  0.15147  0.52558  1.0000
  H   H9        1.0  0.93011  0.75182  0.14595  1.0000
  H   H10       1.0  0.06988  0.24818  0.64595  1.0000
  H   H11       1.0  0.18505  0.70013  0.19744  1.0000
  H   H12       1.0  0.81494  0.29987  0.69744  1.0000
  H   H13       1.0  0.93703  0.75934  0.76424  1.0000
  H   H14       1.0  0.06298  0.24067  0.26424  1.0000
  H   H15       1.0  0.22822  0.77522  0.79348  1.0000
  H   H16       1.0  0.77179  0.22478  0.29347  1.0000
  H   H17       1.0  0.36088  0.28816  0.79840  1.0000
  H   H18       1.0  0.63912  0.71184  0.29841  1.0000
  H   H19       1.0  0.37974  0.02394  0.76613  1.0000
  H   H20       1.0  0.62026  0.97606  0.26613  1.0000
  H   H21       1.0  0.75044  0.93201  0.95123  1.0000
  H   H22       1.0  0.24957  0.06799  0.45123  1.0000
  H   H23       1.0  0.76045  0.20189  0.97641  1.0000
  H   H24       1.0  0.23956  0.79811  0.47641  1.0000
  C   C1        1.0  0.39210  0.65968  0.99824  1.0000
  C   C2        1.0  0.60788  0.34031  0.49824  1.0000
  C   C3        1.0  0.17516  0.72990  0.01881  1.0000
  C   C4        1.0  0.82484  0.27010  0.51881  1.0000
  C   C5        1.0  0.06108  0.68069  0.12931  1.0000
  C   C6        1.0  0.93891  0.31931  0.62931  1.0000
  C   C7        1.0  0.93730  0.52505  0.13923  1.0000
  C   C8        1.0  0.06269  0.47495  0.63922  1.0000
  C   C9        1.0  0.06388  0.79403  0.82925  1.0000
  C   C10       1.0  0.93612  0.20597  0.32924  1.0000
  C   C11       1.0  0.22910  0.20578  0.83089  1.0000
  C   C12       1.0  0.77091  0.79422  0.33089  1.0000
  C   C13       1.0  0.23774  0.05777  0.81308  1.0000
  C   C14       1.0  0.76226  0.94223  0.31308  1.0000
  C   C15       1.0  0.06316  0.95464  0.85353  1.0000
  C   C16       1.0  0.93685  0.04536  0.35353  1.0000
  C   C17       1.0  0.88854  0.00692  0.91460  1.0000
  C   C18       1.0  0.11147  0.99308  0.41460  1.0000
  C   C19       1.0  0.89247  0.15662  0.92948  1.0000
  C   C20       1.0  0.10753  0.84338  0.42948  1.0000
  N   N1        1.0  0.01435  0.69652  0.92561  1.0000
  N   N2        1.0  0.98565  0.30348  0.42560  1.0000
  N   N3        1.0  0.05790  0.25532  0.88700  1.0000
  N   N4        1.0  0.94210  0.74468  0.38701  1.0000
  O   O1        1.0  0.36298  0.53257  0.95138  1.0000
  O   O2        1.0  0.63703  0.46744  0.45139  1.0000
  O   O3        1.0  0.58031  0.72637  0.02759  1.0000
  O   O4        1.0  0.41970  0.27363  0.52758  1.0000
  O   O5        1.0  0.91183  0.43956  0.05576  1.0000
  O   O6        1.0  0.08816  0.56044  0.55575  1.0000
  O   O7        1.0  0.85332  0.48609  0.23420  1.0000
  O   O8        1.0  0.14667  0.51390  0.73419  1.0000
  O   O9        1.0  0.69036  0.44637  0.83736  1.0000
  O   O10       1.0  0.30965  0.55363  0.33736  1.0000
