data_image0
_chemical_formula_structural       Ag8H36C56N8O18
_chemical_formula_sum              "Ag8 H36 C56 N8 O18"
_cell_length_a       5.98494
_cell_length_b       14.44
_cell_length_c       17.1827
_cell_angle_alpha    109.351
_cell_angle_beta     100.148
_cell_angle_gamma    89.9601

_space_group_name_H-M_alt    "P 1"
_space_group_IT_number       1

loop_
  _space_group_symop_operation_xyz
  'x, y, z'

loop_
  _atom_site_type_symbol
  _atom_site_label
  _atom_site_symmetry_multiplicity
  _atom_site_fract_x
  _atom_site_fract_y
  _atom_site_fract_z
  _atom_site_occupancy
  Ag  Ag1       1.0  0.67243  0.61398  0.82593  1.0000
  Ag  Ag2       1.0  0.14652  0.11215  0.82519  1.0000
  Ag  Ag3       1.0  0.24397  0.32655  0.89202  1.0000
  Ag  Ag4       1.0  0.65537  0.82981  0.89395  1.0000
  Ag  Ag5       1.0  0.70304  0.42911  0.95711  1.0000
  Ag  Ag6       1.0  0.25890  0.92892  0.95795  1.0000
  Ag  Ag7       1.0  0.30911  0.53000  0.89568  1.0000
  Ag  Ag8       1.0  0.58380  0.03186  0.89451  1.0000
  H   H1        1.0  0.27467  0.54090  0.68098  1.0000
  H   H2        1.0  0.40137  0.04081  0.68161  1.0000
  H   H3        1.0  0.17166  0.52796  0.52891  1.0000
  H   H4        1.0  0.35627  0.02941  0.53010  1.0000
  H   H5        1.0  0.84169  0.66058  0.55480  1.0000
  H   H6        1.0  0.71108  0.16197  0.55378  1.0000
  H   H7        1.0  0.92116  0.66258  0.70307  1.0000
  H   H8        1.0  0.77610  0.16248  0.70160  1.0000
  H   H9        1.0  0.25467  0.62044  0.21122  1.0000
  H   H10       1.0  0.95953  0.12062  0.21137  1.0000
  H   H11       1.0  0.04171  0.69163  0.32538  1.0000
  H   H12       1.0  0.28834  0.19182  0.32513  1.0000
  H   H13       1.0  0.66960  0.76486  0.29670  1.0000
  H   H14       1.0  0.63156  0.26398  0.29582  1.0000
  H   H15       1.0  0.52381  0.76987  0.15230  1.0000
  H   H16       1.0  0.63032  0.26837  0.15116  1.0000
  H   H17       1.0  0.07386  0.37290  0.07522  1.0000
  H   H18       1.0  0.00598  0.87298  0.07541  1.0000
  H   H19       1.0  0.16213  0.37551  0.22339  1.0000
  H   H20       1.0  0.06307  0.87635  0.22364  1.0000
  H   H21       1.0  0.52963  0.51481  0.26029  1.0000
  H   H22       1.0  0.73304  0.01630  0.26281  1.0000
  H   H23       1.0  0.45784  0.49826  0.10718  1.0000
  H   H24       1.0  0.65455  0.99882  0.10953  1.0000
  H   H25       1.0  0.96693  0.41111  0.57839  1.0000
  H   H26       1.0  0.60969  0.91106  0.57841  1.0000
  H   H27       1.0  0.63854  0.35209  0.46147  1.0000
  H   H28       1.0  0.81909  0.85063  0.46131  1.0000
  H   H29       1.0  0.27772  0.28689  0.48471  1.0000
  H   H30       1.0  0.20261  0.78442  0.48463  1.0000
  H   H31       1.0  0.25381  0.28145  0.62726  1.0000
  H   H32       1.0  0.37070  0.77974  0.62740  1.0000
  H   H33       1.0  0.14389  0.73945  0.85494  1.0000
  H   H34       1.0  0.71047  0.23932  0.85481  1.0000
  H   H35       1.0  0.11887  0.71861  0.93988  1.0000
  H   H36       1.0  0.82032  0.21839  0.93978  1.0000
  C   C1        1.0  0.39483  0.56549  0.64988  1.0000
  C   C2        1.0  0.25072  0.06565  0.65013  1.0000
  C   C3        1.0  0.33752  0.55933  0.56630  1.0000
  C   C4        1.0  0.22663  0.06037  0.56684  1.0000
  C   C5        1.0  0.49904  0.59421  0.53094  1.0000
  C   C6        1.0  0.03059  0.09570  0.53105  1.0000
  C   C7        1.0  0.71314  0.63205  0.57996  1.0000
  C   C8        1.0  0.86416  0.13311  0.57930  1.0000
  C   C9        1.0  0.75708  0.63404  0.66271  1.0000
  C   C10       1.0  0.90089  0.13425  0.66181  1.0000
  C   C11       1.0  0.44280  0.59340  0.44653  1.0000
  C   C12       1.0  0.00491  0.09602  0.44702  1.0000
  C   C13       1.0  0.14096  0.61059  0.04713  1.0000
  C   C14       1.0  0.90658  0.10936  0.04688  1.0000
  C   C15       1.0  0.01235  0.65515  0.11733  1.0000
  C   C16       1.0  0.10602  0.15463  0.11700  1.0000
  C   C17       1.0  0.09500  0.65364  0.19835  1.0000
  C   C18       1.0  0.10593  0.15355  0.19819  1.0000
  C   C19       1.0  0.97452  0.69434  0.26300  1.0000
  C   C20       1.0  0.29212  0.19423  0.26265  1.0000
  C   C21       1.0  0.76766  0.73589  0.24693  1.0000
  C   C22       1.0  0.48274  0.23523  0.24625  1.0000
  C   C23       1.0  0.68559  0.73906  0.16667  1.0000
  C   C24       1.0  0.48307  0.23804  0.16585  1.0000
  C   C25       1.0  0.80752  0.69979  0.10199  1.0000
  C   C26       1.0  0.29525  0.19892  0.10138  1.0000
  C   C27       1.0  0.72313  0.70591  0.01644  1.0000
  C   C28       1.0  0.29317  0.20458  0.01571  1.0000
  C   C29       1.0  0.95627  0.40244  0.11771  1.0000
  C   C30       1.0  0.16548  0.90285  0.11839  1.0000
  C   C31       1.0  0.00673  0.40529  0.20069  1.0000
  C   C32       1.0  0.19647  0.90614  0.20145  1.0000
  C   C33       1.0  0.85165  0.44610  0.25318  1.0000
  C   C34       1.0  0.40339  0.94738  0.25464  1.0000
  C   C35       1.0  0.65177  0.48195  0.22060  1.0000
  C   C36       1.0  0.57163  0.98311  0.22262  1.0000
  C   C37       1.0  0.61322  0.47427  0.13648  1.0000
  C   C38       1.0  0.52754  0.97502  0.13839  1.0000
  C   C39       1.0  0.89189  0.44826  0.33812  1.0000
  C   C40       1.0  0.44676  0.94996  0.33970  1.0000
  C   C41       1.0  0.99647  0.40953  0.74113  1.0000
  C   C42       1.0  0.74432  0.91020  0.74123  1.0000
  C   C43       1.0  0.79744  0.37987  0.66867  1.0000
  C   C44       1.0  0.87020  0.87977  0.66882  1.0000
  C   C45       1.0  0.81051  0.38292  0.58910  1.0000
  C   C46       1.0  0.77659  0.88244  0.58911  1.0000
  C   C47       1.0  0.62489  0.34887  0.52294  1.0000
  C   C48       1.0  0.89479  0.84755  0.52285  1.0000
  C   C49       1.0  0.42380  0.31214  0.53606  1.0000
  C   C50       1.0  0.10869  0.81035  0.53601  1.0000
  C   C51       1.0  0.40933  0.30904  0.61546  1.0000
  C   C52       1.0  0.20358  0.80772  0.61557  1.0000
  C   C53       1.0  0.59469  0.34293  0.68170  1.0000
  C   C54       1.0  0.08576  0.84242  0.68194  1.0000
  C   C55       1.0  0.57934  0.34074  0.76724  1.0000
  C   C56       1.0  0.18759  0.84015  0.76753  1.0000
  N   N1        1.0  0.60061  0.60185  0.69698  1.0000
  N   N2        1.0  0.09083  0.10167  0.69654  1.0000
  N   N3        1.0  0.39356  0.59452  0.37802  1.0000
  N   N4        1.0  0.98822  0.09814  0.37890  1.0000
  N   N5        1.0  0.76318  0.43602  0.08623  1.0000
  N   N6        1.0  0.32793  0.93646  0.08747  1.0000
  N   N7        1.0  0.92059  0.44816  0.40710  1.0000
  N   N8        1.0  0.48614  0.95013  0.40876  1.0000
  O   O1        1.0  0.04937  0.34339  0.77356  1.0000
  O   O2        1.0  0.72194  0.84444  0.77380  1.0000
  O   O3        1.0  0.04297  0.74458  0.89602  1.0000
  O   O4        1.0  0.85259  0.24417  0.89591  1.0000
  O   O5        1.0  0.09043  0.49571  0.76401  1.0000
  O   O6        1.0  0.67518  0.99680  0.76392  1.0000
  O   O7        1.0  0.51802  0.26122  0.77472  1.0000
  O   O8        1.0  0.25523  0.76045  0.77496  1.0000
  O   O9        1.0  0.63220  0.42357  0.82748  1.0000
  O   O10       1.0  0.19609  0.92296  0.82789  1.0000
  O   O11       1.0  0.22248  0.66785  0.01508  1.0000
  O   O12       1.0  0.79197  0.16609  0.01421  1.0000
  O   O13       1.0  0.16252  0.51839  0.02426  1.0000
  O   O14       1.0  0.86302  0.01728  0.02482  1.0000
  O   O15       1.0  0.67757  0.78937  0.01144  1.0000
  O   O16       1.0  0.33551  0.28768  0.01037  1.0000
  O   O17       1.0  0.71267  0.62457  0.95524  1.0000
  O   O18       1.0  0.24037  0.12313  0.95471  1.0000
