data_image0
_chemical_formula_structural       Cd6H48C56Br12N24
_chemical_formula_sum              "Cd6 H48 C56 Br12 N24"
_cell_length_a       8.25673
_cell_length_b       9.94398
_cell_length_c       24.658
_cell_angle_alpha    100.922
_cell_angle_beta     90
_cell_angle_gamma    114.529

_space_group_name_H-M_alt    "P 1"
_space_group_IT_number       1

loop_
  _space_group_symop_operation_xyz
  'x, y, z'

loop_
  _atom_site_type_symbol
  _atom_site_label
  _atom_site_symmetry_multiplicity
  _atom_site_fract_x
  _atom_site_fract_y
  _atom_site_fract_z
  _atom_site_occupancy
  Cd  Cd1       1.0  0.99048  0.98258  0.58097  1.0000
  Cd  Cd2       1.0  0.00800  0.01739  0.91904  1.0000
  Cd  Cd3       1.0  0.00952  0.01742  0.41904  1.0000
  Cd  Cd4       1.0  0.99200  0.98261  0.08096  1.0000
  Cd  Cd5       1.0  0.00336  0.00015  0.74997  1.0000
  Cd  Cd6       1.0  0.99664  0.99985  0.25003  1.0000
  H   H1        1.0  0.28722  0.32196  0.56521  1.0000
  H   H2        1.0  0.96552  0.67789  0.93477  1.0000
  H   H3        1.0  0.71278  0.67804  0.43479  1.0000
  H   H4        1.0  0.03449  0.32211  0.06523  1.0000
  H   H5        1.0  0.08940  0.44556  0.55075  1.0000
  H   H6        1.0  0.64411  0.55432  0.94927  1.0000
  H   H7        1.0  0.91060  0.55444  0.44925  1.0000
  H   H8        1.0  0.35589  0.44568  0.05073  1.0000
  H   H9        1.0  0.21046  0.71862  0.55084  1.0000
  H   H10       1.0  0.49210  0.28135  0.94920  1.0000
  H   H11       1.0  0.78954  0.28138  0.44916  1.0000
  H   H12       1.0  0.50790  0.71865  0.05080  1.0000
  H   H13       1.0  0.53932  0.87778  0.55884  1.0000
  H   H14       1.0  0.66166  0.12211  0.94127  1.0000
  H   H15       1.0  0.46068  0.12222  0.44117  1.0000
  H   H16       1.0  0.33834  0.87789  0.05873  1.0000
  H   H17       1.0  0.02839  0.32989  0.66825  1.0000
  H   H18       1.0  0.69854  0.67058  0.83174  1.0000
  H   H19       1.0  0.97161  0.67010  0.33175  1.0000
  H   H20       1.0  0.30146  0.32942  0.16826  1.0000
  H   H21       1.0  0.35730  0.44395  0.68794  1.0000
  H   H22       1.0  0.91390  0.55704  0.81211  1.0000
  H   H23       1.0  0.64270  0.55604  0.31206  1.0000
  H   H24       1.0  0.08611  0.44296  0.18790  1.0000
  H   H25       1.0  0.53301  0.72152  0.71793  1.0000
  H   H26       1.0  0.81262  0.27948  0.78214  1.0000
  H   H27       1.0  0.46699  0.27847  0.28207  1.0000
  H   H28       1.0  0.18738  0.72053  0.21786  1.0000
  H   H29       1.0  0.38356  0.89444  0.73300  1.0000
  H   H30       1.0  0.49045  0.10620  0.76698  1.0000
  H   H31       1.0  0.61644  0.10555  0.26700  1.0000
  H   H32       1.0  0.50955  0.89380  0.23302  1.0000
  H   H33       1.0  0.79832  0.36176  0.57565  1.0000
  H   H34       1.0  0.43661  0.63812  0.92429  1.0000
  H   H35       1.0  0.20168  0.63824  0.42435  1.0000
  H   H36       1.0  0.56339  0.36189  0.07571  1.0000
  H   H37       1.0  0.56227  0.27431  0.57520  1.0000
  H   H38       1.0  0.28796  0.72551  0.92479  1.0000
  H   H39       1.0  0.43773  0.72569  0.42480  1.0000
  H   H40       1.0  0.71203  0.27449  0.07521  1.0000
  H   H41       1.0  0.57582  0.39813  0.67374  1.0000
  H   H42       1.0  0.17772  0.60176  0.82620  1.0000
  H   H43       1.0  0.42418  0.60187  0.32626  1.0000
  H   H44       1.0  0.82227  0.39824  0.17380  1.0000
  H   H45       1.0  0.70844  0.29526  0.66706  1.0000
  H   H46       1.0  0.41317  0.70475  0.83293  1.0000
  H   H47       1.0  0.29156  0.70474  0.33293  1.0000
  H   H48       1.0  0.58683  0.29526  0.16707  1.0000
  C   C1        1.0  0.59756  0.68713  0.56696  1.0000
  C   C2        1.0  0.91067  0.31275  0.93316  1.0000
  C   C3        1.0  0.40244  0.31287  0.43304  1.0000
  C   C4        1.0  0.08933  0.68725  0.06684  1.0000
  C   C5        1.0  0.52633  0.53294  0.56995  1.0000
  C   C6        1.0  0.99358  0.46689  0.93012  1.0000
  C   C7        1.0  0.47367  0.46706  0.43005  1.0000
  C   C8        1.0  0.00642  0.53311  0.06988  1.0000
  C   C9        1.0  0.34241  0.44144  0.56380  1.0000
  C   C10       1.0  0.90126  0.55845  0.93623  1.0000
  C   C11       1.0  0.65759  0.55856  0.43620  1.0000
  C   C12       1.0  0.09874  0.44155  0.06377  1.0000
  C   C13       1.0  0.23353  0.51267  0.55624  1.0000
  C   C14       1.0  0.72119  0.48725  0.94381  1.0000
  C   C15       1.0  0.76648  0.48733  0.44376  1.0000
  C   C16       1.0  0.27882  0.51275  0.05619  1.0000
  C   C17       1.0  0.30317  0.66845  0.55545  1.0000
  C   C18       1.0  0.63504  0.33148  0.94463  1.0000
  C   C19       1.0  0.69683  0.33155  0.44455  1.0000
  C   C20       1.0  0.36497  0.66852  0.05537  1.0000
  C   C21       1.0  0.48557  0.75830  0.56013  1.0000
  C   C22       1.0  0.72750  0.24159  0.93999  1.0000
  C   C23       1.0  0.51443  0.24170  0.43987  1.0000
  C   C24       1.0  0.27250  0.75841  0.06001  1.0000
  C   C25       1.0  0.11908  0.70893  0.70909  1.0000
  C   C26       1.0  0.41089  0.29138  0.79089  1.0000
  C   C27       1.0  0.88093  0.29106  0.29091  1.0000
  C   C28       1.0  0.58911  0.70863  0.20911  1.0000
  C   C29       1.0  0.02307  0.55143  0.68955  1.0000
  C   C30       1.0  0.47207  0.44885  0.81043  1.0000
  C   C31       1.0  0.97693  0.44857  0.31045  1.0000
  C   C32       1.0  0.52793  0.55115  0.18957  1.0000
  C   C33       1.0  0.10445  0.45165  0.68182  1.0000
  C   C34       1.0  0.65314  0.54885  0.81818  1.0000
  C   C35       1.0  0.89555  0.54834  0.31818  1.0000
  C   C36       1.0  0.34686  0.45115  0.18182  1.0000
  C   C37       1.0  0.28843  0.51762  0.69320  1.0000
  C   C38       1.0  0.77143  0.48317  0.80683  1.0000
  C   C39       1.0  0.71157  0.48237  0.30680  1.0000
  C   C40       1.0  0.22857  0.51683  0.19317  1.0000
  C   C41       1.0  0.38805  0.67562  0.71074  1.0000
  C   C42       1.0  0.71342  0.32522  0.78931  1.0000
  C   C43       1.0  0.61195  0.32437  0.28926  1.0000
  C   C44       1.0  0.28658  0.67478  0.21069  1.0000
  C   C45       1.0  0.30573  0.77345  0.71929  1.0000
  C   C46       1.0  0.53333  0.22716  0.78073  1.0000
  C   C47       1.0  0.69428  0.22654  0.28071  1.0000
  C   C48       1.0  0.46667  0.77285  0.21927  1.0000
  C   C49       1.0  0.68298  0.37561  0.59322  1.0000
  C   C50       1.0  0.30739  0.62424  0.90674  1.0000
  C   C51       1.0  0.31702  0.62439  0.40678  1.0000
  C   C52       1.0  0.69261  0.37576  0.09326  1.0000
  C   C53       1.0  0.69576  0.39309  0.65654  1.0000
  C   C54       1.0  0.30270  0.60684  0.84342  1.0000
  C   C55       1.0  0.30424  0.60691  0.34346  1.0000
  C   C56       1.0  0.69730  0.39316  0.15658  1.0000
  Br  Br1       1.0  0.80303  0.04261  0.67524  1.0000
  Br  Br2       1.0  0.76072  0.95805  0.82474  1.0000
  Br  Br3       1.0  0.19695  0.95738  0.32476  1.0000
  Br  Br4       1.0  0.23927  0.04195  0.17526  1.0000
  Br  Br5       1.0  0.28102  0.07937  0.64444  1.0000
  Br  Br6       1.0  0.20176  0.92086  0.85553  1.0000
  Br  Br7       1.0  0.71897  0.92063  0.35556  1.0000
  Br  Br8       1.0  0.79821  0.07912  0.14446  1.0000
  Br  Br9       1.0  0.86493  0.11403  0.51950  1.0000
  Br  Br10      1.0  0.75078  0.88586  0.98037  1.0000
  Br  Br11      1.0  0.13507  0.88597  0.48050  1.0000
  Br  Br12      1.0  0.24922  0.11414  0.01963  1.0000
  N   N1        1.0  0.67383  0.50573  0.57742  1.0000
  N   N2        1.0  0.16823  0.49408  0.92256  1.0000
  N   N3        1.0  0.32617  0.49427  0.42258  1.0000
  N   N4        1.0  0.83177  0.50592  0.07744  1.0000
  N   N5        1.0  0.82555  0.63156  0.57861  1.0000
  N   N6        1.0  0.19417  0.36828  0.92137  1.0000
  N   N7        1.0  0.17446  0.36844  0.42139  1.0000
  N   N8        1.0  0.80583  0.63172  0.07863  1.0000
  N   N9        1.0  0.78081  0.73970  0.57210  1.0000
  N   N10       1.0  0.04136  0.26022  0.92798  1.0000
  N   N11       1.0  0.21919  0.26031  0.42790  1.0000
  N   N12       1.0  0.95864  0.73978  0.07202  1.0000
  N   N13       1.0  0.84849  0.52965  0.68317  1.0000
  N   N14       1.0  0.31910  0.47039  0.81678  1.0000
  N   N15       1.0  0.15151  0.47035  0.31683  1.0000
  N   N16       1.0  0.68089  0.52961  0.18322  1.0000
  N   N17       1.0  0.83378  0.66104  0.69810  1.0000
  N   N18       1.0  0.17319  0.33888  0.80184  1.0000
  N   N19       1.0  0.16622  0.33896  0.30189  1.0000
  N   N20       1.0  0.82681  0.66112  0.19816  1.0000
  N   N21       1.0  0.99462  0.76887  0.71403  1.0000
  N   N22       1.0  0.22644  0.23120  0.78593  1.0000
  N   N23       1.0  0.00539  0.23113  0.28597  1.0000
  N   N24       1.0  0.77356  0.76881  0.21407  1.0000
