data_image0
_chemical_formula_structural       Ag4H32C40N8O12
_chemical_formula_sum              "Ag4 H32 C40 N8 O12"
_cell_length_a       9.85783
_cell_length_b       10.4837
_cell_length_c       11.573
_cell_angle_alpha    70.9744
_cell_angle_beta     69.3355
_cell_angle_gamma    86.7383

_space_group_name_H-M_alt    "P 1"
_space_group_IT_number       1

loop_
  _space_group_symop_operation_xyz
  'x, y, z'

loop_
  _atom_site_type_symbol
  _atom_site_label
  _atom_site_symmetry_multiplicity
  _atom_site_fract_x
  _atom_site_fract_y
  _atom_site_fract_z
  _atom_site_occupancy
  Ag  Ag1       1.0  0.39076  0.59385  0.49647  1.0000
  Ag  Ag2       1.0  0.60925  0.40616  0.50352  1.0000
  Ag  Ag3       1.0  0.50111  0.17610  0.88851  1.0000
  Ag  Ag4       1.0  0.49889  0.82390  0.11149  1.0000
  H   H1        1.0  0.23174  0.29288  0.01756  1.0000
  H   H2        1.0  0.76825  0.70711  0.98245  1.0000
  H   H3        1.0  0.14841  0.43339  0.16231  1.0000
  H   H4        1.0  0.85158  0.56661  0.83770  1.0000
  H   H5        1.0  0.57391  0.41877  0.19232  1.0000
  H   H6        1.0  0.42608  0.58122  0.80768  1.0000
  H   H7        1.0  0.64473  0.28137  0.04046  1.0000
  H   H8        1.0  0.35526  0.71863  0.95955  1.0000
  H   H9        1.0  0.76858  0.07985  0.70984  1.0000
  H   H10       1.0  0.23141  0.92015  0.29017  1.0000
  H   H11       1.0  0.81825  0.92845  0.57716  1.0000
  H   H12       1.0  0.18175  0.07154  0.42286  1.0000
  H   H13       1.0  0.35489  0.88194  0.66862  1.0000
  H   H14       1.0  0.64511  0.11806  0.33138  1.0000
  H   H15       1.0  0.32165  0.03230  0.80374  1.0000
  H   H16       1.0  0.67835  0.96770  0.19626  1.0000
  H   H17       1.0  0.01840  0.96615  0.63299  1.0000
  H   H18       1.0  0.98160  0.03386  0.36701  1.0000
  H   H19       1.0  0.02185  0.99226  0.83784  1.0000
  H   H20       1.0  0.97816  0.00774  0.16216  1.0000
  H   H21       1.0  0.07408  0.79162  0.00578  1.0000
  H   H22       1.0  0.92593  0.20836  0.99422  1.0000
  H   H23       1.0  0.13298  0.57873  0.95988  1.0000
  H   H24       1.0  0.86702  0.42126  0.04011  1.0000
  H   H25       1.0  0.15537  0.61211  0.38225  1.0000
  H   H26       1.0  0.84462  0.38790  0.61774  1.0000
  H   H27       1.0  0.10716  0.55048  0.27365  1.0000
  H   H28       1.0  0.89284  0.44953  0.72635  1.0000
  H   H29       1.0  0.73718  0.70037  0.42025  1.0000
  H   H30       1.0  0.26282  0.29963  0.57976  1.0000
  H   H31       1.0  0.82834  0.78667  0.48205  1.0000
  H   H32       1.0  0.17167  0.21334  0.51795  1.0000
  C   C1        1.0  0.30461  0.32166  0.05835  1.0000
  C   C2        1.0  0.69539  0.67834  0.94165  1.0000
  C   C3        1.0  0.25852  0.39931  0.14013  1.0000
  C   C4        1.0  0.74148  0.60069  0.85987  1.0000
  C   C5        1.0  0.35565  0.43536  0.18957  1.0000
  C   C6        1.0  0.64434  0.56464  0.81043  1.0000
  C   C7        1.0  0.49665  0.39197  0.15435  1.0000
  C   C8        1.0  0.50333  0.60802  0.84566  1.0000
  C   C9        1.0  0.53531  0.31549  0.07104  1.0000
  C   C10       1.0  0.46468  0.68451  0.92897  1.0000
  C   C11       1.0  0.31586  0.51827  0.27951  1.0000
  C   C12       1.0  0.68413  0.48173  0.72050  1.0000
  C   C13       1.0  0.67887  0.03304  0.70046  1.0000
  C   C14       1.0  0.32113  0.96696  0.29955  1.0000
  C   C15       1.0  0.70608  0.94993  0.62350  1.0000
  C   C16       1.0  0.29392  0.05007  0.37650  1.0000
  C   C17       1.0  0.58900  0.89399  0.61074  1.0000
  C   C18       1.0  0.41100  0.10602  0.38925  1.0000
  C   C19       1.0  0.44844  0.92446  0.67615  1.0000
  C   C20       1.0  0.55155  0.07555  0.32385  1.0000
  C   C21       1.0  0.42977  0.00715  0.75176  1.0000
  C   C22       1.0  0.57023  0.99285  0.24825  1.0000
  C   C23       1.0  0.60194  0.80246  0.53112  1.0000
  C   C24       1.0  0.39807  0.19755  0.46888  1.0000
  C   C25       1.0  0.06800  0.74806  0.55465  1.0000
  C   C26       1.0  0.93200  0.25194  0.44534  1.0000
  C   C27       1.0  0.07822  0.76003  0.67790  1.0000
  C   C28       1.0  0.92179  0.23997  0.32209  1.0000
  C   C29       1.0  0.04600  0.88209  0.70428  1.0000
  C   C30       1.0  0.95400  0.11791  0.29572  1.0000
  C   C31       1.0  0.04756  0.89630  0.81958  1.0000
  C   C32       1.0  0.95245  0.10369  0.18042  1.0000
  C   C33       1.0  0.07933  0.78631  0.91167  1.0000
  C   C34       1.0  0.92068  0.21368  0.08833  1.0000
  C   C35       1.0  0.11277  0.66488  0.88566  1.0000
  C   C36       1.0  0.88722  0.33511  0.11433  1.0000
  C   C37       1.0  0.11416  0.64979  0.76907  1.0000
  C   C38       1.0  0.88584  0.35021  0.23092  1.0000
  C   C39       1.0  0.13700  0.50904  0.75670  1.0000
  C   C40       1.0  0.86301  0.49096  0.24328  1.0000
  N   N1        1.0  0.44119  0.27992  0.02393  1.0000
  N   N2        1.0  0.55881  0.72008  0.97608  1.0000
  N   N3        1.0  0.54313  0.06060  0.76476  1.0000
  N   N4        1.0  0.45687  0.93940  0.23524  1.0000
  N   N5        1.0  0.18443  0.56445  0.31101  1.0000
  N   N6        1.0  0.81557  0.43556  0.68898  1.0000
  N   N7        1.0  0.73258  0.76326  0.47270  1.0000
  N   N8        1.0  0.26742  0.23674  0.52731  1.0000
  O   O1        1.0  0.41395  0.53996  0.31914  1.0000
  O   O2        1.0  0.58604  0.46004  0.68086  1.0000
  O   O3        1.0  0.48651  0.76928  0.52255  1.0000
  O   O4        1.0  0.51349  0.23073  0.47746  1.0000
  O   O5        1.0  0.02222  0.43408  0.79648  1.0000
  O   O6        1.0  0.97778  0.56592  0.20351  1.0000
  O   O7        1.0  0.26575  0.47215  0.71838  1.0000
  O   O8        1.0  0.73425  0.52785  0.28160  1.0000
  O   O9        1.0  0.14021  0.65846  0.51122  1.0000
  O   O10       1.0  0.85979  0.34155  0.48877  1.0000
  O   O11       1.0  0.98858  0.82720  0.50125  1.0000
  O   O12       1.0  0.01141  0.17280  0.49875  1.0000
