data_image0
_chemical_formula_structural       K2H26C36O26
_chemical_formula_sum              "K2 H26 C36 O26"
_cell_length_a       9.29978
_cell_length_b       10.0956
_cell_length_c       10.8989
_cell_angle_alpha    101.021
_cell_angle_beta     100.62
_cell_angle_gamma    93.8287

_space_group_name_H-M_alt    "P 1"
_space_group_IT_number       1

loop_
  _space_group_symop_operation_xyz
  'x, y, z'

loop_
  _atom_site_type_symbol
  _atom_site_label
  _atom_site_symmetry_multiplicity
  _atom_site_fract_x
  _atom_site_fract_y
  _atom_site_fract_z
  _atom_site_occupancy
  K   K1        1.0  0.72915  0.21347  0.13166  1.0000
  K   K2        1.0  0.27085  0.78653  0.86834  1.0000
  H   H1        1.0  0.26425  0.47453  0.02104  1.0000
  H   H2        1.0  0.73575  0.52547  0.97896  1.0000
  H   H3        1.0  0.94861  0.79078  0.09750  1.0000
  H   H4        1.0  0.05138  0.20921  0.90250  1.0000
  H   H5        1.0  0.71168  0.05413  0.36582  1.0000
  H   H6        1.0  0.28832  0.94587  0.63418  1.0000
  H   H7        1.0  0.92536  0.83202  0.49437  1.0000
  H   H8        1.0  0.07464  0.16798  0.50562  1.0000
  H   H9        1.0  0.17888  0.53449  0.32213  1.0000
  H   H10       1.0  0.82112  0.46551  0.67786  1.0000
  H   H11       1.0  0.23146  0.53209  0.63788  1.0000
  H   H12       1.0  0.76854  0.46791  0.36212  1.0000
  H   H13       1.0  0.43532  0.30195  0.25201  1.0000
  H   H14       1.0  0.56468  0.69806  0.74799  1.0000
  H   H15       1.0  0.36866  0.15392  0.07371  1.0000
  H   H16       1.0  0.63133  0.84608  0.92629  1.0000
  H   H17       1.0  0.39305  0.29656  0.03346  1.0000
  H   H18       1.0  0.60695  0.70344  0.96654  1.0000
  H   H19       1.0  0.38730  0.40392  0.56533  1.0000
  H   H20       1.0  0.61271  0.59608  0.43467  1.0000
  H   H21       1.0  0.80138  0.89899  0.75547  1.0000
  H   H22       1.0  0.19862  0.10101  0.24454  1.0000
  H   H23       1.0  0.51426  0.22104  0.88944  1.0000
  H   H24       1.0  0.48574  0.77896  0.11057  1.0000
  H   H25       1.0  0.66072  0.07540  0.54179  1.0000
  H   H26       1.0  0.33929  0.92459  0.45821  1.0000
  C   C1        1.0  0.07054  0.65685  0.19846  1.0000
  C   C2        1.0  0.92945  0.34315  0.80153  1.0000
  C   C3        1.0  0.97769  0.75893  0.18811  1.0000
  C   C4        1.0  0.02230  0.24107  0.81189  1.0000
  C   C5        1.0  0.92307  0.82103  0.29353  1.0000
  C   C6        1.0  0.07693  0.17897  0.70646  1.0000
  C   C7        1.0  0.05624  0.67953  0.42096  1.0000
  C   C8        1.0  0.94375  0.32047  0.57904  1.0000
  C   C9        1.0  0.96388  0.78241  0.41054  1.0000
  C   C10       1.0  0.03611  0.21759  0.58945  1.0000
  C   C11       1.0  0.10755  0.61485  0.31432  1.0000
  C   C12       1.0  0.89244  0.38515  0.68568  1.0000
  C   C13       1.0  0.13509  0.60311  0.08588  1.0000
  C   C14       1.0  0.86490  0.39689  0.91412  1.0000
  C   C15       1.0  0.82353  0.92811  0.27700  1.0000
  C   C16       1.0  0.17647  0.07188  0.72300  1.0000
  C   C17       1.0  0.10368  0.64650  0.54886  1.0000
  C   C18       1.0  0.89632  0.35350  0.45113  1.0000
  C   C19       1.0  0.52192  0.23937  0.53839  1.0000
  C   C20       1.0  0.47809  0.76063  0.46161  1.0000
  C   C21       1.0  0.44516  0.32968  0.60990  1.0000
  C   C22       1.0  0.55485  0.67032  0.39010  1.0000
  C   C23       1.0  0.44274  0.32414  0.73707  1.0000
  C   C24       1.0  0.55727  0.67586  0.26293  1.0000
  C   C25       1.0  0.51810  0.22774  0.79170  1.0000
  C   C26       1.0  0.48190  0.77227  0.20830  1.0000
  C   C27       1.0  0.59749  0.13918  0.72195  1.0000
  C   C28       1.0  0.40251  0.86082  0.27805  1.0000
  C   C29       1.0  0.59921  0.14497  0.59512  1.0000
  C   C30       1.0  0.40079  0.85503  0.40489  1.0000
  C   C31       1.0  0.52265  0.23878  0.40181  1.0000
  C   C32       1.0  0.47735  0.76122  0.59819  1.0000
  C   C33       1.0  0.36063  0.42035  0.81639  1.0000
  C   C34       1.0  0.63938  0.57965  0.18362  1.0000
  C   C35       1.0  0.67704  0.03962  0.78441  1.0000
  C   C36       1.0  0.32296  0.96038  0.21559  1.0000
  O   O1        1.0  0.11427  0.65252  0.98948  1.0000
  O   O2        1.0  0.88573  0.34748  0.01052  1.0000
  O   O3        1.0  0.59758  0.16444  0.33981  1.0000
  O   O4        1.0  0.40242  0.83556  0.66019  1.0000
  O   O5        1.0  0.21869  0.50374  0.10042  1.0000
  O   O6        1.0  0.78130  0.49626  0.89958  1.0000
  O   O7        1.0  0.78420  0.96184  0.17383  1.0000
  O   O8        1.0  0.21580  0.03816  0.82617  1.0000
  O   O9        1.0  0.06816  0.70851  0.64597  1.0000
  O   O10       1.0  0.93184  0.29149  0.35403  1.0000
  O   O11       1.0  0.78034  0.98358  0.38402  1.0000
  O   O12       1.0  0.21965  0.01642  0.61598  1.0000
  O   O13       1.0  0.19147  0.54715  0.54744  1.0000
  O   O14       1.0  0.80853  0.45285  0.45256  1.0000
  O   O15       1.0  0.43598  0.31966  0.34846  1.0000
  O   O16       1.0  0.56402  0.68035  0.65154  1.0000
  O   O17       1.0  0.42411  0.24440  0.10104  1.0000
  O   O18       1.0  0.57589  0.75561  0.89897  1.0000
  O   O19       1.0  0.30521  0.51611  0.77105  1.0000
  O   O20       1.0  0.69479  0.48389  0.22895  1.0000
  O   O21       1.0  0.35379  0.40006  0.92739  1.0000
  O   O22       1.0  0.64622  0.59995  0.07261  1.0000
  O   O23       1.0  0.67590  0.02656  0.89442  1.0000
  O   O24       1.0  0.32410  0.97344  0.10558  1.0000
  O   O25       1.0  0.75202  0.96219  0.70815  1.0000
  O   O26       1.0  0.24798  0.03780  0.29185  1.0000
