data_image0
_chemical_formula_structural       Sr2La4H40C56N8O40
_chemical_formula_sum              "Sr2 La4 H40 C56 N8 O40"
_cell_length_a       13.5426
_cell_length_b       13.5143
_cell_length_c       13.5578
_cell_angle_alpha    98.7967
_cell_angle_beta     114.857
_cell_angle_gamma    114.987

_space_group_name_H-M_alt    "P 1"
_space_group_IT_number       1

loop_
  _space_group_symop_operation_xyz
  'x, y, z'

loop_
  _atom_site_type_symbol
  _atom_site_label
  _atom_site_symmetry_multiplicity
  _atom_site_fract_x
  _atom_site_fract_y
  _atom_site_fract_z
  _atom_site_occupancy
  Sr  Sr1       1.0  0.99930  0.49887  0.49907  1.0000
  Sr  Sr2       1.0  0.49965  0.24924  0.74986  1.0000
  La  La1       1.0  0.72615  0.35114  0.12498  1.0000
  La  La2       1.0  0.77339  0.37472  0.64849  1.0000
  La  La3       1.0  0.27385  0.39879  0.62505  1.0000
  La  La4       1.0  0.22612  0.87483  0.60146  1.0000
  H   H1        1.0  0.80441  0.17546  0.22281  1.0000
  H   H2        1.0  0.04578  0.62771  0.82386  1.0000
  H   H3        1.0  0.19650  0.41869  0.37196  1.0000
  H   H4        1.0  0.95342  0.77810  0.58172  1.0000
  H   H5        1.0  0.45321  0.33146  0.02759  1.0000
  H   H6        1.0  0.69595  0.12121  0.66816  1.0000
  H   H7        1.0  0.54644  0.57445  0.87767  1.0000
  H   H8        1.0  0.30426  0.97218  0.42600  1.0000
  H   H9        1.0  0.84326  0.20774  0.13118  1.0000
  H   H10       1.0  0.92216  0.63484  0.79131  1.0000
  H   H11       1.0  0.15869  0.28829  0.36629  1.0000
  H   H12       1.0  0.07635  0.86750  0.71210  1.0000
  H   H13       1.0  0.57604  0.46210  0.11730  1.0000
  H   H14       1.0  0.65699  0.11494  0.53793  1.0000
  H   H15       1.0  0.42263  0.54131  0.88452  1.0000
  H   H16       1.0  0.34179  0.87920  0.45757  1.0000
  H   H17       1.0  0.48516  0.05923  0.31702  1.0000
  H   H18       1.0  0.25679  0.42594  0.93986  1.0000
  H   H19       1.0  0.51409  0.83199  0.57329  1.0000
  H   H20       1.0  0.74448  0.68460  0.16946  1.0000
  H   H21       1.0  0.24371  0.91876  0.93478  1.0000
  H   H22       1.0  0.01384  0.32411  0.08108  1.0000
  H   H23       1.0  0.75712  0.69101  0.67560  1.0000
  H   H24       1.0  0.98704  0.06859  0.31027  1.0000
  H   H25       1.0  0.27821  0.90255  0.12654  1.0000
  H   H26       1.0  0.22185  0.37527  0.09722  1.0000
  H   H27       1.0  0.72171  0.84818  0.62412  1.0000
  H   H28       1.0  0.78005  0.87758  0.15362  1.0000
  H   H29       1.0  0.93914  0.73710  0.00535  1.0000
  H   H30       1.0  0.27051  0.20366  0.26417  1.0000
  H   H31       1.0  0.06054  0.06625  0.79777  1.0000
  H   H32       1.0  0.72993  0.99367  0.93348  1.0000
  H   H33       1.0  0.22981  0.68367  0.24319  1.0000
  H   H34       1.0  0.56153  0.54831  0.31640  1.0000
  H   H35       1.0  0.77057  0.01328  0.45428  1.0000
  H   H36       1.0  0.43805  0.75483  0.98632  1.0000
  H   H37       1.0  0.17090  0.79734  0.12391  1.0000
  H   H38       1.0  0.32970  0.37631  0.20346  1.0000
  H   H39       1.0  0.82913  0.95299  0.62662  1.0000
  H   H40       1.0  0.67025  0.87402  0.04686  1.0000
  C   C1        1.0  0.68608  0.25598  0.34044  1.0000
  C   C2        1.0  0.08394  0.42964  0.74298  1.0000
  C   C3        1.0  0.31311  0.65439  0.56933  1.0000
  C   C4        1.0  0.91600  0.65915  0.34600  1.0000
  C   C5        1.0  0.41636  0.09583  0.90988  1.0000
  C   C6        1.0  0.81285  0.31930  0.90407  1.0000
  C   C7        1.0  0.58432  0.49338  0.68007  1.0000
  C   C8        1.0  0.18680  0.09128  0.50649  1.0000
  C   C9        1.0  0.56015  0.15757  0.22807  1.0000
  C   C10       1.0  0.06976  0.40198  0.84171  1.0000
  C   C11       1.0  0.43949  0.66801  0.59708  1.0000
  C   C12       1.0  0.93042  0.77250  0.33263  1.0000
  C   C13       1.0  0.43026  0.08221  0.02265  1.0000
  C   C14       1.0  0.93923  0.34716  0.91747  1.0000
  C   C15       1.0  0.57020  0.59240  0.65229  1.0000
  C   C16       1.0  0.06080  0.97875  0.40820  1.0000
  C   C17       1.0  0.46722  0.06300  0.23209  1.0000
  C   C18       1.0  0.16802  0.40390  0.93631  1.0000
  C   C19       1.0  0.53235  0.76495  0.59534  1.0000
  C   C20       1.0  0.83292  0.76958  0.23618  1.0000
  C   C21       1.0  0.33214  0.98554  0.01944  1.0000
  C   C22       1.0  0.03222  0.34592  0.01420  1.0000
  C   C23       1.0  0.66833  0.68725  0.65369  1.0000
  C   C24       1.0  0.96858  0.98318  0.31390  1.0000
  C   C25       1.0  0.35213  0.97667  0.12598  1.0000
  C   C26       1.0  0.14774  0.37503  0.02292  1.0000
  C   C27       1.0  0.64784  0.77378  0.62441  1.0000
  C   C28       1.0  0.85347  0.87673  0.22753  1.0000
  C   C29       1.0  0.73268  0.54378  0.98400  1.0000
  C   C30       1.0  0.44091  0.18939  0.45679  1.0000
  C   C31       1.0  0.26702  0.25120  0.81086  1.0000
  C   C32       1.0  0.55923  0.01537  0.74830  1.0000
  C   C33       1.0  0.05890  0.49828  0.26526  1.0000
  C   C34       1.0  0.76739  0.56150  0.50123  1.0000
  C   C35       1.0  0.94144  0.20640  0.43979  1.0000
  C   C36       1.0  0.23221  0.73332  0.79348  1.0000
  C   C37       1.0  0.87592  0.59223  0.05844  1.0000
  C   C38       1.0  0.46714  0.28474  0.40827  1.0000
  C   C39       1.0  0.12389  0.18249  0.71625  1.0000
  C   C40       1.0  0.53290  0.94044  0.81715  1.0000
  C   C41       1.0  0.03276  0.56728  0.19052  1.0000
  C   C42       1.0  0.62415  0.46668  0.43263  1.0000
  C   C43       1.0  0.96745  0.15767  0.53470  1.0000
  C   C44       1.0  0.37555  0.80776  0.84176  1.0000
  C   C45       1.0  0.96887  0.69022  0.05796  1.0000
  C   C46       1.0  0.36954  0.28023  0.31059  1.0000
  C   C47       1.0  0.03092  0.08907  0.72127  1.0000
  C   C48       1.0  0.63063  0.94076  0.91061  1.0000
  C   C49       1.0  0.13069  0.66094  0.19069  1.0000
  C   C50       1.0  0.53150  0.47162  0.33936  1.0000
  C   C51       1.0  0.86956  0.05988  0.53046  1.0000
  C   C52       1.0  0.46824  0.80758  0.93965  1.0000
  C   C53       1.0  0.09698  0.72299  0.12424  1.0000
  C   C54       1.0  0.40341  0.37605  0.27769  1.0000
  C   C55       1.0  0.90303  0.02718  0.62609  1.0000
  C   C56       1.0  0.59655  0.87416  0.97251  1.0000
  N   N1        1.0  0.54153  0.16626  0.12518  1.0000
  N   N2        1.0  0.95811  0.37437  0.83318  1.0000
  N   N3        1.0  0.45856  0.58376  0.62476  1.0000
  N   N4        1.0  0.04160  0.87532  0.41670  1.0000
  N   N5        1.0  0.90865  0.53384  0.12452  1.0000
  N   N6        1.0  0.59117  0.37557  0.46616  1.0000
  N   N7        1.0  0.09137  0.21584  0.62527  1.0000
  N   N8        1.0  0.40864  0.87403  0.78360  1.0000
  O   O1        1.0  0.76321  0.34035  0.32729  1.0000
  O   O2        1.0  0.98669  0.42222  0.65891  1.0000
  O   O3        1.0  0.23602  0.56413  0.57652  1.0000
  O   O4        1.0  0.01279  0.67189  0.43592  1.0000
  O   O5        1.0  0.51362  0.18589  0.92266  1.0000
  O   O6        1.0  0.73588  0.32633  0.81402  1.0000
  O   O7        1.0  0.48714  0.40904  0.67304  1.0000
  O   O8        1.0  0.26326  0.07779  0.59054  1.0000
  O   O9        1.0  0.70629  0.24948  0.43838  1.0000
  O   O10       1.0  0.18833  0.45668  0.74899  1.0000
  O   O11       1.0  0.29256  0.73225  0.54247  1.0000
  O   O12       1.0  0.81206  0.56104  0.26859  1.0000
  O   O13       1.0  0.31233  0.01843  0.81213  1.0000
  O   O14       1.0  0.79222  0.29255  0.98174  1.0000
  O   O15       1.0  0.68859  0.49940  0.70669  1.0000
  O   O16       1.0  0.20774  0.18979  0.50018  1.0000
  O   O17       1.0  0.65679  0.43632  0.96658  1.0000
  O   O18       1.0  0.53013  0.22040  0.56375  1.0000
  O   O19       1.0  0.34311  0.30933  0.77929  1.0000
  O   O20       1.0  0.46969  0.03318  0.69003  1.0000
  O   O21       1.0  0.96918  0.43955  0.28291  1.0000
  O   O22       1.0  0.84304  0.52966  0.55921  1.0000
  O   O23       1.0  0.03076  0.31390  0.47075  1.0000
  O   O24       1.0  0.15673  0.71584  0.68641  1.0000
  O   O25       1.0  0.69879  0.61057  0.94601  1.0000
  O   O26       1.0  0.33695  0.08877  0.39050  1.0000
  O   O27       1.0  0.30073  0.24743  0.91130  1.0000
  O   O28       1.0  0.66359  0.05321  0.75198  1.0000
  O   O29       1.0  0.16342  0.50238  0.30323  1.0000
  O   O30       1.0  0.80160  0.66249  0.49767  1.0000
  O   O31       1.0  0.83746  0.13994  0.33969  1.0000
  O   O32       1.0  0.19779  0.69567  0.86004  1.0000
  O   O33       1.0  0.77274  0.18360  0.14416  1.0000
  O   O34       1.0  0.95843  0.58768  0.81493  1.0000
  O   O35       1.0  0.22844  0.37188  0.41228  1.0000
  O   O36       1.0  0.04073  0.85637  0.62938  1.0000
  O   O37       1.0  0.53998  0.37893  0.10582  1.0000
  O   O38       1.0  0.72740  0.16132  0.62091  1.0000
  O   O39       1.0  0.45926  0.56562  0.83782  1.0000
  O   O40       1.0  0.27223  0.89337  0.43446  1.0000
