data_image0
_chemical_formula_structural       Sn4H68C44N20O12
_chemical_formula_sum              "Sn4 H68 C44 N20 O12"
_cell_length_a       10.8413
_cell_length_b       12.125
_cell_length_c       11.892
_cell_angle_alpha    107.639
_cell_angle_beta     90
_cell_angle_gamma    90

_space_group_name_H-M_alt    "P 1"
_space_group_IT_number       1

loop_
  _space_group_symop_operation_xyz
  'x, y, z'

loop_
  _atom_site_type_symbol
  _atom_site_label
  _atom_site_symmetry_multiplicity
  _atom_site_fract_x
  _atom_site_fract_y
  _atom_site_fract_z
  _atom_site_occupancy
  Sn  Sn1       1.0  0.08828  0.69372  0.95259  1.0000
  Sn  Sn2       1.0  0.58827  0.80628  0.04742  1.0000
  Sn  Sn3       1.0  0.91172  0.30627  0.04742  1.0000
  Sn  Sn4       1.0  0.41173  0.19372  0.95259  1.0000
  H   H1        1.0  0.89522  0.73965  0.48186  1.0000
  H   H2        1.0  0.39522  0.76035  0.51814  1.0000
  H   H3        1.0  0.10478  0.26035  0.51814  1.0000
  H   H4        1.0  0.60478  0.23965  0.48185  1.0000
  H   H5        1.0  0.79061  0.93628  0.33346  1.0000
  H   H6        1.0  0.29061  0.56371  0.66654  1.0000
  H   H7        1.0  0.20939  0.06371  0.66654  1.0000
  H   H8        1.0  0.70939  0.43629  0.33346  1.0000
  H   H9        1.0  0.74102  0.83799  0.40615  1.0000
  H   H10       1.0  0.24102  0.66201  0.59385  1.0000
  H   H11       1.0  0.25898  0.16201  0.59385  1.0000
  H   H12       1.0  0.75898  0.33799  0.40615  1.0000
  H   H13       1.0  0.11985  0.93228  0.14782  1.0000
  H   H14       1.0  0.61986  0.56772  0.85217  1.0000
  H   H15       1.0  0.88014  0.06772  0.85218  1.0000
  H   H16       1.0  0.38014  0.43229  0.14783  1.0000
  H   H17       1.0  0.20973  0.03493  0.10530  1.0000
  H   H18       1.0  0.70974  0.46508  0.89470  1.0000
  H   H19       1.0  0.79026  0.96507  0.89470  1.0000
  H   H20       1.0  0.29026  0.53493  0.10530  1.0000
  H   H21       1.0  0.33126  0.07618  0.29354  1.0000
  H   H22       1.0  0.83126  0.42382  0.70646  1.0000
  H   H23       1.0  0.66874  0.92382  0.70646  1.0000
  H   H24       1.0  0.16873  0.57618  0.29355  1.0000
  H   H25       1.0  0.17080  0.10521  0.31908  1.0000
  H   H26       1.0  0.67080  0.39479  0.68093  1.0000
  H   H27       1.0  0.82920  0.89479  0.68092  1.0000
  H   H28       1.0  0.32920  0.60521  0.31908  1.0000
  H   H29       1.0  0.42932  0.93919  0.39337  1.0000
  H   H30       1.0  0.92932  0.56081  0.60664  1.0000
  H   H31       1.0  0.57068  0.06080  0.60663  1.0000
  H   H32       1.0  0.07068  0.43919  0.39337  1.0000
  H   H33       1.0  0.01335  0.90450  0.94349  1.0000
  H   H34       1.0  0.51335  0.59551  0.05651  1.0000
  H   H35       1.0  0.98664  0.09550  0.05650  1.0000
  H   H36       1.0  0.48664  0.40449  0.94350  1.0000
  H   H37       1.0  0.97724  0.79603  0.80740  1.0000
  H   H38       1.0  0.47724  0.70398  0.19261  1.0000
  H   H39       1.0  0.02275  0.20397  0.19260  1.0000
  H   H40       1.0  0.52276  0.29602  0.80740  1.0000
  H   H41       1.0  0.13117  0.85038  0.83491  1.0000
  H   H42       1.0  0.63118  0.64963  0.16509  1.0000
  H   H43       1.0  0.86882  0.14962  0.16509  1.0000
  H   H44       1.0  0.36882  0.35037  0.83491  1.0000
  H   H45       1.0  0.00872  0.60795  0.12278  1.0000
  H   H46       1.0  0.50873  0.89205  0.87722  1.0000
  H   H47       1.0  0.99128  0.39206  0.87723  1.0000
  H   H48       1.0  0.49128  0.10795  0.12278  1.0000
  H   H49       1.0  0.95693  0.75472  0.15654  1.0000
  H   H50       1.0  0.45693  0.74528  0.84345  1.0000
  H   H51       1.0  0.04308  0.24528  0.84346  1.0000
  H   H52       1.0  0.54308  0.25472  0.15654  1.0000
  H   H53       1.0  0.11291  0.72408  0.18707  1.0000
  H   H54       1.0  0.61292  0.77593  0.81293  1.0000
  H   H55       1.0  0.88709  0.27593  0.81293  1.0000
  H   H56       1.0  0.38709  0.22407  0.18707  1.0000
  H   H57       1.0  0.29296  0.57423  0.85158  1.0000
  H   H58       1.0  0.79295  0.92577  0.14842  1.0000
  H   H59       1.0  0.70704  0.42577  0.14842  1.0000
  H   H60       1.0  0.20705  0.07423  0.85158  1.0000
  H   H61       1.0  0.15754  0.50829  0.76971  1.0000
  H   H62       1.0  0.65754  0.99171  0.23029  1.0000
  H   H63       1.0  0.84246  0.49171  0.23029  1.0000
  H   H64       1.0  0.34247  0.00829  0.76971  1.0000
  H   H65       1.0  0.19506  0.48224  0.90454  1.0000
  H   H66       1.0  0.69506  0.01776  0.09546  1.0000
  H   H67       1.0  0.80494  0.51776  0.09546  1.0000
  H   H68       1.0  0.30494  0.98223  0.90454  1.0000
  C   C1        1.0  0.13061  0.90977  0.38598  1.0000
  C   C2        1.0  0.63061  0.59023  0.61402  1.0000
  C   C3        1.0  0.86940  0.09023  0.61402  1.0000
  C   C4        1.0  0.36939  0.40977  0.38597  1.0000
  C   C5        1.0  0.17179  0.83680  0.44969  1.0000
  C   C6        1.0  0.67179  0.66320  0.55030  1.0000
  C   C7        1.0  0.82821  0.16320  0.55030  1.0000
  C   C8        1.0  0.32821  0.33680  0.44970  1.0000
  C   C9        1.0  0.93211  0.86530  0.39451  1.0000
  C   C10       1.0  0.43212  0.63469  0.60549  1.0000
  C   C11       1.0  0.06789  0.13469  0.60549  1.0000
  C   C12       1.0  0.56788  0.36530  0.39451  1.0000
  C   C13       1.0  0.21164  0.97189  0.15531  1.0000
  C   C14       1.0  0.71164  0.52811  0.84468  1.0000
  C   C15       1.0  0.78836  0.02811  0.84468  1.0000
  C   C16       1.0  0.28835  0.47189  0.15532  1.0000
  C   C17       1.0  0.08317  0.76953  0.48810  1.0000
  C   C18       1.0  0.58318  0.73047  0.51190  1.0000
  C   C19       1.0  0.91683  0.23047  0.51190  1.0000
  C   C20       1.0  0.41682  0.26953  0.48809  1.0000
  C   C21       1.0  0.23949  0.03677  0.28443  1.0000
  C   C22       1.0  0.73949  0.46323  0.71557  1.0000
  C   C23       1.0  0.76051  0.96323  0.71557  1.0000
  C   C24       1.0  0.26051  0.53677  0.28443  1.0000
  C   C25       1.0  0.33452  0.91521  0.40341  1.0000
  C   C26       1.0  0.83451  0.58479  0.59658  1.0000
  C   C27       1.0  0.66549  0.08479  0.59658  1.0000
  C   C28       1.0  0.16548  0.41520  0.40342  1.0000
  C   C29       1.0  0.04788  0.82808  0.87533  1.0000
  C   C30       1.0  0.54788  0.67193  0.12467  1.0000
  C   C31       1.0  0.95212  0.17192  0.12466  1.0000
  C   C32       1.0  0.45212  0.32807  0.87534  1.0000
  C   C33       1.0  0.03506  0.69618  0.12653  1.0000
  C   C34       1.0  0.53506  0.80383  0.87347  1.0000
  C   C35       1.0  0.96494  0.30383  0.87347  1.0000
  C   C36       1.0  0.46495  0.19617  0.12653  1.0000
  C   C37       1.0  0.19741  0.54728  0.85762  1.0000
  C   C38       1.0  0.69741  0.95273  0.14238  1.0000
  C   C39       1.0  0.80259  0.45273  0.14238  1.0000
  C   C40       1.0  0.30259  0.04727  0.85762  1.0000
  C   C41       1.0  0.30902  0.88149  0.09888  1.0000
  C   C42       1.0  0.80902  0.61851  0.90112  1.0000
  C   C43       1.0  0.69098  0.11851  0.90112  1.0000
  C   C44       1.0  0.19098  0.38149  0.09888  1.0000
  N   N1        1.0  0.01446  0.92898  0.35761  1.0000
  N   N2        1.0  0.51447  0.57102  0.64239  1.0000
  N   N3        1.0  0.98554  0.07102  0.64239  1.0000
  N   N4        1.0  0.48554  0.42898  0.35761  1.0000
  N   N5        1.0  0.96366  0.78897  0.45484  1.0000
  N   N6        1.0  0.46366  0.71103  0.54516  1.0000
  N   N7        1.0  0.03634  0.21103  0.54516  1.0000
  N   N8        1.0  0.53634  0.28897  0.45484  1.0000
  N   N9        1.0  0.23615  0.95904  0.35688  1.0000
  N   N10       1.0  0.73615  0.54096  0.64312  1.0000
  N   N11       1.0  0.76385  0.04096  0.64312  1.0000
  N   N12       1.0  0.26385  0.45904  0.35688  1.0000
  N   N13       1.0  0.81209  0.87289  0.36928  1.0000
  N   N14       1.0  0.31209  0.62711  0.63072  1.0000
  N   N15       1.0  0.18792  0.12711  0.63072  1.0000
  N   N16       1.0  0.68791  0.37289  0.36928  1.0000
  N   N17       1.0  0.29894  0.84201  0.45996  1.0000
  N   N18       1.0  0.79894  0.65799  0.54004  1.0000
  N   N19       1.0  0.70106  0.15799  0.54004  1.0000
  N   N20       1.0  0.20106  0.34201  0.45996  1.0000
  O   O1        1.0  0.10116  0.69747  0.54325  1.0000
  O   O2        1.0  0.60115  0.80252  0.45675  1.0000
  O   O3        1.0  0.89885  0.30253  0.45676  1.0000
  O   O4        1.0  0.39884  0.19748  0.54325  1.0000
  O   O5        1.0  0.42066  0.91139  0.12863  1.0000
  O   O6        1.0  0.92067  0.58862  0.87137  1.0000
  O   O7        1.0  0.57933  0.08861  0.87137  1.0000
  O   O8        1.0  0.07933  0.41138  0.12863  1.0000
  O   O9        1.0  0.27970  0.78485  0.02627  1.0000
  O   O10       1.0  0.77970  0.71516  0.97373  1.0000
  O   O11       1.0  0.72030  0.21516  0.97373  1.0000
  O   O12       1.0  0.22030  0.28485  0.02627  1.0000
