data_image0
_chemical_formula_structural       K4H52C72O4
_chemical_formula_sum              "K4 H52 C72 O4"
_cell_length_a       5.42771
_cell_length_b       11.959
_cell_length_c       20.4944
_cell_angle_alpha    89.9983
_cell_angle_beta     90.0004
_cell_angle_gamma    96.8932

_space_group_name_H-M_alt    "P 1"
_space_group_IT_number       1

loop_
  _space_group_symop_operation_xyz
  'x, y, z'

loop_
  _atom_site_type_symbol
  _atom_site_label
  _atom_site_symmetry_multiplicity
  _atom_site_fract_x
  _atom_site_fract_y
  _atom_site_fract_z
  _atom_site_occupancy
  K   K1        1.0  0.75647  0.05822  0.45978  1.0000
  K   K2        1.0  0.24349  0.44178  0.95978  1.0000
  K   K3        1.0  0.24350  0.94181  0.54022  1.0000
  K   K4        1.0  0.75649  0.55819  0.04020  1.0000
  H   H1        1.0  0.09771  0.38985  0.32012  1.0000
  H   H2        1.0  0.90229  0.11017  0.82012  1.0000
  H   H3        1.0  0.90228  0.61018  0.67989  1.0000
  H   H4        1.0  0.09773  0.88981  0.17988  1.0000
  H   H5        1.0  0.39757  0.53136  0.37527  1.0000
  H   H6        1.0  0.60245  0.96865  0.87527  1.0000
  H   H7        1.0  0.60244  0.46866  0.62473  1.0000
  H   H8        1.0  0.39756  0.03133  0.12473  1.0000
  H   H9        1.0  0.65452  0.47011  0.46580  1.0000
  H   H10       1.0  0.34549  0.02990  0.96580  1.0000
  H   H11       1.0  0.34549  0.52991  0.53420  1.0000
  H   H12       1.0  0.65453  0.97009  0.03420  1.0000
  H   H13       1.0  0.73353  0.29265  0.32690  1.0000
  H   H14       1.0  0.26646  0.20734  0.82690  1.0000
  H   H15       1.0  0.26646  0.70737  0.67311  1.0000
  H   H16       1.0  0.73354  0.79263  0.17311  1.0000
  H   H17       1.0  0.46226  0.17042  0.25271  1.0000
  H   H18       1.0  0.53775  0.32958  0.75271  1.0000
  H   H19       1.0  0.53771  0.82961  0.74730  1.0000
  H   H20       1.0  0.46229  0.67039  0.24730  1.0000
  H   H21       1.0  0.55921  0.97692  0.22641  1.0000
  H   H22       1.0  0.44084  0.52310  0.72641  1.0000
  H   H23       1.0  0.44073  0.02312  0.77359  1.0000
  H   H24       1.0  0.55923  0.47687  0.27358  1.0000
  H   H25       1.0  0.93011  0.90708  0.27677  1.0000
  H   H26       1.0  0.06994  0.59293  0.77677  1.0000
  H   H27       1.0  0.06983  0.09294  0.72322  1.0000
  H   H28       1.0  0.93012  0.40705  0.22322  1.0000
  H   H29       1.0  0.20978  0.03112  0.34828  1.0000
  H   H30       1.0  0.79023  0.46889  0.84827  1.0000
  H   H31       1.0  0.79018  0.96888  0.65171  1.0000
  H   H32       1.0  0.20979  0.53110  0.15171  1.0000
  H   H33       1.0  0.96444  0.38085  0.49142  1.0000
  H   H34       1.0  0.03554  0.11915  0.99142  1.0000
  H   H35       1.0  0.03556  0.61917  0.50858  1.0000
  H   H36       1.0  0.96446  0.88083  0.00858  1.0000
  H   H37       1.0  0.19245  0.37185  0.59519  1.0000
  H   H38       1.0  0.80755  0.12816  0.09519  1.0000
  H   H39       1.0  0.80755  0.62816  0.40481  1.0000
  H   H40       1.0  0.19247  0.87184  0.90481  1.0000
  H   H41       1.0  0.00390  0.26034  0.68836  1.0000
  H   H42       1.0  0.99613  0.23967  0.18836  1.0000
  H   H43       1.0  0.99609  0.73967  0.31164  1.0000
  H   H44       1.0  0.00391  0.76033  0.81164  1.0000
  H   H45       1.0  0.57893  0.15402  0.67605  1.0000
  H   H46       1.0  0.42109  0.34598  0.17604  1.0000
  H   H47       1.0  0.42105  0.84599  0.32395  1.0000
  H   H48       1.0  0.57895  0.65401  0.82396  1.0000
  H   H49       1.0  0.34147  0.17161  0.57423  1.0000
  H   H50       1.0  0.65853  0.32839  0.07422  1.0000
  H   H51       1.0  0.65852  0.82841  0.42577  1.0000
  H   H52       1.0  0.34149  0.67158  0.92577  1.0000
  C   C1        1.0  0.30765  0.21463  0.43626  1.0000
  C   C2        1.0  0.69232  0.28538  0.93625  1.0000
  C   C3        1.0  0.69232  0.78539  0.56374  1.0000
  C   C4        1.0  0.30767  0.71460  0.06374  1.0000
  C   C5        1.0  0.17312  0.25088  0.38058  1.0000
  C   C6        1.0  0.82688  0.24913  0.88057  1.0000
  C   C7        1.0  0.82689  0.74914  0.61943  1.0000
  C   C8        1.0  0.17312  0.75084  0.11942  1.0000
  C   C9        1.0  0.20650  0.36404  0.36095  1.0000
  C   C10       1.0  0.79350  0.13597  0.86095  1.0000
  C   C11       1.0  0.79349  0.63599  0.63905  1.0000
  C   C12       1.0  0.20652  0.86401  0.13905  1.0000
  C   C13       1.0  0.37779  0.44366  0.39084  1.0000
  C   C14       1.0  0.62221  0.05634  0.89085  1.0000
  C   C15       1.0  0.62221  0.55636  0.60916  1.0000
  C   C16       1.0  0.37779  0.94364  0.10916  1.0000
  C   C17       1.0  0.51986  0.40893  0.44176  1.0000
  C   C18       1.0  0.48014  0.09108  0.94175  1.0000
  C   C19       1.0  0.48016  0.59110  0.55825  1.0000
  C   C20       1.0  0.51986  0.90890  0.05824  1.0000
  C   C21       1.0  0.48621  0.29862  0.46620  1.0000
  C   C22       1.0  0.51378  0.20139  0.96619  1.0000
  C   C23       1.0  0.51378  0.70142  0.53381  1.0000
  C   C24       1.0  0.48623  0.79858  0.03380  1.0000
  C   C25       1.0  0.99897  0.17285  0.34150  1.0000
  C   C26       1.0  0.00103  0.32716  0.84150  1.0000
  C   C27       1.0  0.00101  0.82717  0.65850  1.0000
  C   C28       1.0  0.99898  0.67282  0.15850  1.0000
  C   C29       1.0  0.78291  0.20954  0.31427  1.0000
  C   C30       1.0  0.21708  0.29046  0.81427  1.0000
  C   C31       1.0  0.21707  0.79048  0.68574  1.0000
  C   C32       1.0  0.78292  0.70951  0.18573  1.0000
  C   C33       1.0  0.62736  0.14003  0.27311  1.0000
  C   C34       1.0  0.37265  0.35997  0.77311  1.0000
  C   C35       1.0  0.37259  0.86000  0.72690  1.0000
  C   C36       1.0  0.62739  0.63999  0.22689  1.0000
  C   C37       1.0  0.67986  0.03105  0.25887  1.0000
  C   C38       1.0  0.32017  0.46897  0.75887  1.0000
  C   C39       1.0  0.32010  0.96898  0.74114  1.0000
  C   C40       1.0  0.67986  0.53101  0.24113  1.0000
  C   C41       1.0  0.88876  0.99238  0.28676  1.0000
  C   C42       1.0  0.11127  0.50763  0.78676  1.0000
  C   C43       1.0  0.11121  0.00764  0.71324  1.0000
  C   C44       1.0  0.88875  0.49235  0.21323  1.0000
  C   C45       1.0  0.04641  0.06188  0.32744  1.0000
  C   C46       1.0  0.95361  0.43813  0.82743  1.0000
  C   C47       1.0  0.95356  0.93813  0.67256  1.0000
  C   C48       1.0  0.04640  0.56185  0.17256  1.0000
  C   C49       1.0  0.63339  0.27711  0.52485  1.0000
  C   C50       1.0  0.36660  0.22290  0.02484  1.0000
  C   C51       1.0  0.36660  0.72291  0.47515  1.0000
  C   C52       1.0  0.63341  0.77709  0.97515  1.0000
  C   C53       1.0  0.87720  0.33220  0.53208  1.0000
  C   C54       1.0  0.12280  0.16780  0.03207  1.0000
  C   C55       1.0  0.12280  0.66782  0.46793  1.0000
  C   C56       1.0  0.87721  0.83218  0.96793  1.0000
  C   C57       1.0  0.00719  0.32632  0.59036  1.0000
  C   C58       1.0  0.99282  0.17369  0.09036  1.0000
  C   C59       1.0  0.99281  0.67370  0.40964  1.0000
  C   C60       1.0  0.00719  0.82630  0.90964  1.0000
  C   C61       1.0  0.90177  0.26273  0.64267  1.0000
  C   C62       1.0  0.09824  0.23727  0.14267  1.0000
  C   C63       1.0  0.09821  0.73727  0.35733  1.0000
  C   C64       1.0  0.90180  0.76273  0.85733  1.0000
  C   C65       1.0  0.66463  0.20405  0.63572  1.0000
  C   C66       1.0  0.33537  0.29595  0.13571  1.0000
  C   C67       1.0  0.33536  0.79596  0.36429  1.0000
  C   C68       1.0  0.66465  0.70404  0.86429  1.0000
  C   C69       1.0  0.53220  0.21120  0.57772  1.0000
  C   C70       1.0  0.46780  0.28880  0.07771  1.0000
  C   C71       1.0  0.46780  0.78882  0.42228  1.0000
  C   C72       1.0  0.53222  0.71119  0.92229  1.0000
  O   O1        1.0  0.27023  0.11070  0.45848  1.0000
  O   O2        1.0  0.72973  0.38931  0.95847  1.0000
  O   O3        1.0  0.72974  0.88933  0.54153  1.0000
  O   O4        1.0  0.27027  0.61067  0.04152  1.0000
