data_image0
_chemical_formula_structural       Sn4H68C44N20O12
_chemical_formula_sum              "Sn4 H68 C44 N20 O12"
_cell_length_a       9.6922
_cell_length_b       11.9785
_cell_length_c       12.936
_cell_angle_alpha    103.663
_cell_angle_beta     90
_cell_angle_gamma    90

_space_group_name_H-M_alt    "P 1"
_space_group_IT_number       1

loop_
  _space_group_symop_operation_xyz
  'x, y, z'

loop_
  _atom_site_type_symbol
  _atom_site_label
  _atom_site_symmetry_multiplicity
  _atom_site_fract_x
  _atom_site_fract_y
  _atom_site_fract_z
  _atom_site_occupancy
  Sn  Sn1       1.0  0.16753  0.95264  0.18872  1.0000
  Sn  Sn2       1.0  0.66753  0.04736  0.31128  1.0000
  Sn  Sn3       1.0  0.83247  0.04736  0.81128  1.0000
  Sn  Sn4       1.0  0.33247  0.95264  0.68872  1.0000
  H   H1        1.0  0.15992  0.15924  0.39642  1.0000
  H   H2        1.0  0.65992  0.84076  0.10358  1.0000
  H   H3        1.0  0.84008  0.84076  0.60358  1.0000
  H   H4        1.0  0.34008  0.15924  0.89642  1.0000
  H   H5        1.0  0.13829  0.08277  0.49598  1.0000
  H   H6        1.0  0.63829  0.91723  0.00402  1.0000
  H   H7        1.0  0.86171  0.91723  0.50402  1.0000
  H   H8        1.0  0.36171  0.08277  0.99598  1.0000
  H   H9        1.0  0.98414  0.23458  0.59924  1.0000
  H   H10       1.0  0.48414  0.76542  0.90076  1.0000
  H   H11       1.0  0.01586  0.76542  0.40076  1.0000
  H   H12       1.0  0.51586  0.23458  0.09924  1.0000
  H   H13       1.0  0.14020  0.29692  0.56800  1.0000
  H   H14       1.0  0.64020  0.70308  0.93200  1.0000
  H   H15       1.0  0.85980  0.70308  0.43200  1.0000
  H   H16       1.0  0.35980  0.29692  0.06800  1.0000
  H   H17       1.0  0.76724  0.31482  0.55243  1.0000
  H   H18       1.0  0.26724  0.68518  0.94757  1.0000
  H   H19       1.0  0.23276  0.68518  0.44757  1.0000
  H   H20       1.0  0.73276  0.31482  0.05243  1.0000
  H   H21       1.0  0.92289  0.58534  0.14787  1.0000
  H   H22       1.0  0.42289  0.41466  0.35213  1.0000
  H   H23       1.0  0.07711  0.41466  0.85213  1.0000
  H   H24       1.0  0.57711  0.58534  0.64787  1.0000
  H   H25       1.0  0.10445  0.56218  0.12994  1.0000
  H   H26       1.0  0.60445  0.43782  0.37006  1.0000
  H   H27       1.0  0.89555  0.43782  0.87006  1.0000
  H   H28       1.0  0.39555  0.56218  0.62994  1.0000
  H   H29       1.0  0.18835  0.84755  0.35123  1.0000
  H   H30       1.0  0.68835  0.15245  0.14877  1.0000
  H   H31       1.0  0.81165  0.15245  0.64877  1.0000
  H   H32       1.0  0.31165  0.84755  0.85123  1.0000
  H   H33       1.0  0.33893  0.93274  0.35150  1.0000
  H   H34       1.0  0.83893  0.06726  0.14850  1.0000
  H   H35       1.0  0.66107  0.06726  0.64850  1.0000
  H   H36       1.0  0.16107  0.93274  0.85150  1.0000
  H   H37       1.0  0.32455  0.79680  0.25798  1.0000
  H   H38       1.0  0.82455  0.20320  0.24202  1.0000
  H   H39       1.0  0.67545  0.20320  0.74202  1.0000
  H   H40       1.0  0.17545  0.79680  0.75798  1.0000
  H   H41       1.0  0.07491  0.81954  0.00171  1.0000
  H   H42       1.0  0.57491  0.18046  0.49829  1.0000
  H   H43       1.0  0.92509  0.18046  0.99829  1.0000
  H   H44       1.0  0.42509  0.81954  0.50171  1.0000
  H   H45       1.0  0.93500  0.90166  0.07073  1.0000
  H   H46       1.0  0.43500  0.09834  0.42927  1.0000
  H   H47       1.0  0.06500  0.09833  0.92927  1.0000
  H   H48       1.0  0.56500  0.90166  0.57073  1.0000
  H   H49       1.0  0.99031  0.77554  0.10882  1.0000
  H   H50       1.0  0.49031  0.22446  0.39118  1.0000
  H   H51       1.0  0.00969  0.22446  0.89118  1.0000
  H   H52       1.0  0.50970  0.77554  0.60882  1.0000
  H   H53       1.0  0.17943  0.13152  0.09630  1.0000
  H   H54       1.0  0.67943  0.86848  0.40370  1.0000
  H   H55       1.0  0.82057  0.86848  0.90370  1.0000
  H   H56       1.0  0.32057  0.13152  0.59630  1.0000
  H   H57       1.0  0.27337  0.16919  0.21902  1.0000
  H   H58       1.0  0.77337  0.83081  0.28098  1.0000
  H   H59       1.0  0.72663  0.83081  0.78098  1.0000
  H   H60       1.0  0.22663  0.16919  0.71902  1.0000
  H   H61       1.0  0.08861  0.17633  0.21837  1.0000
  H   H62       1.0  0.58861  0.82367  0.28163  1.0000
  H   H63       1.0  0.91139  0.82367  0.78163  1.0000
  H   H64       1.0  0.41139  0.17632  0.71837  1.0000
  H   H65       1.0  0.22312  0.47105  0.24606  1.0000
  H   H66       1.0  0.72312  0.52895  0.25394  1.0000
  H   H67       1.0  0.77688  0.52895  0.75394  1.0000
  H   H68       1.0  0.27688  0.47105  0.74606  1.0000
  C   C1        1.0  0.96491  0.07399  0.39386  1.0000
  C   C2        1.0  0.46491  0.92601  0.10614  1.0000
  C   C3        1.0  0.03509  0.92601  0.60614  1.0000
  C   C4        1.0  0.53508  0.07399  0.89386  1.0000
  C   C5        1.0  0.13942  0.38987  0.35704  1.0000
  C   C6        1.0  0.63942  0.61013  0.14296  1.0000
  C   C7        1.0  0.86058  0.61013  0.64297  1.0000
  C   C8        1.0  0.36058  0.38987  0.85704  1.0000
  C   C9        1.0  0.08530  0.14025  0.45395  1.0000
  C   C10       1.0  0.58530  0.85975  0.04605  1.0000
  C   C11       1.0  0.91470  0.85975  0.54605  1.0000
  C   C12       1.0  0.41470  0.14025  0.95395  1.0000
  C   C13       1.0  0.00830  0.37614  0.40190  1.0000
  C   C14       1.0  0.50830  0.62386  0.09810  1.0000
  C   C15       1.0  0.99170  0.62386  0.59810  1.0000
  C   C16       1.0  0.49170  0.37614  0.90190  1.0000
  C   C17       1.0  0.00739  0.49519  0.24632  1.0000
  C   C18       1.0  0.50739  0.50481  0.25368  1.0000
  C   C19       1.0  0.99261  0.50481  0.75368  1.0000
  C   C20       1.0  0.49261  0.49519  0.74632  1.0000
  C   C21       1.0  0.04642  0.25152  0.53391  1.0000
  C   C22       1.0  0.54642  0.74848  0.96609  1.0000
  C   C23       1.0  0.95358  0.74848  0.46609  1.0000
  C   C24       1.0  0.45358  0.25152  0.03391  1.0000
  C   C25       1.0  0.82748  0.34632  0.49455  1.0000
  C   C26       1.0  0.32748  0.65368  0.00545  1.0000
  C   C27       1.0  0.17252  0.65368  0.50545  1.0000
  C   C28       1.0  0.67252  0.34632  0.99455  1.0000
  C   C29       1.0  0.88941  0.42431  0.36847  1.0000
  C   C30       1.0  0.38941  0.57569  0.13153  1.0000
  C   C31       1.0  0.11058  0.57569  0.63153  1.0000
  C   C32       1.0  0.61059  0.42431  0.86847  1.0000
  C   C33       1.0  0.26773  0.87278  0.30101  1.0000
  C   C34       1.0  0.76773  0.12722  0.19899  1.0000
  C   C35       1.0  0.73227  0.12722  0.69899  1.0000
  C   C36       1.0  0.23227  0.87278  0.80101  1.0000
  C   C37       1.0  0.02514  0.84934  0.07939  1.0000
  C   C38       1.0  0.52514  0.15066  0.42061  1.0000
  C   C39       1.0  0.97486  0.15066  0.92061  1.0000
  C   C40       1.0  0.47486  0.84934  0.57939  1.0000
  C   C41       1.0  0.17922  0.12927  0.18048  1.0000
  C   C42       1.0  0.67922  0.87073  0.31952  1.0000
  C   C43       1.0  0.82078  0.87073  0.81952  1.0000
  C   C44       1.0  0.32078  0.12926  0.68048  1.0000
  N   N1        1.0  0.12793  0.45111  0.27741  1.0000
  N   N2        1.0  0.62793  0.54889  0.22259  1.0000
  N   N3        1.0  0.87207  0.54889  0.72259  1.0000
  N   N4        1.0  0.37207  0.45111  0.77741  1.0000
  N   N5        1.0  0.96577  0.32741  0.48407  1.0000
  N   N6        1.0  0.46577  0.67259  0.01593  1.0000
  N   N7        1.0  0.03423  0.67259  0.51593  1.0000
  N   N8        1.0  0.53423  0.32741  0.98407  1.0000
  N   N9        1.0  0.88529  0.48292  0.29107  1.0000
  N   N10       1.0  0.38529  0.51708  0.20893  1.0000
  N   N11       1.0  0.11471  0.51708  0.70893  1.0000
  N   N12       1.0  0.61471  0.48292  0.79107  1.0000
  N   N13       1.0  0.77724  0.40473  0.42699  1.0000
  N   N14       1.0  0.27724  0.59527  0.07301  1.0000
  N   N15       1.0  0.22276  0.59527  0.57301  1.0000
  N   N16       1.0  0.72276  0.40473  0.92699  1.0000
  N   N17       1.0  0.01408  0.55300  0.16960  1.0000
  N   N18       1.0  0.51408  0.44700  0.33040  1.0000
  N   N19       1.0  0.98592  0.44700  0.83040  1.0000
  N   N20       1.0  0.48592  0.55300  0.66960  1.0000
  O   O1        1.0  0.84352  0.09785  0.43194  1.0000
  O   O2        1.0  0.34352  0.90215  0.06806  1.0000
  O   O3        1.0  0.15648  0.90215  0.56806  1.0000
  O   O4        1.0  0.65647  0.09785  0.93194  1.0000
  O   O5        1.0  0.98575  0.99738  0.30894  1.0000
  O   O6        1.0  0.48575  0.00262  0.19106  1.0000
  O   O7        1.0  0.01425  0.00262  0.69106  1.0000
  O   O8        1.0  0.51425  0.99738  0.80894  1.0000
  O   O9        1.0  0.25401  0.35460  0.38073  1.0000
  O   O10       1.0  0.75401  0.64540  0.11928  1.0000
  O   O11       1.0  0.74599  0.64540  0.61928  1.0000
  O   O12       1.0  0.24599  0.35460  0.88073  1.0000
