data_image0
_chemical_formula_structural       Zn4H32C52S4N4O16
_chemical_formula_sum              "Zn4 H32 C52 S4 N4 O16"
_cell_length_a       8.19401
_cell_length_b       10.7156
_cell_length_c       15.316
_cell_angle_alpha    90
_cell_angle_beta     90
_cell_angle_gamma    96.3349

_space_group_name_H-M_alt    "P 1"
_space_group_IT_number       1

loop_
  _space_group_symop_operation_xyz
  'x, y, z'

loop_
  _atom_site_type_symbol
  _atom_site_label
  _atom_site_symmetry_multiplicity
  _atom_site_fract_x
  _atom_site_fract_y
  _atom_site_fract_z
  _atom_site_occupancy
  Zn  Zn1       1.0  0.85571  0.40701  0.52738  1.0000
  Zn  Zn2       1.0  0.64430  0.09298  0.02737  1.0000
  Zn  Zn3       1.0  0.14430  0.59298  0.47262  1.0000
  Zn  Zn4       1.0  0.35570  0.90701  0.97262  1.0000
  H   H1        1.0  0.55235  0.36542  0.43158  1.0000
  H   H2        1.0  0.94766  0.13458  0.93159  1.0000
  H   H3        1.0  0.44765  0.63458  0.56841  1.0000
  H   H4        1.0  0.05234  0.86542  0.06841  1.0000
  H   H5        1.0  0.29668  0.21860  0.42744  1.0000
  H   H6        1.0  0.20332  0.28141  0.92744  1.0000
  H   H7        1.0  0.70332  0.78141  0.57256  1.0000
  H   H8        1.0  0.79668  0.71860  0.07256  1.0000
  H   H9        1.0  0.48339  0.02452  0.64731  1.0000
  H   H10       1.0  0.01660  0.47548  0.14731  1.0000
  H   H11       1.0  0.51661  0.97548  0.35269  1.0000
  H   H12       1.0  0.98339  0.52452  0.85269  1.0000
  H   H13       1.0  0.73488  0.17817  0.64037  1.0000
  H   H14       1.0  0.76511  0.32183  0.14037  1.0000
  H   H15       1.0  0.26511  0.82183  0.35963  1.0000
  H   H16       1.0  0.23488  0.67817  0.85963  1.0000
  H   H17       1.0  0.21716  0.93658  0.57820  1.0000
  H   H18       1.0  0.28284  0.56341  0.07820  1.0000
  H   H19       1.0  0.78284  0.06342  0.42180  1.0000
  H   H20       1.0  0.71715  0.43658  0.92181  1.0000
  H   H21       1.0  0.06424  0.13171  0.46421  1.0000
  H   H22       1.0  0.43575  0.36829  0.96421  1.0000
  H   H23       1.0  0.93575  0.86829  0.53579  1.0000
  H   H24       1.0  0.56424  0.63170  0.03580  1.0000
  H   H25       1.0  0.11963  0.84884  0.70213  1.0000
  H   H26       1.0  0.38036  0.65115  0.20215  1.0000
  H   H27       1.0  0.88036  0.15115  0.29786  1.0000
  H   H28       1.0  0.61964  0.34884  0.79786  1.0000
  H   H29       1.0  0.99800  0.97201  0.83246  1.0000
  H   H30       1.0  0.50200  0.52800  0.33247  1.0000
  H   H31       1.0  0.00200  0.02799  0.16754  1.0000
  H   H32       1.0  0.49801  0.47201  0.66754  1.0000
  C   C1        1.0  0.53121  0.28839  0.47804  1.0000
  C   C2        1.0  0.96879  0.21161  0.97804  1.0000
  C   C3        1.0  0.46879  0.71161  0.52196  1.0000
  C   C4        1.0  0.03120  0.78839  0.02195  1.0000
  C   C5        1.0  0.38832  0.20697  0.47718  1.0000
  C   C6        1.0  0.11168  0.29303  0.97718  1.0000
  C   C7        1.0  0.61168  0.79303  0.52281  1.0000
  C   C8        1.0  0.88832  0.70697  0.02282  1.0000
  C   C9        1.0  0.36386  0.10939  0.53889  1.0000
  C   C10       1.0  0.13613  0.39061  0.03889  1.0000
  C   C11       1.0  0.63614  0.89062  0.46111  1.0000
  C   C12       1.0  0.86386  0.60939  0.96111  1.0000
  C   C13       1.0  0.49303  0.09870  0.59824  1.0000
  C   C14       1.0  0.00697  0.40130  0.09824  1.0000
  C   C15       1.0  0.50698  0.90130  0.40176  1.0000
  C   C16       1.0  0.99302  0.59870  0.90176  1.0000
  C   C17       1.0  0.63332  0.18412  0.59514  1.0000
  C   C18       1.0  0.86667  0.31589  0.09513  1.0000
  C   C19       1.0  0.36668  0.81588  0.40486  1.0000
  C   C20       1.0  0.13332  0.68412  0.90486  1.0000
  C   C21       1.0  0.21418  0.02304  0.54058  1.0000
  C   C22       1.0  0.28582  0.47696  0.04058  1.0000
  C   C23       1.0  0.78582  0.97696  0.45942  1.0000
  C   C24       1.0  0.71418  0.52304  0.95942  1.0000
  C   C25       1.0  0.07259  0.04377  0.49923  1.0000
  C   C26       1.0  0.42740  0.45623  0.99923  1.0000
  C   C27       1.0  0.92740  0.95623  0.50077  1.0000
  C   C28       1.0  0.57260  0.54377  0.00078  1.0000
  C   C29       1.0  0.91931  0.63788  0.62999  1.0000
  C   C30       1.0  0.58069  0.86211  0.12999  1.0000
  C   C31       1.0  0.08069  0.36211  0.37001  1.0000
  C   C32       1.0  0.41930  0.13788  0.87001  1.0000
  C   C33       1.0  0.89009  0.72602  0.70109  1.0000
  C   C34       1.0  0.60990  0.77397  0.20109  1.0000
  C   C35       1.0  0.10990  0.27397  0.29891  1.0000
  C   C36       1.0  0.39009  0.22602  0.79891  1.0000
  C   C37       1.0  0.99777  0.82663  0.72978  1.0000
  C   C38       1.0  0.50222  0.67337  0.22979  1.0000
  C   C39       1.0  0.00222  0.17336  0.27021  1.0000
  C   C40       1.0  0.49778  0.32663  0.77022  1.0000
  C   C41       1.0  0.93265  0.89226  0.79878  1.0000
  C   C42       1.0  0.56735  0.60774  0.29879  1.0000
  C   C43       1.0  0.06735  0.10774  0.20121  1.0000
  C   C44       1.0  0.43266  0.39226  0.70121  1.0000
  C   C45       1.0  0.77512  0.84177  0.82093  1.0000
  C   C46       1.0  0.72488  0.65823  0.32093  1.0000
  C   C47       1.0  0.22489  0.15823  0.17907  1.0000
  C   C48       1.0  0.27513  0.34177  0.67907  1.0000
  C   C49       1.0  0.66933  0.88698  0.88922  1.0000
  C   C50       1.0  0.83068  0.61303  0.38922  1.0000
  C   C51       1.0  0.33069  0.11303  0.11078  1.0000
  C   C52       1.0  0.16934  0.38698  0.61078  1.0000
  S   S1        1.0  0.70844  0.71283  0.75837  1.0000
  S   S2        1.0  0.79156  0.78716  0.25837  1.0000
  S   S3        1.0  0.29156  0.28717  0.24162  1.0000
  S   S4        1.0  0.20844  0.21284  0.74162  1.0000
  N   N1        1.0  0.65280  0.27853  0.53638  1.0000
  N   N2        1.0  0.84720  0.22147  0.03637  1.0000
  N   N3        1.0  0.34720  0.72147  0.46362  1.0000
  N   N4        1.0  0.15280  0.77853  0.96362  1.0000
  O   O1        1.0  0.82060  0.53749  0.62368  1.0000
  O   O2        1.0  0.67939  0.96250  0.12367  1.0000
  O   O3        1.0  0.17940  0.46250  0.37633  1.0000
  O   O4        1.0  0.32060  0.03749  0.87632  1.0000
  O   O5        1.0  0.04090  0.67271  0.58072  1.0000
  O   O6        1.0  0.45910  0.82728  0.08071  1.0000
  O   O7        1.0  0.95909  0.32728  0.41928  1.0000
  O   O8        1.0  0.54090  0.17270  0.91928  1.0000
  O   O9        1.0  0.52153  0.83497  0.89312  1.0000
  O   O10       1.0  0.97848  0.66504  0.39312  1.0000
  O   O11       1.0  0.47848  0.16504  0.10688  1.0000
  O   O12       1.0  0.02154  0.33497  0.60688  1.0000
  O   O13       1.0  0.73567  0.97421  0.93797  1.0000
  O   O14       1.0  0.76435  0.52579  0.43797  1.0000
  O   O15       1.0  0.26434  0.02578  0.06203  1.0000
  O   O16       1.0  0.23567  0.47422  0.56203  1.0000
