data_image0
_chemical_formula_structural       Cd4H28C44N16O16
_chemical_formula_sum              "Cd4 H28 C44 N16 O16"
_cell_length_a       10.5045
_cell_length_b       10.5692
_cell_length_c       13.102
_cell_angle_alpha    75.9237
_cell_angle_beta     75.8352
_cell_angle_gamma    63.6486

_space_group_name_H-M_alt    "P 1"
_space_group_IT_number       1

loop_
  _space_group_symop_operation_xyz
  'x, y, z'

loop_
  _atom_site_type_symbol
  _atom_site_label
  _atom_site_symmetry_multiplicity
  _atom_site_fract_x
  _atom_site_fract_y
  _atom_site_fract_z
  _atom_site_occupancy
  Cd  Cd1       1.0  0.24987  0.23005  0.83722  1.0000
  Cd  Cd2       1.0  0.76838  0.74967  0.66346  1.0000
  Cd  Cd3       1.0  0.75013  0.76995  0.16278  1.0000
  Cd  Cd4       1.0  0.23162  0.25033  0.33654  1.0000
  H   H1        1.0  0.06153  0.66797  0.01457  1.0000
  H   H2        1.0  0.33063  0.93940  0.48512  1.0000
  H   H3        1.0  0.93847  0.33203  0.98543  1.0000
  H   H4        1.0  0.66937  0.06060  0.51488  1.0000
  H   H5        1.0  0.06863  0.08842  0.06675  1.0000
  H   H6        1.0  0.90984  0.93200  0.43379  1.0000
  H   H7        1.0  0.93137  0.91158  0.93325  1.0000
  H   H8        1.0  0.09017  0.06800  0.56621  1.0000
  H   H9        1.0  0.17373  0.79749  0.13974  1.0000
  H   H10       1.0  0.20276  0.82591  0.36043  1.0000
  H   H11       1.0  0.82627  0.20251  0.86027  1.0000
  H   H12       1.0  0.79725  0.17409  0.63957  1.0000
  H   H13       1.0  0.40522  0.87530  0.83393  1.0000
  H   H14       1.0  0.12291  0.59634  0.66586  1.0000
  H   H15       1.0  0.59477  0.12470  0.16607  1.0000
  H   H16       1.0  0.87709  0.40366  0.33414  1.0000
  H   H17       1.0  0.40655  0.61244  0.16389  1.0000
  H   H18       1.0  0.38736  0.59372  0.33604  1.0000
  H   H19       1.0  0.59345  0.38756  0.83611  1.0000
  H   H20       1.0  0.61264  0.40628  0.66396  1.0000
  H   H21       1.0  0.43470  0.64695  0.82540  1.0000
  H   H22       1.0  0.35186  0.56634  0.67453  1.0000
  H   H23       1.0  0.56530  0.35306  0.17459  1.0000
  H   H24       1.0  0.64813  0.43366  0.32547  1.0000
  H   H25       1.0  0.35527  0.08635  0.09951  1.0000
  H   H26       1.0  0.91552  0.64365  0.39998  1.0000
  H   H27       1.0  0.64474  0.91365  0.90049  1.0000
  H   H28       1.0  0.08448  0.35635  0.60002  1.0000
  C   C1        1.0  0.15563  0.00124  0.02957  1.0000
  C   C2        1.0  0.99727  0.84523  0.47081  1.0000
  C   C3        1.0  0.84437  0.99876  0.97043  1.0000
  C   C4        1.0  0.00274  0.15477  0.52919  1.0000
  C   C5        1.0  0.20882  0.85804  0.06826  1.0000
  C   C6        1.0  0.14137  0.79155  0.43191  1.0000
  C   C7        1.0  0.79118  0.14196  0.93174  1.0000
  C   C8        1.0  0.85864  0.20845  0.56809  1.0000
  C   C9        1.0  0.32846  0.89619  0.90688  1.0000
  C   C10       1.0  0.10224  0.67297  0.59317  1.0000
  C   C11       1.0  0.67154  0.10381  0.09312  1.0000
  C   C12       1.0  0.89776  0.32703  0.40684  1.0000
  C   C13       1.0  0.40953  0.64448  0.99466  1.0000
  C   C14       1.0  0.35526  0.59094  0.50523  1.0000
  C   C15       1.0  0.59047  0.35552  0.00534  1.0000
  C   C16       1.0  0.64474  0.40906  0.49477  1.0000
  C   C17       1.0  0.44597  0.56198  0.09263  1.0000
  C   C18       1.0  0.43807  0.55409  0.40724  1.0000
  C   C19       1.0  0.55403  0.43802  0.90737  1.0000
  C   C20       1.0  0.56193  0.44591  0.59277  1.0000
  C   C21       1.0  0.46385  0.58262  0.90160  1.0000
  C   C22       1.0  0.41685  0.53672  0.59843  1.0000
  C   C23       1.0  0.53615  0.41739  0.09840  1.0000
  C   C24       1.0  0.58315  0.46328  0.40158  1.0000
  C   C25       1.0  0.29859  0.20201  0.08399  1.0000
  C   C26       1.0  0.79917  0.70068  0.41556  1.0000
  C   C27       1.0  0.70142  0.79799  0.91601  1.0000
  C   C28       1.0  0.20083  0.29932  0.58444  1.0000
  C   C29       1.0  0.19712  0.41981  0.00442  1.0000
  C   C30       1.0  0.58004  0.80265  0.49526  1.0000
  C   C31       1.0  0.80288  0.58019  0.99558  1.0000
  C   C32       1.0  0.41996  0.19735  0.50474  1.0000
  C   C33       1.0  0.18083  0.42236  0.11329  1.0000
  C   C34       1.0  0.57763  0.81943  0.38634  1.0000
  C   C35       1.0  0.81917  0.57765  0.88671  1.0000
  C   C36       1.0  0.42237  0.18057  0.61366  1.0000
  C   C37       1.0  0.15374  0.53257  0.91303  1.0000
  C   C38       1.0  0.46660  0.84668  0.58667  1.0000
  C   C39       1.0  0.84626  0.46743  0.08697  1.0000
  C   C40       1.0  0.53340  0.15332  0.41333  1.0000
  C   C41       1.0  0.09802  0.53875  0.17813  1.0000
  C   C42       1.0  0.46065  0.90268  0.32174  1.0000
  C   C43       1.0  0.90198  0.46125  0.82186  1.0000
  C   C44       1.0  0.53935  0.09732  0.67825  1.0000
  N   N1        1.0  0.23134  0.02337  0.92924  1.0000
  N   N2        1.0  0.97458  0.77022  0.57108  1.0000
  N   N3        1.0  0.76865  0.97663  0.07076  1.0000
  N   N4        1.0  0.02542  0.22978  0.42892  1.0000
  N   N5        1.0  0.31863  0.79207  0.98961  1.0000
  N   N6        1.0  0.20717  0.68219  0.51035  1.0000
  N   N7        1.0  0.68137  0.20793  0.01039  1.0000
  N   N8        1.0  0.79283  0.31781  0.48965  1.0000
  N   N9        1.0  0.27104  0.27999  0.98799  1.0000
  N   N10       1.0  0.72055  0.72802  0.51167  1.0000
  N   N11       1.0  0.72896  0.72001  0.01201  1.0000
  N   N12       1.0  0.27945  0.27198  0.48833  1.0000
  N   N13       1.0  0.24699  0.28411  0.16141  1.0000
  N   N14       1.0  0.71670  0.75306  0.33809  1.0000
  N   N15       1.0  0.75301  0.71589  0.83859  1.0000
  N   N16       1.0  0.28330  0.24694  0.66191  1.0000
  O   O1        1.0  0.08599  0.66622  0.93078  1.0000
  O   O2        1.0  0.33224  0.91485  0.56909  1.0000
  O   O3        1.0  0.91402  0.33378  0.06922  1.0000
  O   O4        1.0  0.66777  0.08515  0.43091  1.0000
  O   O5        1.0  0.18183  0.50175  0.82155  1.0000
  O   O6        1.0  0.49757  0.81881  0.67814  1.0000
  O   O7        1.0  0.81817  0.49825  0.17845  1.0000
  O   O8        1.0  0.50243  0.18119  0.32186  1.0000
  O   O9        1.0  0.02492  0.66391  0.12856  1.0000
  O   O10       1.0  0.33499  0.97602  0.37155  1.0000
  O   O11       1.0  0.97508  0.33609  0.87144  1.0000
  O   O12       1.0  0.66501  0.02398  0.62845  1.0000
  O   O13       1.0  0.09935  0.51081  0.27714  1.0000
  O   O14       1.0  0.48849  0.90151  0.22268  1.0000
  O   O15       1.0  0.90065  0.48919  0.72286  1.0000
  O   O16       1.0  0.51151  0.09849  0.77732  1.0000
