data_image0
_chemical_formula_structural       Tl4H12C16S4N8O8
_chemical_formula_sum              "Tl4 H12 C16 S4 N8 O8"
_cell_length_a       4.18411
_cell_length_b       11.2041
_cell_length_c       14.7516
_cell_angle_alpha    101.386
_cell_angle_beta     89.9999
_cell_angle_gamma    90.0001

_space_group_name_H-M_alt    "P 1"
_space_group_IT_number       1

loop_
  _space_group_symop_operation_xyz
  'x, y, z'

loop_
  _atom_site_type_symbol
  _atom_site_label
  _atom_site_symmetry_multiplicity
  _atom_site_fract_x
  _atom_site_fract_y
  _atom_site_fract_z
  _atom_site_occupancy
  Tl  Tl1       1.0  0.05125  0.50000  0.75000  1.0000
  Tl  Tl2       1.0  0.94874  0.50000  0.25000  1.0000
  Tl  Tl3       1.0  0.57573  0.00000  0.75000  1.0000
  Tl  Tl4       1.0  0.42427  0.00000  0.25000  1.0000
  H   H1        1.0  0.98171  0.07634  0.45100  1.0000
  H   H2        1.0  0.98171  0.92366  0.04900  1.0000
  H   H3        1.0  0.01829  0.92366  0.54900  1.0000
  H   H4        1.0  0.01829  0.07634  0.95100  1.0000
  H   H5        1.0  0.33651  0.42023  0.44869  1.0000
  H   H6        1.0  0.33651  0.57977  0.05131  1.0000
  H   H7        1.0  0.66349  0.57977  0.55131  1.0000
  H   H8        1.0  0.66349  0.42023  0.94869  1.0000
  H   H9        1.0  0.54052  0.25566  0.67666  1.0000
  H   H10       1.0  0.54051  0.74434  0.82334  1.0000
  H   H11       1.0  0.45948  0.74434  0.32334  1.0000
  H   H12       1.0  0.45948  0.25566  0.17666  1.0000
  C   C1        1.0  0.13494  0.24860  0.43803  1.0000
  C   C2        1.0  0.13494  0.75140  0.06197  1.0000
  C   C3        1.0  0.86506  0.75140  0.56197  1.0000
  C   C4        1.0  0.86506  0.24860  0.93803  1.0000
  C   C5        1.0  0.45819  0.35353  0.56651  1.0000
  C   C6        1.0  0.45819  0.64647  0.93349  1.0000
  C   C7        1.0  0.54181  0.64647  0.43349  1.0000
  C   C8        1.0  0.54181  0.35353  0.06651  1.0000
  C   C9        1.0  0.42214  0.25423  0.61076  1.0000
  C   C10       1.0  0.42213  0.74577  0.88924  1.0000
  C   C11       1.0  0.57787  0.74577  0.38925  1.0000
  C   C12       1.0  0.57787  0.25423  0.11075  1.0000
  C   C13       1.0  0.24570  0.15112  0.56886  1.0000
  C   C14       1.0  0.24569  0.84887  0.93114  1.0000
  C   C15       1.0  0.75430  0.84888  0.43114  1.0000
  C   C16       1.0  0.75430  0.15113  0.06886  1.0000
  S   S1        1.0  0.96253  0.24278  0.33344  1.0000
  S   S2        1.0  0.96253  0.75722  0.16656  1.0000
  S   S3        1.0  0.03747  0.75722  0.66656  1.0000
  S   S4        1.0  0.03748  0.24278  0.83344  1.0000
  N   N1        1.0  0.10940  0.15412  0.48253  1.0000
  N   N2        1.0  0.10939  0.84588  0.01747  1.0000
  N   N3        1.0  0.89061  0.84588  0.51747  1.0000
  N   N4        1.0  0.89061  0.15412  0.98253  1.0000
  N   N5        1.0  0.30683  0.34579  0.48091  1.0000
  N   N6        1.0  0.30683  0.65421  0.01909  1.0000
  N   N7        1.0  0.69317  0.65421  0.51909  1.0000
  N   N8        1.0  0.69318  0.34579  0.98091  1.0000
  O   O1        1.0  0.61167  0.45122  0.59848  1.0000
  O   O2        1.0  0.61167  0.54878  0.90152  1.0000
  O   O3        1.0  0.38833  0.54878  0.40152  1.0000
  O   O4        1.0  0.38833  0.45122  0.09848  1.0000
  O   O5        1.0  0.19889  0.05593  0.60175  1.0000
  O   O6        1.0  0.19889  0.94407  0.89824  1.0000
  O   O7        1.0  0.80111  0.94407  0.39825  1.0000
  O   O8        1.0  0.80111  0.05593  0.10175  1.0000
