data_image0
_chemical_formula_structural       Cd2H58C58N12Cl2O12
_chemical_formula_sum              "Cd2 H58 C58 N12 Cl2 O12"
_cell_length_a       9.36238
_cell_length_b       12.1977
_cell_length_c       14.0589
_cell_angle_alpha    75.6957
_cell_angle_beta     84.8935
_cell_angle_gamma    87.7993

_space_group_name_H-M_alt    "P 1"
_space_group_IT_number       1

loop_
  _space_group_symop_operation_xyz
  'x, y, z'

loop_
  _atom_site_type_symbol
  _atom_site_label
  _atom_site_symmetry_multiplicity
  _atom_site_fract_x
  _atom_site_fract_y
  _atom_site_fract_z
  _atom_site_occupancy
  Cd  Cd1       1.0  0.98128  0.00246  0.69511  1.0000
  Cd  Cd2       1.0  0.01872  0.99754  0.30489  1.0000
  H   H1        1.0  0.79212  0.11324  0.85171  1.0000
  H   H2        1.0  0.20788  0.88676  0.14829  1.0000
  H   H3        1.0  0.10981  0.76835  0.88159  1.0000
  H   H4        1.0  0.89019  0.23165  0.11841  1.0000
  H   H5        1.0  0.79448  0.82036  0.17726  1.0000
  H   H6        1.0  0.20552  0.17964  0.82274  1.0000
  H   H7        1.0  0.19480  0.59325  0.97365  1.0000
  H   H8        1.0  0.80520  0.40675  0.02636  1.0000
  H   H9        1.0  0.07283  0.51537  0.06782  1.0000
  H   H10       1.0  0.92717  0.48463  0.93218  1.0000
  H   H11       1.0  0.21238  0.58828  0.09956  1.0000
  H   H12       1.0  0.78762  0.41172  0.90044  1.0000
  H   H13       1.0  0.87767  0.65039  0.27175  1.0000
  H   H14       1.0  0.12233  0.34962  0.72825  1.0000
  H   H15       1.0  0.05886  0.61455  0.24177  1.0000
  H   H16       1.0  0.94114  0.38546  0.75823  1.0000
  H   H17       1.0  0.91942  0.54187  0.20859  1.0000
  H   H18       1.0  0.08058  0.45813  0.79141  1.0000
  H   H19       1.0  0.67413  0.12929  0.01899  1.0000
  H   H20       1.0  0.32588  0.87071  0.98101  1.0000
  H   H21       1.0  0.70923  0.02287  0.12523  1.0000
  H   H22       1.0  0.29077  0.97712  0.87477  1.0000
  H   H23       1.0  0.53676  0.89415  0.08045  1.0000
  H   H24       1.0  0.46324  0.10584  0.91955  1.0000
  H   H25       1.0  0.45740  0.01900  0.10380  1.0000
  H   H26       1.0  0.54260  0.98100  0.89620  1.0000
  H   H27       1.0  0.06436  0.83450  0.53999  1.0000
  H   H28       1.0  0.93564  0.16550  0.46001  1.0000
  H   H29       1.0  0.74320  0.81943  0.84876  1.0000
  H   H30       1.0  0.25679  0.18057  0.15124  1.0000
  H   H31       1.0  0.67484  0.54171  0.64625  1.0000
  H   H32       1.0  0.32516  0.45829  0.35375  1.0000
  H   H33       1.0  0.55930  0.73811  0.96330  1.0000
  H   H34       1.0  0.44071  0.26188  0.03670  1.0000
  H   H35       1.0  0.52406  0.59319  0.97558  1.0000
  H   H36       1.0  0.47594  0.40680  0.02442  1.0000
  H   H37       1.0  0.41254  0.69814  0.90740  1.0000
  H   H38       1.0  0.58746  0.30185  0.09261  1.0000
  H   H39       1.0  0.47479  0.46829  0.74934  1.0000
  H   H40       1.0  0.52521  0.53171  0.25066  1.0000
  H   H41       1.0  0.37473  0.56572  0.80576  1.0000
  H   H42       1.0  0.62527  0.43428  0.19424  1.0000
  H   H43       1.0  0.48616  0.46277  0.87580  1.0000
  H   H44       1.0  0.51384  0.53722  0.12420  1.0000
  H   H45       1.0  0.00956  0.69686  0.45179  1.0000
  H   H46       1.0  0.99044  0.30314  0.54821  1.0000
  H   H47       1.0  0.82865  0.65249  0.46862  1.0000
  H   H48       1.0  0.17135  0.34751  0.53138  1.0000
  H   H49       1.0  0.06693  0.52367  0.58847  1.0000
  H   H50       1.0  0.93307  0.47633  0.41153  1.0000
  H   H51       1.0  0.88997  0.47662  0.58961  1.0000
  H   H52       1.0  0.11003  0.52338  0.41039  1.0000
  H   H53       1.0  0.38810  0.24742  0.62574  1.0000
  H   H54       1.0  0.61190  0.75259  0.37426  1.0000
  H   H55       1.0  0.68617  0.29560  0.36693  1.0000
  H   H56       1.0  0.31383  0.70440  0.63307  1.0000
  H   H57       1.0  0.36163  0.03952  0.42078  1.0000
  H   H58       1.0  0.63837  0.96048  0.57922  1.0000
  C   C1        1.0  0.83332  0.03406  0.89558  1.0000
  C   C2        1.0  0.16668  0.96594  0.10442  1.0000
  C   C3        1.0  0.95166  0.87482  0.93921  1.0000
  C   C4        1.0  0.04834  0.12518  0.06079  1.0000
  C   C5        1.0  0.04063  0.77888  0.94547  1.0000
  C   C6        1.0  0.95937  0.22112  0.05453  1.0000
  C   C7        1.0  0.03944  0.69768  0.03512  1.0000
  C   C8        1.0  0.96055  0.30232  0.96488  1.0000
  C   C9        1.0  0.94922  0.71262  0.11870  1.0000
  C   C10       1.0  0.05078  0.28738  0.88130  1.0000
  C   C11       1.0  0.85982  0.80803  0.11238  1.0000
  C   C12       1.0  0.14018  0.19197  0.88762  1.0000
  C   C13       1.0  0.86194  0.88779  0.02212  1.0000
  C   C14       1.0  0.13806  0.11221  0.97788  1.0000
  C   C15       1.0  0.13462  0.59377  0.04416  1.0000
  C   C16       1.0  0.86538  0.40622  0.95584  1.0000
  C   C17       1.0  0.95098  0.62559  0.21514  1.0000
  C   C18       1.0  0.04902  0.37441  0.78486  1.0000
  C   C19       1.0  0.67690  0.03732  0.04992  1.0000
  C   C20       1.0  0.32311  0.96268  0.95008  1.0000
  C   C21       1.0  0.52975  0.98654  0.05057  1.0000
  C   C22       1.0  0.47026  0.01346  0.94943  1.0000
  C   C23       1.0  0.97843  0.79609  0.59387  1.0000
  C   C24       1.0  0.02157  0.20391  0.40613  1.0000
  C   C25       1.0  0.81943  0.76024  0.71996  1.0000
  C   C26       1.0  0.18056  0.23976  0.28004  1.0000
  C   C27       1.0  0.72967  0.75886  0.80508  1.0000
  C   C28       1.0  0.27033  0.24114  0.19492  1.0000
  C   C29       1.0  0.62127  0.67925  0.83290  1.0000
  C   C30       1.0  0.37872  0.32075  0.16710  1.0000
  C   C31       1.0  0.60092  0.60118  0.77478  1.0000
  C   C32       1.0  0.39908  0.39882  0.22522  1.0000
  C   C33       1.0  0.69194  0.60123  0.69035  1.0000
  C   C34       1.0  0.30806  0.39876  0.30965  1.0000
  C   C35       1.0  0.80060  0.68089  0.66416  1.0000
  C   C36       1.0  0.19940  0.31911  0.33584  1.0000
  C   C37       1.0  0.52432  0.67742  0.92443  1.0000
  C   C38       1.0  0.47568  0.32257  0.07558  1.0000
  C   C39       1.0  0.47827  0.52011  0.80254  1.0000
  C   C40       1.0  0.52173  0.47989  0.19746  1.0000
  C   C41       1.0  0.92826  0.64847  0.50544  1.0000
  C   C42       1.0  0.07174  0.35153  0.49456  1.0000
  C   C43       1.0  0.97703  0.52616  0.54288  1.0000
  C   C44       1.0  0.02297  0.47384  0.45712  1.0000
  C   C45       1.0  0.36194  0.13776  0.52989  1.0000
  C   C46       1.0  0.63806  0.86224  0.47012  1.0000
  C   C47       1.0  0.42717  0.22435  0.55805  1.0000
  C   C48       1.0  0.57283  0.77565  0.44195  1.0000
  C   C49       1.0  0.54162  0.28047  0.49827  1.0000
  C   C50       1.0  0.45838  0.71954  0.50173  1.0000
  C   C51       1.0  0.59626  0.25147  0.41252  1.0000
  C   C52       1.0  0.40374  0.74853  0.58747  1.0000
  C   C53       1.0  0.53052  0.16365  0.38721  1.0000
  C   C54       1.0  0.46948  0.83635  0.61279  1.0000
  C   C55       1.0  0.41314  0.10663  0.44335  1.0000
  C   C56       1.0  0.58687  0.89337  0.55665  1.0000
  C   C57       1.0  0.23359  0.08123  0.59169  1.0000
  C   C58       1.0  0.76641  0.91877  0.40831  1.0000
  N   N1        1.0  0.93096  0.96820  0.86121  1.0000
  N   N2        1.0  0.06904  0.03179  0.13879  1.0000
  N   N3        1.0  0.78866  0.99023  0.99167  1.0000
  N   N4        1.0  0.21134  0.00977  0.00833  1.0000
  N   N5        1.0  0.93164  0.83091  0.67391  1.0000
  N   N6        1.0  0.06836  0.16908  0.32609  1.0000
  N   N7        1.0  0.90346  0.70649  0.58461  1.0000
  N   N8        1.0  0.09654  0.29351  0.41539  1.0000
  N   N9        1.0  0.60480  0.37508  0.52561  1.0000
  N   N10       1.0  0.39521  0.62493  0.47438  1.0000
  N   N11       1.0  0.58764  0.13107  0.29716  1.0000
  N   N12       1.0  0.41236  0.86894  0.70284  1.0000
  Cl  Cl1       1.0  0.79290  0.14731  0.64350  1.0000
  Cl  Cl2       1.0  0.20710  0.85270  0.35650  1.0000
  O   O1        1.0  0.17626  0.00197  0.56542  1.0000
  O   O2        1.0  0.82374  0.99803  0.43458  1.0000
  O   O3        1.0  0.18645  0.11738  0.66668  1.0000
  O   O4        1.0  0.81355  0.88262  0.33332  1.0000
  O   O5        1.0  0.69673  0.43142  0.46651  1.0000
  O   O6        1.0  0.30326  0.56858  0.53349  1.0000
  O   O7        1.0  0.56088  0.39506  0.60563  1.0000
  O   O8        1.0  0.43911  0.60495  0.39437  1.0000
  O   O9        1.0  0.53337  0.04910  0.27749  1.0000
  O   O10       1.0  0.46663  0.95090  0.72251  1.0000
  O   O11       1.0  0.68803  0.18692  0.24620  1.0000
  O   O12       1.0  0.31197  0.81308  0.75380  1.0000
