data_image0
_chemical_formula_structural       Ba2H30C40S4N10
_chemical_formula_sum              "Ba2 H30 C40 S4 N10"
_cell_length_a       10.0149
_cell_length_b       10.5804
_cell_length_c       10.35
_cell_angle_alpha    108.252
_cell_angle_beta     91.9024
_cell_angle_gamma    92.9804

_space_group_name_H-M_alt    "P 1"
_space_group_IT_number       1

loop_
  _space_group_symop_operation_xyz
  'x, y, z'

loop_
  _atom_site_type_symbol
  _atom_site_label
  _atom_site_symmetry_multiplicity
  _atom_site_fract_x
  _atom_site_fract_y
  _atom_site_fract_z
  _atom_site_occupancy
  Ba  Ba1       1.0  0.03358  0.55906  0.72691  1.0000
  Ba  Ba2       1.0  0.96642  0.44094  0.27309  1.0000
  H   H1        1.0  0.70995  0.53786  0.89155  1.0000
  H   H2        1.0  0.29005  0.46214  0.10844  1.0000
  H   H3        1.0  0.50817  0.67081  0.94274  1.0000
  H   H4        1.0  0.49183  0.32919  0.05726  1.0000
  H   H5        1.0  0.77252  0.02599  0.01787  1.0000
  H   H6        1.0  0.22748  0.97401  0.98213  1.0000
  H   H7        1.0  0.96216  0.87860  0.97001  1.0000
  H   H8        1.0  0.03784  0.12140  0.02998  1.0000
  H   H9        1.0  0.41204  0.88355  0.01893  1.0000
  H   H10       1.0  0.58796  0.11644  0.98107  1.0000
  H   H11       1.0  0.41570  0.51754  0.69626  1.0000
  H   H12       1.0  0.58430  0.48246  0.30374  1.0000
  H   H13       1.0  0.58696  0.35090  0.67265  1.0000
  H   H14       1.0  0.41304  0.64910  0.32735  1.0000
  H   H15       1.0  0.26877  0.06819  0.69757  1.0000
  H   H16       1.0  0.73123  0.93182  0.30243  1.0000
  H   H17       1.0  0.11094  0.24955  0.72438  1.0000
  H   H18       1.0  0.88906  0.75045  0.27562  1.0000
  H   H19       1.0  0.47892  0.99201  0.66819  1.0000
  H   H20       1.0  0.52107  0.00799  0.33180  1.0000
  H   H21       1.0  0.71948  0.18513  0.66377  1.0000
  H   H22       1.0  0.28052  0.81487  0.33623  1.0000
  H   H23       1.0  0.93473  0.09564  0.66926  1.0000
  H   H24       1.0  0.06526  0.90437  0.33075  1.0000
  H   H25       1.0  0.07328  0.90227  0.65881  1.0000
  H   H26       1.0  0.92672  0.09774  0.34119  1.0000
  H   H27       1.0  0.73489  0.64799  0.61635  1.0000
  H   H28       1.0  0.26511  0.35201  0.38365  1.0000
  H   H29       1.0  0.58359  0.82683  0.62833  1.0000
  H   H30       1.0  0.41640  0.17317  0.37167  1.0000
  C   C1        1.0  0.23590  0.65996  0.55354  1.0000
  C   C2        1.0  0.76410  0.34003  0.44646  1.0000
  C   C3        1.0  0.86323  0.33040  0.89697  1.0000
  C   C4        1.0  0.13677  0.66960  0.10302  1.0000
  C   C5        1.0  0.71958  0.64654  0.91987  1.0000
  C   C6        1.0  0.28042  0.35346  0.08013  1.0000
  C   C7        1.0  0.60726  0.72074  0.94793  1.0000
  C   C8        1.0  0.39274  0.27925  0.05207  1.0000
  C   C9        1.0  0.62166  0.86040  0.98017  1.0000
  C   C10       1.0  0.37834  0.13960  0.01982  1.0000
  C   C11       1.0  0.75306  0.91822  0.99024  1.0000
  C   C12       1.0  0.24694  0.08178  0.00975  1.0000
  C   C13       1.0  0.85924  0.83608  0.96302  1.0000
  C   C14       1.0  0.14075  0.16392  0.03698  1.0000
  C   C15       1.0  0.50261  0.93673  0.00128  1.0000
  C   C16       1.0  0.49739  0.06327  0.99871  1.0000
  C   C17       1.0  0.38724  0.41656  0.69686  1.0000
  C   C18       1.0  0.61276  0.58345  0.30315  1.0000
  C   C19       1.0  0.48270  0.32320  0.68407  1.0000
  C   C20       1.0  0.51730  0.67681  0.31593  1.0000
  C   C21       1.0  0.44216  0.19346  0.68355  1.0000
  C   C22       1.0  0.55784  0.80655  0.31645  1.0000
  C   C23       1.0  0.30527  0.16711  0.69748  1.0000
  C   C24       1.0  0.69473  0.83289  0.30252  1.0000
  C   C25       1.0  0.21726  0.26694  0.71101  1.0000
  C   C26       1.0  0.78275  0.73306  0.28899  1.0000
  C   C27       1.0  0.53055  0.08601  0.66964  1.0000
  C   C28       1.0  0.46945  0.91399  0.33036  1.0000
  C   C29       1.0  0.66492  0.09214  0.66104  1.0000
  C   C30       1.0  0.33508  0.90786  0.33897  1.0000
  C   C31       1.0  0.74637  0.97974  0.65150  1.0000
  C   C32       1.0  0.25363  0.02026  0.34850  1.0000
  C   C33       1.0  0.88692  0.99751  0.65769  1.0000
  C   C34       1.0  0.11307  0.00249  0.34232  1.0000
  C   C35       1.0  0.96389  0.89018  0.65181  1.0000
  C   C36       1.0  0.03611  0.10983  0.34819  1.0000
  C   C37       1.0  0.77583  0.74920  0.62966  1.0000
  C   C38       1.0  0.22417  0.25080  0.37034  1.0000
  C   C39       1.0  0.69139  0.85032  0.63624  1.0000
  C   C40       1.0  0.30860  0.14968  0.36376  1.0000
  S   S1        1.0  0.31850  0.77242  0.67839  1.0000
  S   S2        1.0  0.68150  0.22758  0.32160  1.0000
  S   S3        1.0  0.77748  0.28743  0.00920  1.0000
  S   S4        1.0  0.22253  0.71257  0.99080  1.0000
  N   N1        1.0  0.16961  0.57454  0.46933  1.0000
  N   N2        1.0  0.83039  0.42546  0.53066  1.0000
  N   N3        1.0  0.92331  0.36087  0.81319  1.0000
  N   N4        1.0  0.07669  0.63913  0.18681  1.0000
  N   N5        1.0  0.84462  0.70176  0.92468  1.0000
  N   N6        1.0  0.15538  0.29824  0.07532  1.0000
  N   N7        1.0  0.25592  0.39047  0.71007  1.0000
  N   N8        1.0  0.74408  0.60954  0.28993  1.0000
  N   N9        1.0  0.91074  0.76696  0.63883  1.0000
  N   N10       1.0  0.08926  0.23304  0.36117  1.0000
