data_image0
_chemical_formula_structural       MnH28C22S2N6O2
_chemical_formula_sum              "Mn1 H28 C22 S2 N6 O2"
_cell_length_a       6.95241
_cell_length_b       9.16015
_cell_length_c       10.2604
_cell_angle_alpha    72.0139
_cell_angle_beta     75.8009
_cell_angle_gamma    75.896

_space_group_name_H-M_alt    "P 1"
_space_group_IT_number       1

loop_
  _space_group_symop_operation_xyz
  'x, y, z'

loop_
  _atom_site_type_symbol
  _atom_site_label
  _atom_site_symmetry_multiplicity
  _atom_site_fract_x
  _atom_site_fract_y
  _atom_site_fract_z
  _atom_site_occupancy
  Mn  Mn1       1.0  1.00000  1.00000  1.00000  1.0000
  H   H1        1.0  0.61391  0.87524  0.14745  1.0000
  H   H2        1.0  0.38609  0.12477  0.85254  1.0000
  H   H3        1.0  0.51901  0.86852  0.38780  1.0000
  H   H4        1.0  0.48099  0.13148  0.61221  1.0000
  H   H5        1.0  0.44656  0.69198  0.49390  1.0000
  H   H6        1.0  0.55345  0.30803  0.50610  1.0000
  H   H7        1.0  0.23841  0.02015  0.52751  1.0000
  H   H8        1.0  0.76157  0.97985  0.47248  1.0000
  H   H9        1.0  0.39841  0.87917  0.63670  1.0000
  H   H10       1.0  0.60157  0.12084  0.36331  1.0000
  H   H11       1.0  0.16036  0.84363  0.63545  1.0000
  H   H12       1.0  0.83963  0.15637  0.36454  1.0000
  H   H13       1.0  0.13492  0.26507  0.20278  1.0000
  H   H14       1.0  0.86507  0.73493  0.79722  1.0000
  H   H15       1.0  0.39573  0.43598  0.10033  1.0000
  H   H16       1.0  0.60426  0.56402  0.89968  1.0000
  H   H17       1.0  0.75192  0.31886  0.02357  1.0000
  H   H18       1.0  0.24807  0.68115  0.97643  1.0000
  H   H19       1.0  0.98064  0.75175  0.37548  1.0000
  H   H20       1.0  0.01937  0.24824  0.62452  1.0000
  H   H21       1.0  0.09630  0.66960  0.52612  1.0000
  H   H22       1.0  0.90371  0.33039  0.47388  1.0000
  H   H23       1.0  0.25957  0.59895  0.24050  1.0000
  H   H24       1.0  0.74044  0.40104  0.75950  1.0000
  H   H25       1.0  0.14658  0.47054  0.39246  1.0000
  H   H26       1.0  0.85343  0.52945  0.60754  1.0000
  H   H27       1.0  0.38367  0.51848  0.38537  1.0000
  H   H28       1.0  0.61634  0.48152  0.61463  1.0000
  C   C1        1.0  0.88508  0.66976  0.12279  1.0000
  C   C2        1.0  0.11493  0.33024  0.87721  1.0000
  C   C3        1.0  0.38929  0.81665  0.45205  1.0000
  C   C4        1.0  0.61071  0.18335  0.54795  1.0000
  C   C5        1.0  0.29035  0.89456  0.56942  1.0000
  C   C6        1.0  0.70964  0.10545  0.43058  1.0000
  C   C7        1.0  0.56131  0.99900  0.13934  1.0000
  C   C8        1.0  0.43869  0.00100  0.86066  1.0000
  C   C9        1.0  0.35945  0.05476  0.18820  1.0000
  C   C10       1.0  0.64055  0.94524  0.81180  1.0000
  C   C11       1.0  0.29294  0.21525  0.17161  1.0000
  C   C12       1.0  0.70706  0.78475  0.82839  1.0000
  C   C13       1.0  0.43699  0.31089  0.11199  1.0000
  C   C14       1.0  0.56301  0.68911  0.88801  1.0000
  C   C15       1.0  0.63622  0.24690  0.06739  1.0000
  C   C16       1.0  0.36377  0.75311  0.93260  1.0000
  C   C17       1.0  0.21637  0.94310  0.24879  1.0000
  C   C18       1.0  0.78363  0.05690  0.75121  1.0000
  C   C19       1.0  0.12479  0.70336  0.41148  1.0000
  C   C20       1.0  0.87522  0.29664  0.58852  1.0000
  C   C21       1.0  0.23539  0.56406  0.35469  1.0000
  C   C22       1.0  0.76462  0.43593  0.64531  1.0000
  S   S1        1.0  0.80400  0.50818  0.20378  1.0000
  S   S2        1.0  0.19602  0.49181  0.79623  1.0000
  N   N1        1.0  0.93770  0.79149  0.06300  1.0000
  N   N2        1.0  0.06230  0.20850  0.93701  1.0000
  N   N3        1.0  0.70039  0.09210  0.07718  1.0000
  N   N4        1.0  0.29961  0.90791  0.92282  1.0000
  N   N5        1.0  0.24701  0.82665  0.36380  1.0000
  N   N6        1.0  0.75299  0.17335  0.63620  1.0000
  O   O1        1.0  0.06676  0.95631  0.19372  1.0000
  O   O2        1.0  0.93324  0.04369  0.80628  1.0000
