data_image0
_chemical_formula_structural       H28Pb2C36Br4N8
_chemical_formula_sum              "H28 Pb2 C36 Br4 N8"
_cell_length_a       4.13236
_cell_length_b       13.2559
_cell_length_c       17.3089
_cell_angle_alpha    89.9985
_cell_angle_beta     90.0012
_cell_angle_gamma    90.9955

_space_group_name_H-M_alt    "P 1"
_space_group_IT_number       1

loop_
  _space_group_symop_operation_xyz
  'x, y, z'

loop_
  _atom_site_type_symbol
  _atom_site_label
  _atom_site_symmetry_multiplicity
  _atom_site_fract_x
  _atom_site_fract_y
  _atom_site_fract_z
  _atom_site_occupancy
  H   H1        1.0  0.84309  0.69290  0.87820  1.0000
  H   H2        1.0  0.15697  0.80708  0.37819  1.0000
  H   H3        1.0  0.15692  0.30710  0.12180  1.0000
  H   H4        1.0  0.84310  0.19290  0.62180  1.0000
  H   H5        1.0  0.38219  0.66811  0.94364  1.0000
  H   H6        1.0  0.61780  0.83189  0.44365  1.0000
  H   H7        1.0  0.61783  0.33190  0.05636  1.0000
  H   H8        1.0  0.38221  0.16811  0.55635  1.0000
  H   H9        1.0  0.80736  0.37489  0.92410  1.0000
  H   H10       1.0  0.19263  0.12511  0.42410  1.0000
  H   H11       1.0  0.19264  0.62511  0.07590  1.0000
  H   H12       1.0  0.80736  0.87488  0.57591  1.0000
  H   H13       1.0  0.80700  0.52442  0.69739  1.0000
  H   H14       1.0  0.19302  0.97558  0.19739  1.0000
  H   H15       1.0  0.19303  0.47557  0.30261  1.0000
  H   H16       1.0  0.80699  0.02442  0.80261  1.0000
  H   H17       1.0  0.31741  0.86078  0.66616  1.0000
  H   H18       1.0  0.68256  0.63923  0.16615  1.0000
  H   H19       1.0  0.68257  0.13922  0.33385  1.0000
  H   H20       1.0  0.31743  0.36078  0.83384  1.0000
  H   H21       1.0  0.09835  0.81105  0.79629  1.0000
  H   H22       1.0  0.90167  0.68894  0.29629  1.0000
  H   H23       1.0  0.90164  0.18895  0.20371  1.0000
  H   H24       1.0  0.09834  0.31106  0.70370  1.0000
  H   H25       1.0  0.26849  0.73611  0.55703  1.0000
  H   H26       1.0  0.73145  0.76392  0.05703  1.0000
  H   H27       1.0  0.73151  0.26389  0.44297  1.0000
  H   H28       1.0  0.26850  0.23610  0.94297  1.0000
  Pb  Pb1       1.0  0.99997  0.49999  0.50001  1.0000
  Pb  Pb2       1.0  0.99998  0.00000  0.99999  1.0000
  C   C1        1.0  0.60990  0.52399  0.92492  1.0000
  C   C2        1.0  0.39008  0.97600  0.42492  1.0000
  C   C3        1.0  0.39010  0.47601  0.07509  1.0000
  C   C4        1.0  0.60990  0.02399  0.57508  1.0000
  C   C5        1.0  0.43636  0.59468  0.96852  1.0000
  C   C6        1.0  0.56363  0.90532  0.46852  1.0000
  C   C7        1.0  0.56366  0.40533  0.03148  1.0000
  C   C8        1.0  0.43637  0.09467  0.53148  1.0000
  C   C9        1.0  0.94119  0.66303  0.75729  1.0000
  C   C10       1.0  0.05885  0.83697  0.25729  1.0000
  C   C11       1.0  0.05883  0.33697  0.24271  1.0000
  C   C12       1.0  0.94119  0.16304  0.74271  1.0000
  C   C13       1.0  0.66875  0.42883  0.95742  1.0000
  C   C14       1.0  0.33126  0.07117  0.45742  1.0000
  C   C15       1.0  0.33127  0.57117  0.04258  1.0000
  C   C16       1.0  0.66873  0.92883  0.54258  1.0000
  C   C17       1.0  0.92066  0.59918  0.69256  1.0000
  C   C18       1.0  0.07935  0.90082  0.19256  1.0000
  C   C19       1.0  0.07936  0.40082  0.30744  1.0000
  C   C20       1.0  0.92065  0.09918  0.80743  1.0000
  C   C21       1.0  0.20345  0.78697  0.67526  1.0000
  C   C22       1.0  0.79655  0.71303  0.17526  1.0000
  C   C23       1.0  0.79656  0.21302  0.32474  1.0000
  C   C24       1.0  0.20345  0.28698  0.82474  1.0000
  C   C25       1.0  0.82730  0.63308  0.83388  1.0000
  C   C26       1.0  0.17272  0.86691  0.33388  1.0000
  C   C27       1.0  0.17272  0.36691  0.16612  1.0000
  C   C28       1.0  0.82731  0.13309  0.66611  1.0000
  C   C29       1.0  0.08162  0.75931  0.74730  1.0000
  C   C30       1.0  0.91839  0.74069  0.24730  1.0000
  C   C31       1.0  0.91837  0.24069  0.25270  1.0000
  C   C32       1.0  0.08161  0.25931  0.75269  1.0000
  C   C33       1.0  0.17587  0.71820  0.61462  1.0000
  C   C34       1.0  0.82409  0.78181  0.11462  1.0000
  C   C35       1.0  0.82411  0.28181  0.38538  1.0000
  C   C36       1.0  0.17590  0.21820  0.88538  1.0000
  Br  Br1       1.0  0.49586  0.37617  0.58397  1.0000
  Br  Br2       1.0  0.50412  0.12384  0.08394  1.0000
  Br  Br3       1.0  0.50409  0.62383  0.41607  1.0000
  Br  Br4       1.0  0.49585  0.87617  0.91605  1.0000
  N   N1        1.0  0.03419  0.62641  0.62304  1.0000
  N   N2        1.0  0.96581  0.87360  0.12304  1.0000
  N   N3        1.0  0.96583  0.37358  0.37696  1.0000
  N   N4        1.0  0.03417  0.12642  0.87696  1.0000
  N   N5        1.0  0.72288  0.54344  0.85005  1.0000
  N   N6        1.0  0.27708  0.95655  0.35005  1.0000
  N   N7        1.0  0.27713  0.45655  0.14996  1.0000
  N   N8        1.0  0.72291  0.04345  0.64995  1.0000
