data_image0
_chemical_formula_structural       Pr4H24C24N8O32
_chemical_formula_sum              "Pr4 H24 C24 N8 O32"
_cell_length_a       7.48819
_cell_length_b       8.34948
_cell_length_c       17.2376
_cell_angle_alpha    90
_cell_angle_beta     89.9999
_cell_angle_gamma    110.865

_space_group_name_H-M_alt    "P 1"
_space_group_IT_number       1

loop_
  _space_group_symop_operation_xyz
  'x, y, z'

loop_
  _atom_site_type_symbol
  _atom_site_label
  _atom_site_symmetry_multiplicity
  _atom_site_fract_x
  _atom_site_fract_y
  _atom_site_fract_z
  _atom_site_occupancy
  Pr  Pr1       1.0  0.31820  0.75885  0.58398  1.0000
  Pr  Pr2       1.0  0.68180  0.74115  0.08398  1.0000
  Pr  Pr3       1.0  0.68180  0.24114  0.41602  1.0000
  Pr  Pr4       1.0  0.31820  0.25885  0.91602  1.0000
  H   H1        1.0  0.23545  0.08038  0.52144  1.0000
  H   H2        1.0  0.76455  0.41962  0.02144  1.0000
  H   H3        1.0  0.76455  0.91962  0.47856  1.0000
  H   H4        1.0  0.23544  0.58038  0.97856  1.0000
  H   H5        1.0  0.16046  0.00842  0.60323  1.0000
  H   H6        1.0  0.83954  0.49159  0.10323  1.0000
  H   H7        1.0  0.83954  0.99159  0.39676  1.0000
  H   H8        1.0  0.16046  0.50841  0.89677  1.0000
  H   H9        1.0  0.92063  0.66020  0.53244  1.0000
  H   H10       1.0  0.07937  0.83980  0.03244  1.0000
  H   H11       1.0  0.07937  0.33980  0.46756  1.0000
  H   H12       1.0  0.92063  0.16020  0.96756  1.0000
  H   H13       1.0  0.90245  0.49823  0.58168  1.0000
  H   H14       1.0  0.09756  0.00177  0.08168  1.0000
  H   H15       1.0  0.09756  0.50177  0.41832  1.0000
  H   H16       1.0  0.90245  0.99823  0.91832  1.0000
  H   H17       1.0  0.95586  0.90185  0.78974  1.0000
  H   H18       1.0  0.04414  0.59815  0.28975  1.0000
  H   H19       1.0  0.04415  0.09815  0.21025  1.0000
  H   H20       1.0  0.95586  0.40185  0.71025  1.0000
  H   H21       1.0  0.85825  0.92876  0.65167  1.0000
  H   H22       1.0  0.14175  0.57123  0.15167  1.0000
  H   H23       1.0  0.14174  0.07123  0.34833  1.0000
  H   H24       1.0  0.85826  0.42877  0.84833  1.0000
  C   C1        1.0  0.76408  0.84866  0.69533  1.0000
  C   C2        1.0  0.23592  0.65133  0.19533  1.0000
  C   C3        1.0  0.23592  0.15133  0.30467  1.0000
  C   C4        1.0  0.76408  0.34867  0.80467  1.0000
  C   C5        1.0  0.67556  0.68069  0.89140  1.0000
  C   C6        1.0  0.32444  0.81931  0.39140  1.0000
  C   C7        1.0  0.32444  0.31931  0.10860  1.0000
  C   C8        1.0  0.67556  0.18069  0.60860  1.0000
  C   C9        1.0  0.66734  0.71515  0.80721  1.0000
  C   C10       1.0  0.33266  0.78485  0.30721  1.0000
  C   C11       1.0  0.33266  0.28485  0.19279  1.0000
  C   C12       1.0  0.66734  0.21515  0.69279  1.0000
  C   C13       1.0  0.51960  0.66150  0.75221  1.0000
  C   C14       1.0  0.48040  0.83850  0.25221  1.0000
  C   C15       1.0  0.48040  0.33851  0.24779  1.0000
  C   C16       1.0  0.51960  0.16149  0.74779  1.0000
  C   C17       1.0  0.31638  0.54275  0.75404  1.0000
  C   C18       1.0  0.68361  0.95726  0.25404  1.0000
  C   C19       1.0  0.68361  0.45725  0.24597  1.0000
  C   C20       1.0  0.31639  0.04275  0.74596  1.0000
  C   C21       1.0  0.41080  0.42164  0.51156  1.0000
  C   C22       1.0  0.58920  0.07836  0.01156  1.0000
  C   C23       1.0  0.58921  0.57836  0.48843  1.0000
  C   C24       1.0  0.41079  0.92164  0.98843  1.0000
  N   N1        1.0  0.58290  0.74927  0.68394  1.0000
  N   N2        1.0  0.41710  0.75073  0.18394  1.0000
  N   N3        1.0  0.41710  0.25072  0.31606  1.0000
  N   N4        1.0  0.58290  0.24928  0.81606  1.0000
  N   N5        1.0  0.81915  0.83432  0.76886  1.0000
  N   N6        1.0  0.18085  0.66567  0.26886  1.0000
  N   N7        1.0  0.18085  0.16567  0.23114  1.0000
  N   N8        1.0  0.81915  0.33433  0.73114  1.0000
  O   O1        1.0  0.20963  0.55885  0.69895  1.0000
  O   O2        1.0  0.79036  0.94115  0.19894  1.0000
  O   O3        1.0  0.79036  0.44115  0.30105  1.0000
  O   O4        1.0  0.20964  0.05886  0.80105  1.0000
  O   O5        1.0  0.25535  0.43286  0.80773  1.0000
  O   O6        1.0  0.74466  0.06714  0.30773  1.0000
  O   O7        1.0  0.74465  0.56714  0.19227  1.0000
  O   O8        1.0  0.25535  0.93286  0.69227  1.0000
  O   O9        1.0  0.56977  0.53868  0.91917  1.0000
  O   O10       1.0  0.43023  0.96132  0.41918  1.0000
  O   O11       1.0  0.43022  0.46132  0.08083  1.0000
  O   O12       1.0  0.56978  0.03868  0.58083  1.0000
  O   O13       1.0  0.78856  0.79841  0.93425  1.0000
  O   O14       1.0  0.21144  0.70159  0.43425  1.0000
  O   O15       1.0  0.21144  0.20159  0.06575  1.0000
  O   O16       1.0  0.78856  0.29840  0.56575  1.0000
  O   O17       1.0  0.27928  0.45037  0.54807  1.0000
  O   O18       1.0  0.72072  0.04964  0.04807  1.0000
  O   O19       1.0  0.72072  0.54964  0.45193  1.0000
  O   O20       1.0  0.27929  0.95037  0.95193  1.0000
  O   O21       1.0  0.40972  0.27520  0.49092  1.0000
  O   O22       1.0  0.59028  0.22480  0.99092  1.0000
  O   O23       1.0  0.59028  0.72480  0.50908  1.0000
  O   O24       1.0  0.40971  0.77520  0.00908  1.0000
  O   O25       1.0  0.15595  0.97392  0.54872  1.0000
  O   O26       1.0  0.84405  0.52608  0.04871  1.0000
  O   O27       1.0  0.84406  0.02608  0.45128  1.0000
  O   O28       1.0  0.15594  0.47392  0.95129  1.0000
  O   O29       1.0  0.96737  0.62642  0.58059  1.0000
  O   O30       1.0  0.03263  0.87358  0.08059  1.0000
  O   O31       1.0  0.03264  0.37358  0.41941  1.0000
  O   O32       1.0  0.96736  0.12642  0.91941  1.0000
