data_image0
_chemical_formula_structural       Tb4H24C24N8O32
_chemical_formula_sum              "Tb4 H24 C24 N8 O32"
_cell_length_a       6.95119
_cell_length_b       11.5751
_cell_length_c       14.0543
_cell_angle_alpha    109.457
_cell_angle_beta     90.0173
_cell_angle_gamma    107.448

_space_group_name_H-M_alt    "P 1"
_space_group_IT_number       1

loop_
  _space_group_symop_operation_xyz
  'x, y, z'

loop_
  _atom_site_type_symbol
  _atom_site_label
  _atom_site_symmetry_multiplicity
  _atom_site_fract_x
  _atom_site_fract_y
  _atom_site_fract_z
  _atom_site_occupancy
  Tb  Tb1       1.0  0.49565  0.23294  0.19405  1.0000
  Tb  Tb2       1.0  0.26230  0.76687  0.30596  1.0000
  Tb  Tb3       1.0  0.50435  0.76706  0.80595  1.0000
  Tb  Tb4       1.0  0.73769  0.23313  0.69404  1.0000
  H   H1        1.0  0.77647  0.56926  0.59892  1.0000
  H   H2        1.0  0.20708  0.43074  0.90101  1.0000
  H   H3        1.0  0.22353  0.43074  0.40108  1.0000
  H   H4        1.0  0.79291  0.56925  0.09899  1.0000
  H   H5        1.0  0.57935  0.33704  0.49104  1.0000
  H   H6        1.0  0.24146  0.66285  0.00896  1.0000
  H   H7        1.0  0.42065  0.66296  0.50895  1.0000
  H   H8        1.0  0.75853  0.33714  0.99105  1.0000
  H   H9        1.0  0.81348  0.11083  0.18480  1.0000
  H   H10       1.0  0.70226  0.88905  0.31535  1.0000
  H   H11       1.0  0.18652  0.88917  0.81521  1.0000
  H   H12       1.0  0.29774  0.11095  0.68466  1.0000
  H   H13       1.0  0.83768  0.17970  0.30450  1.0000
  H   H14       1.0  0.65761  0.82003  0.19566  1.0000
  H   H15       1.0  0.16232  0.82030  0.69550  1.0000
  H   H16       1.0  0.34239  0.17998  0.80434  1.0000
  H   H17       1.0  0.32533  0.09265  0.33719  1.0000
  H   H18       1.0  0.23252  0.90728  0.16274  1.0000
  H   H19       1.0  0.67466  0.90735  0.66281  1.0000
  H   H20       1.0  0.76748  0.09271  0.83726  1.0000
  H   H21       1.0  0.19562  0.18642  0.34070  1.0000
  H   H22       1.0  0.00899  0.81365  0.15928  1.0000
  H   H23       1.0  0.80439  0.81358  0.65930  1.0000
  H   H24       1.0  0.99101  0.18635  0.84072  1.0000
  C   C1        1.0  0.81422  0.52593  0.25890  1.0000
  C   C2        1.0  0.28830  0.47386  0.24097  1.0000
  C   C3        1.0  0.18579  0.47408  0.74111  1.0000
  C   C4        1.0  0.71170  0.52614  0.75903  1.0000
  C   C5        1.0  0.41172  0.95411  0.01702  1.0000
  C   C6        1.0  0.45786  0.04595  0.48289  1.0000
  C   C7        1.0  0.58830  0.04591  0.98299  1.0000
  C   C8        1.0  0.54212  0.95406  0.51711  1.0000
  C   C9        1.0  0.66164  0.41124  0.46138  1.0000
  C   C10       1.0  0.24969  0.58862  0.03858  1.0000
  C   C11       1.0  0.33837  0.58876  0.53862  1.0000
  C   C12       1.0  0.75031  0.41138  0.96143  1.0000
  C   C13       1.0  0.79187  0.51507  0.36077  1.0000
  C   C14       1.0  0.27658  0.48477  0.13914  1.0000
  C   C15       1.0  0.20814  0.48493  0.63922  1.0000
  C   C16       1.0  0.72342  0.51523  0.86086  1.0000
  C   C17       1.0  0.99082  0.73708  0.50558  1.0000
  C   C18       1.0  0.25433  0.26289  0.99430  1.0000
  C   C19       1.0  0.00918  0.26293  0.49442  1.0000
  C   C20       1.0  0.74566  0.73710  0.00570  1.0000
  C   C21       1.0  0.85508  0.60211  0.46002  1.0000
  C   C22       1.0  0.25310  0.39780  0.03989  1.0000
  C   C23       1.0  0.14492  0.39788  0.53998  1.0000
  C   C24       1.0  0.74690  0.60220  0.96011  1.0000
  N   N1        1.0  0.67219  0.39757  0.36385  1.0000
  N   N2        1.0  0.27396  0.60223  0.13608  1.0000
  N   N3        1.0  0.32782  0.60243  0.63615  1.0000
  N   N4        1.0  0.72604  0.39777  0.86392  1.0000
  N   N5        1.0  0.76916  0.53313  0.52091  1.0000
  N   N6        1.0  0.23582  0.46680  0.97904  1.0000
  N   N7        1.0  0.23084  0.46687  0.47909  1.0000
  N   N8        1.0  0.76418  0.53319  0.02097  1.0000
  O   O1        1.0  0.36758  0.00202  0.10658  1.0000
  O   O2        1.0  0.36561  0.99798  0.39336  1.0000
  O   O3        1.0  0.63245  0.99799  0.89341  1.0000
  O   O4        1.0  0.63437  0.00202  0.60664  1.0000
  O   O5        1.0  0.71481  0.42494  0.18444  1.0000
  O   O6        1.0  0.28993  0.57485  0.31547  1.0000
  O   O7        1.0  0.28519  0.57506  0.81556  1.0000
  O   O8        1.0  0.71007  0.42516  0.68453  1.0000
  O   O9        1.0  0.92076  0.62892  0.24611  1.0000
  O   O10       1.0  0.29189  0.37080  0.25369  1.0000
  O   O11       1.0  0.07924  0.37109  0.75389  1.0000
  O   O12       1.0  0.70812  0.62921  0.74631  1.0000
  O   O13       1.0  0.99861  0.79052  0.60153  1.0000
  O   O14       1.0  0.20877  0.20957  0.89833  1.0000
  O   O15       1.0  0.00139  0.20948  0.39847  1.0000
  O   O16       1.0  0.79122  0.79043  0.10166  1.0000
  O   O17       1.0  0.32723  0.84166  0.95489  1.0000
  O   O18       1.0  0.48638  0.15855  0.54487  1.0000
  O   O19       1.0  0.67276  0.15833  0.04510  1.0000
  O   O20       1.0  0.51360  0.84145  0.45514  1.0000
  O   O21       1.0  0.09397  0.79120  0.44915  1.0000
  O   O22       1.0  0.30347  0.20869  0.05066  1.0000
  O   O23       1.0  0.90602  0.20880  0.55085  1.0000
  O   O24       1.0  0.69654  0.79132  0.94934  1.0000
  O   O25       1.0  0.75370  0.16013  0.23980  1.0000
  O   O26       1.0  0.59325  0.83932  0.26037  1.0000
  O   O27       1.0  0.24630  0.83987  0.76021  1.0000
  O   O28       1.0  0.40675  0.16069  0.73963  1.0000
  O   O29       1.0  0.30478  0.15476  0.30562  1.0000
  O   O30       1.0  0.14987  0.84517  0.19429  1.0000
  O   O31       1.0  0.69522  0.84524  0.69438  1.0000
  O   O32       1.0  0.85013  0.15482  0.80571  1.0000
