data_image0
_chemical_formula_structural       Nd4H16C24N8O28
_chemical_formula_sum              "Nd4 H16 C24 N8 O28"
_cell_length_a       6.82621
_cell_length_b       11.336
_cell_length_c       13.3389
_cell_angle_alpha    104.966
_cell_angle_beta     90.002
_cell_angle_gamma    107.562

_space_group_name_H-M_alt    "P 1"
_space_group_IT_number       1

loop_
  _space_group_symop_operation_xyz
  'x, y, z'

loop_
  _atom_site_type_symbol
  _atom_site_label
  _atom_site_symmetry_multiplicity
  _atom_site_fract_x
  _atom_site_fract_y
  _atom_site_fract_z
  _atom_site_occupancy
  Nd  Nd1       1.0  0.57943  0.30004  0.11910  1.0000
  Nd  Nd2       1.0  0.27924  0.69989  0.38092  1.0000
  Nd  Nd3       1.0  0.42057  0.69996  0.88091  1.0000
  Nd  Nd4       1.0  0.72076  0.30011  0.61908  1.0000
  H   H1        1.0  0.99777  0.12777  0.19567  1.0000
  H   H2        1.0  0.87032  0.87208  0.30422  1.0000
  H   H3        1.0  0.00222  0.87223  0.80434  1.0000
  H   H4        1.0  0.12968  0.12793  0.69578  1.0000
  H   H5        1.0  0.91767  0.16611  0.38731  1.0000
  H   H6        1.0  0.75191  0.83384  0.11259  1.0000
  H   H7        1.0  0.08234  0.83389  0.61269  1.0000
  H   H8        1.0  0.24809  0.16616  0.88742  1.0000
  H   H9        1.0  0.54457  0.56907  0.17764  1.0000
  H   H10       1.0  0.97557  0.43084  0.32232  1.0000
  H   H11       1.0  0.45541  0.43093  0.82236  1.0000
  H   H12       1.0  0.02442  0.56916  0.67767  1.0000
  H   H13       1.0  0.67140  0.56736  0.27211  1.0000
  H   H14       1.0  0.10393  0.43271  0.22780  1.0000
  H   H15       1.0  0.32859  0.43264  0.72789  1.0000
  H   H16       1.0  0.89607  0.56729  0.77220  1.0000
  C   C1        1.0  0.39959  0.27373  0.35952  1.0000
  C   C2        1.0  0.12587  0.72618  0.14042  1.0000
  C   C3        1.0  0.60042  0.72627  0.64048  1.0000
  C   C4        1.0  0.87413  0.27382  0.85958  1.0000
  C   C5        1.0  0.62464  0.33917  0.37974  1.0000
  C   C6        1.0  0.28532  0.66075  0.12020  1.0000
  C   C7        1.0  0.37536  0.66083  0.62025  1.0000
  C   C8        1.0  0.71467  0.33925  0.87981  1.0000
  C   C9        1.0  0.11323  0.17450  0.26151  1.0000
  C   C10       1.0  0.93894  0.82539  0.23837  1.0000
  C   C11       1.0  0.88677  0.82550  0.73849  1.0000
  C   C12       1.0  0.06106  0.17462  0.76163  1.0000
  C   C13       1.0  0.24147  0.25875  0.42618  1.0000
  C   C14       1.0  0.98280  0.74118  0.07371  1.0000
  C   C15       1.0  0.75854  0.74124  0.57383  1.0000
  C   C16       1.0  0.01721  0.25882  0.92629  1.0000
  C   C17       1.0  0.23113  0.30793  0.53983  1.0000
  C   C18       1.0  0.92301  0.69201  0.96006  1.0000
  C   C19       1.0  0.76888  0.69207  0.46017  1.0000
  C   C20       1.0  0.07699  0.30800  0.03994  1.0000
  C   C21       1.0  0.56694  0.99495  0.04532  1.0000
  C   C22       1.0  0.57180  0.00513  0.45462  1.0000
  C   C23       1.0  0.43305  0.00507  0.95469  1.0000
  C   C24       1.0  0.42819  0.99484  0.54538  1.0000
  N   N1        1.0  0.31620  0.22170  0.25736  1.0000
  N   N2        1.0  0.09457  0.77817  0.24256  1.0000
  N   N3        1.0  0.68380  0.77830  0.74264  1.0000
  N   N4        1.0  0.90543  0.22183  0.75744  1.0000
  N   N5        1.0  0.06322  0.19511  0.36127  1.0000
  N   N6        1.0  0.86834  0.80481  0.13861  1.0000
  N   N7        1.0  0.93678  0.80488  0.63873  1.0000
  N   N8        1.0  0.13166  0.19519  0.86139  1.0000
  O   O1        1.0  0.72238  0.35042  0.29863  1.0000
  O   O2        1.0  0.37177  0.64947  0.20127  1.0000
  O   O3        1.0  0.27762  0.64958  0.70137  1.0000
  O   O4        1.0  0.62822  0.35053  0.79873  1.0000
  O   O5        1.0  0.05845  0.31566  0.56986  1.0000
  O   O6        1.0  0.74271  0.68452  0.93007  1.0000
  O   O7        1.0  0.94155  0.68433  0.43015  1.0000
  O   O8        1.0  0.25729  0.31549  0.06992  1.0000
  O   O9        1.0  0.71329  0.38101  0.47043  1.0000
  O   O10       1.0  0.33209  0.61901  0.02950  1.0000
  O   O11       1.0  0.28673  0.61899  0.52957  1.0000
  O   O12       1.0  0.66791  0.38099  0.97049  1.0000
  O   O13       1.0  0.39123  0.34138  0.60242  1.0000
  O   O14       1.0  0.04938  0.65828  0.89748  1.0000
  O   O15       1.0  0.60877  0.65862  0.39758  1.0000
  O   O16       1.0  0.95063  0.34172  0.10251  1.0000
  O   O17       1.0  0.64745  0.09531  0.11796  1.0000
  O   O18       1.0  0.55192  0.90480  0.38198  1.0000
  O   O19       1.0  0.35254  0.90468  0.88203  1.0000
  O   O20       1.0  0.44810  0.09521  0.61802  1.0000
  O   O21       1.0  0.64598  0.52824  0.19595  1.0000
  O   O22       1.0  0.11786  0.47176  0.30399  1.0000
  O   O23       1.0  0.35401  0.47176  0.80405  1.0000
  O   O24       1.0  0.88214  0.52824  0.69601  1.0000
  O   O25       1.0  0.58423  0.88439  0.03750  1.0000
  O   O26       1.0  0.69949  0.11580  0.46239  1.0000
  O   O27       1.0  0.41576  0.11560  0.96251  1.0000
  O   O28       1.0  0.30052  0.88420  0.53760  1.0000
