data_image0
_chemical_formula_structural       Pr4H16C24N8O28
_chemical_formula_sum              "Pr4 H16 C24 N8 O28"
_cell_length_a       6.85807
_cell_length_b       11.3668
_cell_length_c       13.4339
_cell_angle_alpha    104.786
_cell_angle_beta     89.9984
_cell_angle_gamma    107.526

_space_group_name_H-M_alt    "P 1"
_space_group_IT_number       1

loop_
  _space_group_symop_operation_xyz
  'x, y, z'

loop_
  _atom_site_type_symbol
  _atom_site_label
  _atom_site_symmetry_multiplicity
  _atom_site_fract_x
  _atom_site_fract_y
  _atom_site_fract_z
  _atom_site_occupancy
  Pr  Pr1       1.0  0.57646  0.30006  0.11951  1.0000
  Pr  Pr2       1.0  0.27596  0.70000  0.38047  1.0000
  Pr  Pr3       1.0  0.42355  0.69995  0.88049  1.0000
  Pr  Pr4       1.0  0.72404  0.29999  0.61953  1.0000
  H   H1        1.0  0.99931  0.12752  0.19996  1.0000
  H   H2        1.0  0.87122  0.87246  0.30015  1.0000
  H   H3        1.0  0.00068  0.87247  0.80003  1.0000
  H   H4        1.0  0.12877  0.12752  0.69985  1.0000
  H   H5        1.0  0.92267  0.16609  0.39058  1.0000
  H   H6        1.0  0.75588  0.83389  0.10952  1.0000
  H   H7        1.0  0.07733  0.83391  0.60941  1.0000
  H   H8        1.0  0.24411  0.16611  0.89047  1.0000
  H   H9        1.0  0.54373  0.57070  0.17846  1.0000
  H   H10       1.0  0.97313  0.42935  0.32154  1.0000
  H   H11       1.0  0.45627  0.42931  0.82155  1.0000
  H   H12       1.0  0.02687  0.57065  0.67846  1.0000
  H   H13       1.0  0.66751  0.56783  0.27256  1.0000
  H   H14       1.0  0.09983  0.43225  0.22742  1.0000
  H   H15       1.0  0.33249  0.43217  0.72744  1.0000
  H   H16       1.0  0.90017  0.56775  0.77258  1.0000
  C   C1        1.0  0.40129  0.27364  0.36074  1.0000
  C   C2        1.0  0.12719  0.72632  0.13926  1.0000
  C   C3        1.0  0.59871  0.72636  0.63926  1.0000
  C   C4        1.0  0.87281  0.27368  0.86073  1.0000
  C   C5        1.0  0.62563  0.33848  0.37980  1.0000
  C   C6        1.0  0.28686  0.66151  0.12019  1.0000
  C   C7        1.0  0.37436  0.66152  0.62020  1.0000
  C   C8        1.0  0.71315  0.33849  0.87982  1.0000
  C   C9        1.0  0.11503  0.17433  0.26483  1.0000
  C   C10       1.0  0.94015  0.82566  0.23525  1.0000
  C   C11       1.0  0.88497  0.82567  0.73517  1.0000
  C   C12       1.0  0.05984  0.17433  0.76475  1.0000
  C   C13       1.0  0.24504  0.25886  0.42768  1.0000
  C   C14       1.0  0.98563  0.74108  0.07236  1.0000
  C   C15       1.0  0.75495  0.74114  0.57232  1.0000
  C   C16       1.0  0.01437  0.25892  0.92764  1.0000
  C   C17       1.0  0.23512  0.30813  0.54045  1.0000
  C   C18       1.0  0.92640  0.69178  0.95964  1.0000
  C   C19       1.0  0.76487  0.69187  0.45955  1.0000
  C   C20       1.0  0.07360  0.30822  0.04036  1.0000
  C   C21       1.0  0.56899  0.99523  0.04428  1.0000
  C   C22       1.0  0.57371  0.00472  0.45569  1.0000
  C   C23       1.0  0.43102  0.00477  0.95572  1.0000
  C   C24       1.0  0.42631  0.99527  0.54432  1.0000
  N   N1        1.0  0.31672  0.22150  0.25971  1.0000
  N   N2        1.0  0.09481  0.77850  0.24031  1.0000
  N   N3        1.0  0.68328  0.77850  0.74029  1.0000
  N   N4        1.0  0.90519  0.22149  0.75968  1.0000
  N   N5        1.0  0.06686  0.19514  0.36404  1.0000
  N   N6        1.0  0.87110  0.80481  0.13605  1.0000
  N   N7        1.0  0.93313  0.80486  0.63596  1.0000
  N   N8        1.0  0.12890  0.19519  0.86395  1.0000
  O   O1        1.0  0.72122  0.35034  0.29891  1.0000
  O   O2        1.0  0.37064  0.64968  0.20108  1.0000
  O   O3        1.0  0.27877  0.64967  0.70109  1.0000
  O   O4        1.0  0.62935  0.35032  0.79892  1.0000
  O   O5        1.0  0.06197  0.31307  0.57027  1.0000
  O   O6        1.0  0.74826  0.68671  0.92982  1.0000
  O   O7        1.0  0.93802  0.68693  0.42973  1.0000
  O   O8        1.0  0.25174  0.31329  0.07019  1.0000
  O   O9        1.0  0.71554  0.37889  0.46930  1.0000
  O   O10       1.0  0.33657  0.62111  0.03070  1.0000
  O   O11       1.0  0.28445  0.62111  0.53070  1.0000
  O   O12       1.0  0.66347  0.37890  0.96930  1.0000
  O   O13       1.0  0.39530  0.34420  0.60229  1.0000
  O   O14       1.0  0.05060  0.65578  0.89775  1.0000
  O   O15       1.0  0.60468  0.65579  0.39771  1.0000
  O   O16       1.0  0.94941  0.34421  0.10225  1.0000
  O   O17       1.0  0.64973  0.09518  0.11607  1.0000
  O   O18       1.0  0.55419  0.90479  0.38381  1.0000
  O   O19       1.0  0.35027  0.90482  0.88394  1.0000
  O   O20       1.0  0.44582  0.09521  0.61619  1.0000
  O   O21       1.0  0.64430  0.52978  0.19683  1.0000
  O   O22       1.0  0.11451  0.47032  0.30315  1.0000
  O   O23       1.0  0.35570  0.47022  0.80317  1.0000
  O   O24       1.0  0.88549  0.52968  0.69685  1.0000
  O   O25       1.0  0.58902  0.88558  0.03585  1.0000
  O   O26       1.0  0.70357  0.11427  0.46416  1.0000
  O   O27       1.0  0.41099  0.11443  0.96415  1.0000
  O   O28       1.0  0.29645  0.88572  0.53584  1.0000
