data_image0
_chemical_formula_structural       Cd5H16C12N28Cl2O2
_chemical_formula_sum              "Cd5 H16 C12 N28 Cl2 O2"
_cell_length_a       8.02918
_cell_length_b       8.43549
_cell_length_c       13.2716
_cell_angle_alpha    93.4826
_cell_angle_beta     107.444
_cell_angle_gamma    108.474

_space_group_name_H-M_alt    "P 1"
_space_group_IT_number       1

loop_
  _space_group_symop_operation_xyz
  'x, y, z'

loop_
  _atom_site_type_symbol
  _atom_site_label
  _atom_site_symmetry_multiplicity
  _atom_site_fract_x
  _atom_site_fract_y
  _atom_site_fract_z
  _atom_site_occupancy
  Cd  Cd1       1.0  0.00000  1.00000  0.00000  1.0000
  Cd  Cd2       1.0  0.49729  0.69365  0.89602  1.0000
  Cd  Cd3       1.0  0.50271  0.30635  0.10398  1.0000
  Cd  Cd4       1.0  0.04568  0.49670  0.64244  1.0000
  Cd  Cd5       1.0  0.95432  0.50330  0.35756  1.0000
  H   H1        1.0  0.43932  0.42390  0.66232  1.0000
  H   H2        1.0  0.56068  0.57611  0.33767  1.0000
  H   H3        1.0  0.52523  0.28960  0.74062  1.0000
  H   H4        1.0  0.47477  0.71040  0.25938  1.0000
  H   H5        1.0  0.45185  0.19573  0.54865  1.0000
  H   H6        1.0  0.54815  0.80428  0.45135  1.0000
  H   H7        1.0  0.60544  0.39456  0.53636  1.0000
  H   H8        1.0  0.39456  0.60545  0.46364  1.0000
  H   H9        1.0  0.59876  0.99151  0.61096  1.0000
  H   H10       1.0  0.40123  0.00850  0.38904  1.0000
  H   H11       1.0  0.68315  0.12394  0.73812  1.0000
  H   H12       1.0  0.31685  0.87607  0.26188  1.0000
  H   H13       1.0  0.86653  0.93521  0.71834  1.0000
  H   H14       1.0  0.13346  0.06479  0.28166  1.0000
  H   H15       1.0  0.93522  0.04907  0.62139  1.0000
  H   H16       1.0  0.06478  0.95092  0.37861  1.0000
  C   C1        1.0  0.72558  0.53326  0.75676  1.0000
  C   C2        1.0  0.27442  0.46675  0.24323  1.0000
  C   C3        1.0  0.56140  0.38459  0.69003  1.0000
  C   C4        1.0  0.43860  0.61541  0.30997  1.0000
  C   C5        1.0  0.58203  0.30324  0.59071  1.0000
  C   C6        1.0  0.41797  0.69676  0.40929  1.0000
  C   C7        1.0  0.71639  0.10061  0.66520  1.0000
  C   C8        1.0  0.28361  0.89940  0.33481  1.0000
  C   C9        1.0  0.89496  0.05955  0.69306  1.0000
  C   C10       1.0  0.10503  0.94045  0.30694  1.0000
  C   C11       1.0  0.05533  0.18567  0.78026  1.0000
  C   C12       1.0  0.94467  0.81433  0.21974  1.0000
  N   N1        1.0  0.90191  0.57651  0.75571  1.0000
  N   N2        1.0  0.09809  0.42349  0.24429  1.0000
  N   N3        1.0  0.00620  0.71626  0.83001  1.0000
  N   N4        1.0  0.99380  0.28374  0.16999  1.0000
  N   N5        1.0  0.89706  0.75558  0.87508  1.0000
  N   N6        1.0  0.10294  0.24441  0.12492  1.0000
  N   N7        1.0  0.72087  0.64497  0.83141  1.0000
  N   N8        1.0  0.27914  0.35503  0.16859  1.0000
  N   N9        1.0  0.15892  0.33832  0.76797  1.0000
  N   N10       1.0  0.84108  0.66168  0.23203  1.0000
  N   N11       1.0  0.29062  0.41026  0.86366  1.0000
  N   N12       1.0  0.70938  0.58974  0.13634  1.0000
  N   N13       1.0  0.26881  0.30699  0.93239  1.0000
  N   N14       1.0  0.73119  0.69300  0.06761  1.0000
  N   N15       1.0  0.12173  0.16575  0.88274  1.0000
  N   N16       1.0  0.87827  0.83425  0.11726  1.0000
  N   N17       1.0  0.32223  0.72485  0.73072  1.0000
  N   N18       1.0  0.67777  0.27514  0.26928  1.0000
  N   N19       1.0  0.31245  0.86407  0.72012  1.0000
  N   N20       1.0  0.68755  0.13593  0.27988  1.0000
  N   N21       1.0  0.30340  0.99664  0.70842  1.0000
  N   N22       1.0  0.69660  0.00336  0.29158  1.0000
  N   N23       1.0  0.69009  0.00119  0.92529  1.0000
  N   N24       1.0  0.30992  0.99880  0.07471  1.0000
  N   N25       1.0  0.65623  0.12288  0.95024  1.0000
  N   N26       1.0  0.34378  0.87712  0.04976  1.0000
  N   N27       1.0  0.62598  0.24581  0.97116  1.0000
  N   N28       1.0  0.37402  0.75418  0.02884  1.0000
  Cl  Cl1       1.0  0.89205  0.66207  0.50526  1.0000
  Cl  Cl2       1.0  0.10795  0.33793  0.49475  1.0000
  O   O1        1.0  0.73833  0.24578  0.61249  1.0000
  O   O2        1.0  0.26167  0.75423  0.38751  1.0000
