data_image0
_chemical_formula_structural       Cd4H56C48S8N16O4
_chemical_formula_sum              "Cd4 H56 C48 S8 N16 O4"
_cell_length_a       9.70662
_cell_length_b       10.5519
_cell_length_c       16.202
_cell_angle_alpha    90
_cell_angle_beta     90
_cell_angle_gamma    105.284

_space_group_name_H-M_alt    "P 1"
_space_group_IT_number       1

loop_
  _space_group_symop_operation_xyz
  'x, y, z'

loop_
  _atom_site_type_symbol
  _atom_site_label
  _atom_site_symmetry_multiplicity
  _atom_site_fract_x
  _atom_site_fract_y
  _atom_site_fract_z
  _atom_site_occupancy
  Cd  Cd1       1.0  0.73815  0.45147  0.58627  1.0000
  Cd  Cd2       1.0  0.26185  0.04853  0.08627  1.0000
  Cd  Cd3       1.0  0.26185  0.54853  0.41373  1.0000
  Cd  Cd4       1.0  0.73815  0.95147  0.91373  1.0000
  H   H1        1.0  0.58515  0.17834  0.65850  1.0000
  H   H2        1.0  0.41485  0.32165  0.15850  1.0000
  H   H3        1.0  0.41485  0.82165  0.34150  1.0000
  H   H4        1.0  0.58515  0.67834  0.84150  1.0000
  H   H5        1.0  0.39854  0.73080  0.76241  1.0000
  H   H6        1.0  0.60146  0.76920  0.26241  1.0000
  H   H7        1.0  0.60146  0.26920  0.23759  1.0000
  H   H8        1.0  0.39854  0.23080  0.73759  1.0000
  H   H9        1.0  0.26395  0.74628  0.69219  1.0000
  H   H10       1.0  0.73605  0.75373  0.19219  1.0000
  H   H11       1.0  0.73605  0.25373  0.30781  1.0000
  H   H12       1.0  0.26395  0.24628  0.80781  1.0000
  H   H13       1.0  0.36970  0.93133  0.83982  1.0000
  H   H14       1.0  0.63030  0.56868  0.33982  1.0000
  H   H15       1.0  0.63030  0.06868  0.16018  1.0000
  H   H16       1.0  0.36970  0.43133  0.66018  1.0000
  H   H17       1.0  0.22670  0.93840  0.77219  1.0000
  H   H18       1.0  0.77329  0.56160  0.27219  1.0000
  H   H19       1.0  0.77330  0.06160  0.22781  1.0000
  H   H20       1.0  0.22671  0.43840  0.72781  1.0000
  H   H21       1.0  0.21094  0.80185  0.83853  1.0000
  H   H22       1.0  0.78906  0.69815  0.33853  1.0000
  H   H23       1.0  0.78906  0.19815  0.16147  1.0000
  H   H24       1.0  0.21094  0.30185  0.66147  1.0000
  H   H25       1.0  0.85390  0.91166  0.66569  1.0000
  H   H26       1.0  0.14610  0.58834  0.16569  1.0000
  H   H27       1.0  0.14610  0.08834  0.33431  1.0000
  H   H28       1.0  0.85390  0.41166  0.83431  1.0000
  H   H29       1.0  0.04206  0.08479  0.59192  1.0000
  H   H30       1.0  0.95794  0.41521  0.09192  1.0000
  H   H31       1.0  0.95794  0.91521  0.40808  1.0000
  H   H32       1.0  0.04206  0.58479  0.90808  1.0000
  H   H33       1.0  0.99019  0.29907  0.55764  1.0000
  H   H34       1.0  0.00981  0.20092  0.05764  1.0000
  H   H35       1.0  0.00981  0.70092  0.44236  1.0000
  H   H36       1.0  0.99019  0.79907  0.94236  1.0000
  H   H37       1.0  0.37331  0.81497  0.56834  1.0000
  H   H38       1.0  0.62669  0.68503  0.06833  1.0000
  H   H39       1.0  0.62669  0.18503  0.43167  1.0000
  H   H40       1.0  0.37331  0.31497  0.93166  1.0000
  H   H41       1.0  0.51090  0.96203  0.56337  1.0000
  H   H42       1.0  0.48910  0.53797  0.06336  1.0000
  H   H43       1.0  0.48910  0.03797  0.43664  1.0000
  H   H44       1.0  0.51091  0.46203  0.93663  1.0000
  H   H45       1.0  0.27398  0.00018  0.52735  1.0000
  H   H46       1.0  0.72602  0.49982  0.02735  1.0000
  H   H47       1.0  0.72602  0.99982  0.47265  1.0000
  H   H48       1.0  0.27398  0.50018  0.97265  1.0000
  H   H49       1.0  0.34187  0.08866  0.61831  1.0000
  H   H50       1.0  0.65813  0.41135  0.11831  1.0000
  H   H51       1.0  0.65813  0.91134  0.38170  1.0000
  H   H52       1.0  0.34187  0.58866  0.88169  1.0000
  H   H53       1.0  0.20415  0.93860  0.62488  1.0000
  H   H54       1.0  0.79586  0.56140  0.12488  1.0000
  H   H55       1.0  0.79586  0.06140  0.37512  1.0000
  H   H56       1.0  0.20415  0.43860  0.87512  1.0000
  C   C1        1.0  0.91264  0.43728  0.40397  1.0000
  C   C2        1.0  0.08736  0.06273  0.90397  1.0000
  C   C3        1.0  0.08736  0.56273  0.59603  1.0000
  C   C4        1.0  0.91264  0.93728  0.09603  1.0000
  C   C5        1.0  0.30223  0.98966  0.59219  1.0000
  C   C6        1.0  0.69777  0.51034  0.09219  1.0000
  C   C7        1.0  0.69777  0.01034  0.40781  1.0000
  C   C8        1.0  0.30223  0.48966  0.90781  1.0000
  C   C9        1.0  0.34777  0.80132  0.73372  1.0000
  C   C10       1.0  0.65223  0.69868  0.23372  1.0000
  C   C11       1.0  0.65223  0.19868  0.26628  1.0000
  C   C12       1.0  0.34777  0.30132  0.76627  1.0000
  C   C13       1.0  0.28571  0.87335  0.79962  1.0000
  C   C14       1.0  0.71429  0.62665  0.29962  1.0000
  C   C15       1.0  0.71429  0.12665  0.20038  1.0000
  C   C16       1.0  0.28571  0.37335  0.70038  1.0000
  C   C17       1.0  0.42677  0.33127  0.48743  1.0000
  C   C18       1.0  0.57322  0.16873  0.98743  1.0000
  C   C19       1.0  0.57322  0.66873  0.51257  1.0000
  C   C20       1.0  0.42677  0.83127  0.01256  1.0000
  C   C21       1.0  0.68358  0.15183  0.64397  1.0000
  C   C22       1.0  0.31642  0.34817  0.14397  1.0000
  C   C23       1.0  0.31642  0.84817  0.35603  1.0000
  C   C24       1.0  0.68358  0.65183  0.85603  1.0000
  C   C25       1.0  0.70213  0.02895  0.66461  1.0000
  C   C26       1.0  0.29788  0.47105  0.16461  1.0000
  C   C27       1.0  0.29788  0.97105  0.33539  1.0000
  C   C28       1.0  0.70213  0.52895  0.83539  1.0000
  C   C29       1.0  0.83447  0.00478  0.64777  1.0000
  C   C30       1.0  0.16554  0.49522  0.14777  1.0000
  C   C31       1.0  0.16554  0.99522  0.35223  1.0000
  C   C32       1.0  0.83447  0.50478  0.85223  1.0000
  C   C33       1.0  0.93896  0.10105  0.60759  1.0000
  C   C34       1.0  0.06105  0.39895  0.10759  1.0000
  C   C35       1.0  0.06105  0.89895  0.39241  1.0000
  C   C36       1.0  0.93896  0.60105  0.89241  1.0000
  C   C37       1.0  0.91099  0.22060  0.58845  1.0000
  C   C38       1.0  0.08900  0.27940  0.08845  1.0000
  C   C39       1.0  0.08901  0.77940  0.41154  1.0000
  C   C40       1.0  0.91099  0.72060  0.91155  1.0000
  C   C41       1.0  0.59004  0.93117  0.71177  1.0000
  C   C42       1.0  0.40995  0.56883  0.21177  1.0000
  C   C43       1.0  0.40996  0.06883  0.28823  1.0000
  C   C44       1.0  0.59005  0.43117  0.78823  1.0000
  C   C45       1.0  0.41420  0.91210  0.59724  1.0000
  C   C46       1.0  0.58580  0.58790  0.09724  1.0000
  C   C47       1.0  0.58580  0.08790  0.40276  1.0000
  C   C48       1.0  0.41420  0.41210  0.90276  1.0000
  S   S1        1.0  0.01861  0.42278  0.32839  1.0000
  S   S2        1.0  0.98139  0.07722  0.82839  1.0000
  S   S3        1.0  0.98139  0.57722  0.67162  1.0000
  S   S4        1.0  0.01861  0.92278  0.17161  1.0000
  S   S5        1.0  0.30080  0.30961  0.41783  1.0000
  S   S6        1.0  0.69919  0.19038  0.91782  1.0000
  S   S7        1.0  0.69919  0.69038  0.58218  1.0000
  S   S8        1.0  0.30080  0.80961  0.08216  1.0000
  N   N1        1.0  0.83396  0.44917  0.45735  1.0000
  N   N2        1.0  0.16604  0.05083  0.95735  1.0000
  N   N3        1.0  0.16604  0.55083  0.54265  1.0000
  N   N4        1.0  0.83396  0.94917  0.04265  1.0000
  N   N5        1.0  0.51560  0.34284  0.53882  1.0000
  N   N6        1.0  0.48439  0.15716  0.03882  1.0000
  N   N7        1.0  0.48440  0.65716  0.46118  1.0000
  N   N8        1.0  0.51560  0.84284  0.96118  1.0000
  N   N9        1.0  0.78613  0.24581  0.60772  1.0000
  N   N10       1.0  0.21387  0.25419  0.10772  1.0000
  N   N11       1.0  0.21387  0.75419  0.39229  1.0000
  N   N12       1.0  0.78613  0.74581  0.89229  1.0000
  N   N13       1.0  0.45587  0.89035  0.68194  1.0000
  N   N14       1.0  0.54412  0.60965  0.18194  1.0000
  N   N15       1.0  0.54412  0.10965  0.31806  1.0000
  N   N16       1.0  0.45588  0.39035  0.81806  1.0000
  O   O1        1.0  0.62316  0.89025  0.77977  1.0000
  O   O2        1.0  0.37684  0.60975  0.27977  1.0000
  O   O3        1.0  0.37685  0.10975  0.22023  1.0000
  O   O4        1.0  0.62316  0.39024  0.72022  1.0000
