data_image0
_chemical_formula_structural       H24Pb2C28I4N4
_chemical_formula_sum              "H24 Pb2 C28 I4 N4"
_cell_length_a       7.89182
_cell_length_b       10.9306
_cell_length_c       10.9321
_cell_angle_alpha    67.6532
_cell_angle_beta     72.1711
_cell_angle_gamma    72.1783

_space_group_name_H-M_alt    "P 1"
_space_group_IT_number       1

loop_
  _space_group_symop_operation_xyz
  'x, y, z'

loop_
  _atom_site_type_symbol
  _atom_site_label
  _atom_site_symmetry_multiplicity
  _atom_site_fract_x
  _atom_site_fract_y
  _atom_site_fract_z
  _atom_site_occupancy
  H   H1        1.0  0.27063  0.36012  0.11486  1.0000
  H   H2        1.0  0.22942  0.88460  0.63999  1.0000
  H   H3        1.0  0.72929  0.64007  0.88493  1.0000
  H   H4        1.0  0.77044  0.11520  0.36017  1.0000
  H   H5        1.0  0.39845  0.11738  0.23179  1.0000
  H   H6        1.0  0.10146  0.76786  0.88284  1.0000
  H   H7        1.0  0.60137  0.88286  0.76811  1.0000
  H   H8        1.0  0.89836  0.23206  0.11741  1.0000
  H   H9        1.0  0.61960  0.90499  0.22316  1.0000
  H   H10       1.0  0.88038  0.77679  0.09514  1.0000
  H   H11       1.0  0.38019  0.09517  0.77687  1.0000
  H   H12       1.0  0.11948  0.22330  0.90502  1.0000
  H   H13       1.0  0.45051  0.54526  0.75098  1.0000
  H   H14       1.0  0.04958  0.24846  0.45467  1.0000
  H   H15       1.0  0.54936  0.45472  0.24873  1.0000
  H   H16       1.0  0.95077  0.75138  0.54543  1.0000
  H   H17       1.0  0.39541  0.56956  0.91137  1.0000
  H   H18       1.0  0.10584  0.08784  0.43057  1.0000
  H   H19       1.0  0.60501  0.43062  0.08819  1.0000
  H   H20       1.0  0.89399  0.91202  0.56956  1.0000
  H   H21       1.0  0.23825  0.52078  0.86194  1.0000
  H   H22       1.0  0.26208  0.13811  0.47942  1.0000
  H   H23       1.0  0.76175  0.47936  0.13808  1.0000
  H   H24       1.0  0.73810  0.86142  0.52069  1.0000
  Pb  Pb1       1.0  0.75028  0.39937  0.60058  1.0000
  Pb  Pb2       1.0  0.24999  0.60060  0.39930  1.0000
  C   C1        1.0  0.38435  0.29974  0.06138  1.0000
  C   C2        1.0  0.11580  0.93818  0.70036  1.0000
  C   C3        1.0  0.61558  0.70043  0.93845  1.0000
  C   C4        1.0  0.88415  0.06166  0.29979  1.0000
  C   C5        1.0  0.45472  0.16673  0.12569  1.0000
  C   C6        1.0  0.04537  0.87400  0.83337  1.0000
  C   C7        1.0  0.54518  0.83342  0.87423  1.0000
  C   C8        1.0  0.95456  0.12591  0.16679  1.0000
  C   C9        1.0  0.46149  0.36095  0.92369  1.0000
  C   C10       1.0  0.03889  0.07592  0.63908  1.0000
  C   C11       1.0  0.53855  0.63914  0.07617  1.0000
  C   C12       1.0  0.96115  0.92391  0.36104  1.0000
  C   C13       1.0  0.67398  0.15941  0.91543  1.0000
  C   C14       1.0  0.82637  0.08441  0.84055  1.0000
  C   C15       1.0  0.32600  0.84066  0.08455  1.0000
  C   C16       1.0  0.17365  0.91558  0.15951  1.0000
  C   C17       1.0  0.67846  0.95347  0.11722  1.0000
  C   C18       1.0  0.82166  0.88271  0.04658  1.0000
  C   C19       1.0  0.32137  0.04666  0.88284  1.0000
  C   C20       1.0  0.17828  0.11732  0.95354  1.0000
  C   C21       1.0  0.60265  0.09194  0.05375  1.0000
  C   C22       1.0  0.89754  0.94606  0.90812  1.0000
  C   C23       1.0  0.39727  0.90818  0.94622  1.0000
  C   C24       1.0  0.10242  0.05393  0.09201  1.0000
  C   C25       1.0  0.38396  0.50650  0.85757  1.0000
  C   C26       1.0  0.11657  0.14200  0.49357  1.0000
  C   C27       1.0  0.61610  0.49361  0.14221  1.0000
  C   C28       1.0  0.88355  0.85777  0.50654  1.0000
  I   I1        1.0  0.50195  0.27555  0.51798  1.0000
  I   I2        1.0  0.99785  0.48230  0.72478  1.0000
  I   I3        1.0  0.49821  0.72445  0.48197  1.0000
  I   I4        1.0  0.00224  0.51759  0.27525  1.0000
  N   N1        1.0  0.60185  0.29200  0.85366  1.0000
  N   N2        1.0  0.89862  0.14609  0.70796  1.0000
  N   N3        1.0  0.39821  0.70805  0.14625  1.0000
  N   N4        1.0  0.10145  0.85386  0.29209  1.0000
