data_image0
_chemical_formula_structural       Sn4P2H10C12S2O14
_chemical_formula_sum              "Sn4 P2 H10 C12 S2 O14"
_cell_length_a       6.9106
_cell_length_b       8.39876
_cell_length_c       9.96747
_cell_angle_alpha    82.3454
_cell_angle_beta     87.9098
_cell_angle_gamma    75.3542

_space_group_name_H-M_alt    "P 1"
_space_group_IT_number       1

loop_
  _space_group_symop_operation_xyz
  'x, y, z'

loop_
  _atom_site_type_symbol
  _atom_site_label
  _atom_site_symmetry_multiplicity
  _atom_site_fract_x
  _atom_site_fract_y
  _atom_site_fract_z
  _atom_site_occupancy
  Sn  Sn1       1.0  0.81472  0.84369  0.58018  1.0000
  Sn  Sn2       1.0  0.18530  0.15630  0.41983  1.0000
  Sn  Sn3       1.0  0.63217  0.61722  0.35139  1.0000
  Sn  Sn4       1.0  0.36782  0.38281  0.64860  1.0000
  P   P1        1.0  0.12432  0.57460  0.34488  1.0000
  P   P2        1.0  0.87567  0.42540  0.65512  1.0000
  H   H1        1.0  0.44030  0.80738  0.54912  1.0000
  H   H2        1.0  0.55972  0.19262  0.45089  1.0000
  H   H3        1.0  0.23766  0.45929  0.08311  1.0000
  H   H4        1.0  0.76235  0.54070  0.91689  1.0000
  H   H5        1.0  0.33127  0.60253  0.86410  1.0000
  H   H6        1.0  0.66873  0.39747  0.13591  1.0000
  H   H7        1.0  0.23393  0.05840  0.03997  1.0000
  H   H8        1.0  0.76607  0.94159  0.96003  1.0000
  H   H9        1.0  0.12974  0.91816  0.25617  1.0000
  H   H10       1.0  0.87025  0.08184  0.74383  1.0000
  C   C1        1.0  0.18239  0.67900  0.18437  1.0000
  C   C2        1.0  0.81761  0.32100  0.81563  1.0000
  C   C3        1.0  0.23589  0.59048  0.07289  1.0000
  C   C4        1.0  0.76412  0.40951  0.92711  1.0000
  C   C5        1.0  0.28891  0.67048  0.95089  1.0000
  C   C6        1.0  0.71109  0.32951  0.04911  1.0000
  C   C7        1.0  0.29020  0.83778  0.94096  1.0000
  C   C8        1.0  0.70980  0.16221  0.05905  1.0000
  C   C9        1.0  0.23303  0.92808  0.04980  1.0000
  C   C10       1.0  0.76697  0.07192  0.95020  1.0000
  C   C11       1.0  0.17789  0.84805  0.17112  1.0000
  C   C12       1.0  0.82210  0.15195  0.82888  1.0000
  S   S1        1.0  0.37325  0.93550  0.78806  1.0000
  S   S2        1.0  0.62675  0.06450  0.21194  1.0000
  O   O1        1.0  0.92549  0.68089  0.39849  1.0000
  O   O2        1.0  0.07450  0.31911  0.60150  1.0000
  O   O3        1.0  0.09414  0.40759  0.31537  1.0000
  O   O4        1.0  0.90586  0.59241  0.68463  1.0000
  O   O5        1.0  0.29593  0.56248  0.44485  1.0000
  O   O6        1.0  0.70406  0.43753  0.55516  1.0000
  O   O7        1.0  0.25611  0.90612  0.67662  1.0000
  O   O8        1.0  0.74388  0.09388  0.32338  1.0000
  O   O9        1.0  0.58789  0.84743  0.77664  1.0000
  O   O10       1.0  0.41211  0.15258  0.22336  1.0000
  O   O11       1.0  0.34320  0.11004  0.80698  1.0000
  O   O12       1.0  0.65678  0.88996  0.19302  1.0000
  O   O13       1.0  0.55348  0.80374  0.48516  1.0000
  O   O14       1.0  0.44652  0.19628  0.51484  1.0000
