data_image0
_chemical_formula_structural       Na4H64C40O18
_chemical_formula_sum              "Na4 H64 C40 O18"
_cell_length_a       4.91678
_cell_length_b       14.1797
_cell_length_c       16.98
_cell_angle_alpha    100.898
_cell_angle_beta     98.6551
_cell_angle_gamma    89.9368

_space_group_name_H-M_alt    "P 1"
_space_group_IT_number       1

loop_
  _space_group_symop_operation_xyz
  'x, y, z'

loop_
  _atom_site_type_symbol
  _atom_site_label
  _atom_site_symmetry_multiplicity
  _atom_site_fract_x
  _atom_site_fract_y
  _atom_site_fract_z
  _atom_site_occupancy
  Na  Na1       1.0  0.10848  0.12931  0.03045  1.0000
  Na  Na2       1.0  0.92319  0.62917  0.03059  1.0000
  Na  Na3       1.0  0.89153  0.87068  0.96955  1.0000
  Na  Na4       1.0  0.07680  0.37083  0.96941  1.0000
  H   H1        1.0  0.90819  0.34780  0.27330  1.0000
  H   H2        1.0  0.36396  0.84839  0.27452  1.0000
  H   H3        1.0  0.09182  0.65219  0.72670  1.0000
  H   H4        1.0  0.63603  0.15161  0.72548  1.0000
  H   H5        1.0  0.93934  0.27445  0.34911  1.0000
  H   H6        1.0  0.40965  0.77530  0.35057  1.0000
  H   H7        1.0  0.06067  0.72555  0.65090  1.0000
  H   H8        1.0  0.59033  0.22470  0.64943  1.0000
  H   H9        1.0  0.68539  0.24686  0.26220  1.0000
  H   H10       1.0  0.57742  0.74780  0.26442  1.0000
  H   H11       1.0  0.31461  0.75314  0.73780  1.0000
  H   H12       1.0  0.42257  0.25220  0.73558  1.0000
  H   H13       1.0  0.26507  0.21789  0.39043  1.0000
  H   H14       1.0  0.12475  0.71860  0.39102  1.0000
  H   H15       1.0  0.73495  0.78211  0.60958  1.0000
  H   H16       1.0  0.87524  0.28140  0.60897  1.0000
  H   H17       1.0  0.67807  0.95353  0.21827  1.0000
  H   H18       1.0  0.54112  0.45345  0.21737  1.0000
  H   H19       1.0  0.32194  0.04647  0.78174  1.0000
  H   H20       1.0  0.45886  0.54654  0.78263  1.0000
  H   H21       1.0  0.52264  0.18918  0.50756  1.0000
  H   H22       1.0  0.98449  0.68957  0.50764  1.0000
  H   H23       1.0  0.47737  0.81083  0.49244  1.0000
  H   H24       1.0  0.01550  0.31042  0.49235  1.0000
  H   H25       1.0  0.86129  0.15074  0.49582  1.0000
  H   H26       1.0  0.63354  0.65101  0.49456  1.0000
  H   H27       1.0  0.13873  0.84927  0.50419  1.0000
  H   H28       1.0  0.36645  0.34899  0.50543  1.0000
  H   H29       1.0  0.61301  0.06839  0.50901  1.0000
  H   H30       1.0  0.89559  0.56875  0.50873  1.0000
  H   H31       1.0  0.38700  0.93161  0.49099  1.0000
  H   H32       1.0  0.10439  0.43124  0.49126  1.0000
  H   H33       1.0  0.93732  0.90879  0.33180  1.0000
  H   H34       1.0  0.39435  0.40896  0.33027  1.0000
  H   H35       1.0  0.06270  0.09121  0.66820  1.0000
  H   H36       1.0  0.60562  0.59104  0.66973  1.0000
  H   H37       1.0  0.82821  0.94468  0.42812  1.0000
  H   H38       1.0  0.60072  0.44470  0.42708  1.0000
  H   H39       1.0  0.17181  0.05532  0.57189  1.0000
  H   H40       1.0  0.39926  0.55530  0.57292  1.0000
  H   H41       1.0  0.08304  0.01355  0.39925  1.0000
  H   H42       1.0  0.31647  0.51372  0.39755  1.0000
  H   H43       1.0  0.91699  0.98645  0.60076  1.0000
  H   H44       1.0  0.68352  0.48628  0.60245  1.0000
  H   H45       1.0  0.06235  0.97918  0.89522  1.0000
  H   H46       1.0  0.83050  0.47931  0.89491  1.0000
  H   H47       1.0  0.93766  0.02082  0.10478  1.0000
  H   H48       1.0  0.16949  0.52069  0.10509  1.0000
  H   H49       1.0  0.38972  0.97852  0.91255  1.0000
  H   H50       1.0  0.52148  0.47827  0.91239  1.0000
  H   H51       1.0  0.61030  0.02148  0.08745  1.0000
  H   H52       1.0  0.47851  0.52172  0.08760  1.0000
  H   H53       1.0  0.52332  0.29125  0.03694  1.0000
  H   H54       1.0  0.51506  0.79109  0.03729  1.0000
  H   H55       1.0  0.47669  0.70875  0.96306  1.0000
  H   H56       1.0  0.48494  0.20892  0.96271  1.0000
  H   H57       1.0  0.70956  0.08116  0.89315  1.0000
  H   H58       1.0  0.18205  0.58075  0.89345  1.0000
  H   H59       1.0  0.29045  0.91884  0.10685  1.0000
  H   H60       1.0  0.81795  0.41925  0.10655  1.0000
  H   H61       1.0  0.79049  0.18824  0.88107  1.0000
  H   H62       1.0  0.08883  0.68799  0.88156  1.0000
  H   H63       1.0  0.20950  0.81176  0.11893  1.0000
  H   H64       1.0  0.91118  0.31201  0.11844  1.0000
  C   C1        1.0  0.89815  0.27404  0.28403  1.0000
  C   C2        1.0  0.38575  0.77471  0.28549  1.0000
  C   C3        1.0  0.10186  0.72596  0.71597  1.0000
  C   C4        1.0  0.61422  0.22529  0.71451  1.0000
  C   C5        1.0  0.07786  0.21054  0.23295  1.0000
  C   C6        1.0  0.15558  0.71082  0.23374  1.0000
  C   C7        1.0  0.92215  0.78946  0.76706  1.0000
  C   C8        1.0  0.84441  0.28918  0.76626  1.0000
  C   C9        1.0  0.26512  0.14356  0.26712  1.0000
  C   C10       1.0  0.00209  0.64401  0.26752  1.0000
  C   C11       1.0  0.73490  0.85644  0.73288  1.0000
  C   C12       1.0  0.99789  0.35599  0.73247  1.0000
  C   C13       1.0  0.35258  0.15907  0.35196  1.0000
  C   C14       1.0  0.99916  0.65960  0.35223  1.0000
  C   C15       1.0  0.64743  0.84093  0.64804  1.0000
  C   C16       1.0  0.00082  0.34040  0.64776  1.0000
  C   C17       1.0  0.55288  0.10634  0.38929  1.0000
  C   C18       1.0  0.83649  0.60672  0.38903  1.0000
  C   C19       1.0  0.44714  0.89366  0.61072  1.0000
  C   C20       1.0  0.16348  0.39328  0.61097  1.0000
  C   C21       1.0  0.67312  0.03057  0.33965  1.0000
  C   C22       1.0  0.66692  0.53078  0.33893  1.0000
  C   C23       1.0  0.32690  0.96943  0.66035  1.0000
  C   C24       1.0  0.33307  0.46922  0.66107  1.0000
  C   C25       1.0  0.58721  0.01212  0.25648  1.0000
  C   C26       1.0  0.66995  0.51223  0.25591  1.0000
  C   C27       1.0  0.41280  0.98788  0.74352  1.0000
  C   C28       1.0  0.33003  0.48777  0.74409  1.0000
  C   C29       1.0  0.38326  0.06547  0.21668  1.0000
  C   C30       1.0  0.83430  0.56564  0.21670  1.0000
  C   C31       1.0  0.61675  0.93453  0.78333  1.0000
  C   C32       1.0  0.16568  0.43436  0.78330  1.0000
  C   C33       1.0  0.64133  0.12978  0.47961  1.0000
  C   C34       1.0  0.83787  0.63014  0.47919  1.0000
  C   C35       1.0  0.35870  0.87023  0.52039  1.0000
  C   C36       1.0  0.16212  0.36985  0.52081  1.0000
  C   C37       1.0  0.89075  0.97091  0.37642  1.0000
  C   C38       1.0  0.48605  0.47105  0.37513  1.0000
  C   C39       1.0  0.10928  0.02909  0.62358  1.0000
  C   C40       1.0  0.51395  0.52895  0.62487  1.0000
  O   O1        1.0  0.05747  0.21792  0.15984  1.0000
  O   O2        1.0  0.10392  0.71773  0.16046  1.0000
  O   O3        1.0  0.94254  0.78207  0.84016  1.0000
  O   O4        1.0  0.89607  0.28227  0.83954  1.0000
  O   O5        1.0  0.30800  0.04040  0.13809  1.0000
  O   O6        1.0  0.83182  0.54041  0.13828  1.0000
  O   O7        1.0  0.69200  0.95960  0.86192  1.0000
  O   O8        1.0  0.16817  0.45959  0.86171  1.0000
  O   O9        1.0  0.22297  0.99055  0.93872  1.0000
  O   O10       1.0  0.71545  0.49046  0.93849  1.0000
  O   O11       1.0  0.77704  0.00945  0.06128  1.0000
  O   O12       1.0  0.28454  0.50954  0.06151  1.0000
  O   O13       1.0  0.37429  0.24997  0.99990  1.0000
  O   O14       1.0  0.62571  0.75003  0.00010  1.0000
  O   O15       1.0  0.74535  0.14969  0.92069  1.0000
  O   O16       1.0  0.17401  0.64920  0.92118  1.0000
  O   O17       1.0  0.25466  0.85031  0.07931  1.0000
  O   O18       1.0  0.82600  0.35080  0.07882  1.0000
