data_image0
_chemical_formula_structural       Er2H36C38N6O22
_chemical_formula_sum              "Er2 H36 C38 N6 O22"
_cell_length_a       6.98822
_cell_length_b       11.1608
_cell_length_c       13.381
_cell_angle_alpha    102.554
_cell_angle_beta     101.61
_cell_angle_gamma    90.6385

_space_group_name_H-M_alt    "P 1"
_space_group_IT_number       1

loop_
  _space_group_symop_operation_xyz
  'x, y, z'

loop_
  _atom_site_type_symbol
  _atom_site_label
  _atom_site_symmetry_multiplicity
  _atom_site_fract_x
  _atom_site_fract_y
  _atom_site_fract_z
  _atom_site_occupancy
  Er  Er1       1.0  0.90370  0.11259  0.85272  1.0000
  Er  Er2       1.0  0.09630  0.88742  0.14728  1.0000
  H   H1        1.0  0.65747  0.52305  0.87843  1.0000
  H   H2        1.0  0.34253  0.47694  0.12157  1.0000
  H   H3        1.0  0.31151  0.64664  0.62170  1.0000
  H   H4        1.0  0.68849  0.35335  0.37831  1.0000
  H   H5        1.0  0.42717  0.26287  0.58842  1.0000
  H   H6        1.0  0.57282  0.73713  0.41158  1.0000
  H   H7        1.0  0.65437  0.47528  0.04119  1.0000
  H   H8        1.0  0.34563  0.52473  0.95882  1.0000
  H   H9        1.0  0.85159  0.36091  0.04649  1.0000
  H   H10       1.0  0.14842  0.63909  0.95351  1.0000
  H   H11       1.0  0.16219  0.26809  0.32672  1.0000
  H   H12       1.0  0.83781  0.73191  0.67328  1.0000
  H   H13       1.0  0.02971  0.64530  0.33042  1.0000
  H   H14       1.0  0.97030  0.35470  0.66958  1.0000
  H   H15       1.0  0.49254  0.07329  0.89061  1.0000
  H   H16       1.0  0.50746  0.92671  0.10938  1.0000
  H   H17       1.0  0.54603  0.94242  0.83144  1.0000
  H   H18       1.0  0.45396  0.05758  0.16856  1.0000
  H   H19       1.0  0.23503  0.00810  0.96251  1.0000
  H   H20       1.0  0.76498  0.99191  0.03749  1.0000
  H   H21       1.0  0.30248  0.15060  0.99708  1.0000
  H   H22       1.0  0.69753  0.84940  0.00292  1.0000
  H   H23       1.0  0.31752  0.07173  0.72084  1.0000
  H   H24       1.0  0.68248  0.92827  0.27916  1.0000
  H   H25       1.0  0.07087  0.75180  0.54169  1.0000
  H   H26       1.0  0.92913  0.24820  0.45831  1.0000
  H   H27       1.0  0.03058  0.84874  0.45065  1.0000
  H   H28       1.0  0.96943  0.15126  0.54935  1.0000
  H   H29       1.0  0.90807  0.87389  0.55925  1.0000
  H   H30       1.0  0.09193  0.12611  0.44075  1.0000
  H   H31       1.0  0.50056  0.98343  0.61879  1.0000
  H   H32       1.0  0.49944  0.01656  0.38121  1.0000
  H   H33       1.0  0.38646  0.90038  0.48879  1.0000
  H   H34       1.0  0.61355  0.09962  0.51122  1.0000
  H   H35       1.0  0.44705  0.82156  0.59352  1.0000
  H   H36       1.0  0.55295  0.17844  0.40649  1.0000
  C   C1        1.0  0.65657  0.28146  0.78254  1.0000
  C   C2        1.0  0.34343  0.71854  0.21745  1.0000
  C   C3        1.0  0.54849  0.38037  0.74026  1.0000
  C   C4        1.0  0.45150  0.61962  0.25974  1.0000
  C   C5        1.0  0.56831  0.50103  0.79970  1.0000
  C   C6        1.0  0.43168  0.49896  0.20030  1.0000
  C   C7        1.0  0.48284  0.59738  0.75782  1.0000
  C   C8        1.0  0.51716  0.40261  0.24218  1.0000
  C   C9        1.0  0.37666  0.57244  0.65516  1.0000
  C   C10       1.0  0.62333  0.42756  0.34485  1.0000
  C   C11       1.0  0.35565  0.45115  0.59500  1.0000
  C   C12       1.0  0.64434  0.54885  0.40500  1.0000
  C   C13       1.0  0.44118  0.35553  0.63740  1.0000
  C   C14       1.0  0.55881  0.64447  0.36260  1.0000
  C   C15       1.0  0.51686  0.72774  0.82339  1.0000
  C   C16       1.0  0.48313  0.27226  0.17660  1.0000
  C   C17       1.0  0.83483  0.60596  0.12741  1.0000
  C   C18       1.0  0.16519  0.39404  0.87258  1.0000
  C   C19       1.0  0.92809  0.51401  0.18305  1.0000
  C   C20       1.0  0.07192  0.48599  0.81695  1.0000
  C   C21       1.0  0.91966  0.39088  0.12945  1.0000
  C   C22       1.0  0.08035  0.60912  0.87055  1.0000
  C   C23       1.0  0.00517  0.30268  0.18113  1.0000
  C   C24       1.0  0.99484  0.69733  0.81888  1.0000
  C   C25       1.0  0.09400  0.33653  0.28662  1.0000
  C   C26       1.0  0.90600  0.66347  0.71339  1.0000
  C   C27       1.0  0.09989  0.45976  0.34085  1.0000
  C   C28       1.0  0.90010  0.54024  0.65915  1.0000
  C   C29       1.0  0.02050  0.54935  0.28868  1.0000
  C   C30       1.0  0.97950  0.45065  0.71132  1.0000
  C   C31       1.0  0.00182  0.17239  0.12191  1.0000
  C   C32       1.0  0.99817  0.82762  0.87809  1.0000
  C   C33       1.0  0.18110  0.01886  0.67705  1.0000
  C   C34       1.0  0.81890  0.98114  0.32295  1.0000
  C   C35       1.0  0.04300  0.84626  0.53332  1.0000
  C   C36       1.0  0.95700  0.15373  0.46668  1.0000
  C   C37       1.0  0.39665  0.90763  0.57288  1.0000
  C   C38       1.0  0.60336  0.09237  0.42712  1.0000
  N   N1        1.0  0.25764  0.41510  0.48980  1.0000
  N   N2        1.0  0.74235  0.58490  0.51020  1.0000
  N   N3        1.0  0.19054  0.50136  0.44768  1.0000
  N   N4        1.0  0.80946  0.49863  0.55233  1.0000
  N   N5        1.0  0.20421  0.93025  0.59670  1.0000
  N   N6        1.0  0.79579  0.06975  0.40330  1.0000
  O   O1        1.0  0.68855  0.18417  0.71844  1.0000
  O   O2        1.0  0.31144  0.81583  0.28155  1.0000
  O   O3        1.0  0.72375  0.29676  0.88093  1.0000
  O   O4        1.0  0.27625  0.70324  0.11907  1.0000
  O   O5        1.0  0.61404  0.73928  0.91621  1.0000
  O   O6        1.0  0.38596  0.26072  0.08379  1.0000
  O   O7        1.0  0.44939  0.81321  0.77988  1.0000
  O   O8        1.0  0.55060  0.18679  0.22011  1.0000
  O   O9        1.0  0.88725  0.71606  0.14929  1.0000
  O   O10       1.0  0.11279  0.28395  0.85071  1.0000
  O   O11       1.0  0.68217  0.56374  0.04858  1.0000
  O   O12       1.0  0.31784  0.43627  0.95141  1.0000
  O   O13       1.0  0.91233  0.14586  0.02614  1.0000
  O   O14       1.0  0.08767  0.85415  0.97386  1.0000
  O   O15       1.0  0.08370  0.09517  0.17040  1.0000
  O   O16       1.0  0.91630  0.90484  0.82960  1.0000
  O   O17       1.0  0.59930  0.03246  0.86103  1.0000
  O   O18       1.0  0.40069  0.96754  0.13897  1.0000
  O   O19       1.0  0.24131  0.08124  0.93316  1.0000
  O   O20       1.0  0.75870  0.91877  0.06684  1.0000
  O   O21       1.0  0.01887  0.04312  0.70174  1.0000
  O   O22       1.0  0.98113  0.95688  0.29826  1.0000
