data_image0
_chemical_formula_structural       Gd2H36C38N6O22
_chemical_formula_sum              "Gd2 H36 C38 N6 O22"
_cell_length_a       7.21807
_cell_length_b       11.1112
_cell_length_c       13.463
_cell_angle_alpha    102.785
_cell_angle_beta     101.765
_cell_angle_gamma    90.8032

_space_group_name_H-M_alt    "P 1"
_space_group_IT_number       1

loop_
  _space_group_symop_operation_xyz
  'x, y, z'

loop_
  _atom_site_type_symbol
  _atom_site_label
  _atom_site_symmetry_multiplicity
  _atom_site_fract_x
  _atom_site_fract_y
  _atom_site_fract_z
  _atom_site_occupancy
  Gd  Gd1       1.0  0.11260  0.89116  0.66069  1.0000
  Gd  Gd2       1.0  0.88739  0.10884  0.33931  1.0000
  H   H1        1.0  0.83602  0.73152  0.18660  1.0000
  H   H2        1.0  0.16399  0.26846  0.81340  1.0000
  H   H3        1.0  0.95594  0.34936  0.17013  1.0000
  H   H4        1.0  0.04406  0.65063  0.82987  1.0000
  H   H5        1.0  0.13248  0.61789  0.46012  1.0000
  H   H6        1.0  0.86752  0.38211  0.53988  1.0000
  H   H7        1.0  0.39206  0.48738  0.61916  1.0000
  H   H8        1.0  0.60796  0.51263  0.38084  1.0000
  H   H9        1.0  0.70674  0.36441  0.88625  1.0000
  H   H10       1.0  0.29325  0.63559  0.11375  1.0000
  H   H11       1.0  0.56937  0.74240  0.91838  1.0000
  H   H12       1.0  0.43062  0.25760  0.08163  1.0000
  H   H13       1.0  0.79278  0.26054  0.75387  1.0000
  H   H14       1.0  0.20722  0.73946  0.24612  1.0000
  H   H15       1.0  0.71314  0.85043  0.52768  1.0000
  H   H16       1.0  0.28685  0.14956  0.47232  1.0000
  H   H17       1.0  0.76918  0.99072  0.54061  1.0000
  H   H18       1.0  0.23082  0.00928  0.45939  1.0000
  H   H19       1.0  0.40571  0.07012  0.63349  1.0000
  H   H20       1.0  0.59428  0.92987  0.36651  1.0000
  H   H21       1.0  0.52961  0.95436  0.62189  1.0000
  H   H22       1.0  0.47038  0.04564  0.37811  1.0000
  H   H23       1.0  0.72937  0.93449  0.78767  1.0000
  H   H24       1.0  0.27062  0.06552  0.21233  1.0000
  H   H25       1.0  0.55586  0.17743  0.91012  1.0000
  H   H26       1.0  0.44414  0.82258  0.08989  1.0000
  H   H27       1.0  0.61660  0.09544  0.01097  1.0000
  H   H28       1.0  0.38341  0.90457  0.98904  1.0000
  H   H29       1.0  0.52534  0.01232  0.87844  1.0000
  H   H30       1.0  0.47466  0.98769  0.12157  1.0000
  H   H31       1.0  0.90814  0.26825  0.97971  1.0000
  H   H32       1.0  0.09187  0.73175  0.02029  1.0000
  H   H33       1.0  0.08602  0.16086  0.95680  1.0000
  H   H34       1.0  0.91399  0.83914  0.04320  1.0000
  H   H35       1.0  0.96536  0.16274  0.06163  1.0000
  H   H36       1.0  0.03465  0.83727  0.93837  1.0000
  C   C1        1.0  0.98832  0.82054  0.38790  1.0000
  C   C2        1.0  0.01168  0.17946  0.61209  1.0000
  C   C3        1.0  0.97997  0.68806  0.32984  1.0000
  C   C4        1.0  0.02004  0.31194  0.67016  1.0000
  C   C5        1.0  0.89721  0.65945  0.22370  1.0000
  C   C6        1.0  0.10280  0.34054  0.77630  1.0000
  C   C7        1.0  0.89126  0.53755  0.16537  1.0000
  C   C8        1.0  0.10874  0.46244  0.83462  1.0000
  C   C9        1.0  0.96587  0.44469  0.21452  1.0000
  C   C10       1.0  0.03412  0.55531  0.78548  1.0000
  C   C11       1.0  0.05158  0.47354  0.32058  1.0000
  C   C12       1.0  0.94841  0.52645  0.67942  1.0000
  C   C13       1.0  0.06072  0.59569  0.37821  1.0000
  C   C14       1.0  0.93929  0.40431  0.62178  1.0000
  C   C15       1.0  0.13368  0.37395  0.37423  1.0000
  C   C16       1.0  0.86633  0.62605  0.62577  1.0000
  C   C17       1.0  0.37259  0.72826  0.72488  1.0000
  C   C18       1.0  0.62740  0.27174  0.27513  1.0000
  C   C19       1.0  0.47454  0.62604  0.76438  1.0000
  C   C20       1.0  0.52547  0.37396  0.23563  1.0000
  C   C21       1.0  0.46594  0.50698  0.70092  1.0000
  C   C22       1.0  0.53406  0.49302  0.29908  1.0000
  C   C23       1.0  0.55256  0.41244  0.74493  1.0000
  C   C24       1.0  0.44743  0.58757  0.25507  1.0000
  C   C25       1.0  0.64524  0.43682  0.84962  1.0000
  C   C26       1.0  0.35476  0.56317  0.15038  1.0000
  C   C27       1.0  0.65291  0.55618  0.91235  1.0000
  C   C28       1.0  0.34709  0.44381  0.08765  1.0000
  C   C29       1.0  0.56747  0.65014  0.86920  1.0000
  C   C30       1.0  0.43252  0.34986  0.13081  1.0000
  C   C31       1.0  0.53748  0.28248  0.68419  1.0000
  C   C32       1.0  0.46253  0.71752  0.31581  1.0000
  C   C33       1.0  0.85017  0.99747  0.83502  1.0000
  C   C34       1.0  0.14983  0.00254  0.16498  1.0000
  C   C35       1.0  0.61478  0.09219  0.92862  1.0000
  C   C36       1.0  0.38523  0.90782  0.07139  1.0000
  C   C37       1.0  0.95093  0.17402  0.98144  1.0000
  C   C38       1.0  0.04907  0.82599  0.01856  1.0000
  N   N1        1.0  0.80981  0.50176  0.05766  1.0000
  N   N2        1.0  0.19019  0.49823  0.94234  1.0000
  N   N3        1.0  0.73678  0.58908  0.01946  1.0000
  N   N4        1.0  0.26322  0.41091  0.98055  1.0000
  N   N5        1.0  0.80761  0.08340  0.91195  1.0000
  N   N6        1.0  0.19238  0.91660  0.08806  1.0000
  O   O1        1.0  0.07664  0.85036  0.48269  1.0000
  O   O2        1.0  0.92336  0.14963  0.51731  1.0000
  O   O3        1.0  0.91196  0.89761  0.33791  1.0000
  O   O4        1.0  0.08804  0.10239  0.66208  1.0000
  O   O5        1.0  0.07843  0.26109  0.32296  1.0000
  O   O6        1.0  0.92157  0.73891  0.67705  1.0000
  O   O7        1.0  0.24371  0.40330  0.46048  1.0000
  O   O8        1.0  0.75630  0.59671  0.53952  1.0000
  O   O9        1.0  0.34974  0.82665  0.79167  1.0000
  O   O10       1.0  0.65025  0.17335  0.20833  1.0000
  O   O11       1.0  0.30361  0.71481  0.62828  1.0000
  O   O12       1.0  0.69638  0.28519  0.37173  1.0000
  O   O13       1.0  0.40232  0.23400  0.61472  1.0000
  O   O14       1.0  0.59769  0.76601  0.38528  1.0000
  O   O15       1.0  0.67791  0.20982  0.71351  1.0000
  O   O16       1.0  0.32209  0.79018  0.28648  1.0000
  O   O17       1.0  0.75674  0.92768  0.58037  1.0000
  O   O18       1.0  0.24326  0.07232  0.41963  1.0000
  O   O19       1.0  0.40812  0.98313  0.63867  1.0000
  O   O20       1.0  0.59187  0.01686  0.36133  1.0000
  O   O21       1.0  0.01398  0.98660  0.81679  1.0000
  O   O22       1.0  0.98601  0.01340  0.18321  1.0000
