data_image0
_chemical_formula_structural       Ni4H72C32I8O16
_chemical_formula_sum              "Ni4 H72 C32 I8 O16"
_cell_length_a       6.88715
_cell_length_b       13.5464
_cell_length_c       14.4478
_cell_angle_alpha    90
_cell_angle_beta     90
_cell_angle_gamma    90

_space_group_name_H-M_alt    "P 1"
_space_group_IT_number       1

loop_
  _space_group_symop_operation_xyz
  'x, y, z'

loop_
  _atom_site_type_symbol
  _atom_site_label
  _atom_site_symmetry_multiplicity
  _atom_site_fract_x
  _atom_site_fract_y
  _atom_site_fract_z
  _atom_site_occupancy
  Ni  Ni1       1.0  1.00000  0.24987  0.25000  1.0000
  Ni  Ni2       1.0  0.50000  0.25013  0.75000  1.0000
  Ni  Ni3       1.0  0.00000  0.75013  0.75000  1.0000
  Ni  Ni4       1.0  0.50000  0.74987  0.25000  1.0000
  H   H1        1.0  0.03772  0.33953  0.01555  1.0000
  H   H2        1.0  0.46228  0.16047  0.51555  1.0000
  H   H3        1.0  0.53773  0.16047  0.98445  1.0000
  H   H4        1.0  0.96228  0.33953  0.48445  1.0000
  H   H5        1.0  0.96228  0.66047  0.98445  1.0000
  H   H6        1.0  0.53772  0.83953  0.48445  1.0000
  H   H7        1.0  0.46228  0.83953  0.01555  1.0000
  H   H8        1.0  0.03772  0.66047  0.51555  1.0000
  H   H9        1.0  0.25841  0.33327  0.07980  1.0000
  H   H10       1.0  0.24159  0.16673  0.57980  1.0000
  H   H11       1.0  0.75842  0.16672  0.92020  1.0000
  H   H12       1.0  0.74159  0.33328  0.42020  1.0000
  H   H13       1.0  0.74159  0.66672  0.92020  1.0000
  H   H14       1.0  0.75841  0.83328  0.42020  1.0000
  H   H15       1.0  0.24159  0.83328  0.07980  1.0000
  H   H16       1.0  0.25842  0.66672  0.57980  1.0000
  H   H17       1.0  0.16277  0.45176  0.04909  1.0000
  H   H18       1.0  0.33722  0.04823  0.54910  1.0000
  H   H19       1.0  0.66278  0.04823  0.95090  1.0000
  H   H20       1.0  0.83723  0.45177  0.45090  1.0000
  H   H21       1.0  0.83723  0.54823  0.95091  1.0000
  H   H22       1.0  0.66277  0.95177  0.45090  1.0000
  H   H23       1.0  0.33722  0.95177  0.04909  1.0000
  H   H24       1.0  0.16277  0.54823  0.54910  1.0000
  H   H25       1.0  0.80527  0.45884  0.21545  1.0000
  H   H26       1.0  0.69472  0.04116  0.71545  1.0000
  H   H27       1.0  0.30527  0.04116  0.78455  1.0000
  H   H28       1.0  0.19472  0.45884  0.28455  1.0000
  H   H29       1.0  0.19473  0.54116  0.78455  1.0000
  H   H30       1.0  0.30528  0.95884  0.28455  1.0000
  H   H31       1.0  0.69472  0.95884  0.21545  1.0000
  H   H32       1.0  0.80528  0.54116  0.71545  1.0000
  H   H33       1.0  0.82394  0.47317  0.09266  1.0000
  H   H34       1.0  0.67605  0.02682  0.59266  1.0000
  H   H35       1.0  0.32395  0.02683  0.90734  1.0000
  H   H36       1.0  0.17605  0.47318  0.40733  1.0000
  H   H37       1.0  0.17606  0.52683  0.90734  1.0000
  H   H38       1.0  0.32395  0.97317  0.40733  1.0000
  H   H39       1.0  0.67605  0.97318  0.09266  1.0000
  H   H40       1.0  0.82395  0.52682  0.59267  1.0000
  H   H41       1.0  0.71120  0.29773  0.07241  1.0000
  H   H42       1.0  0.78880  0.20227  0.57241  1.0000
  H   H43       1.0  0.21120  0.20227  0.92759  1.0000
  H   H44       1.0  0.28880  0.29773  0.42759  1.0000
  H   H45       1.0  0.28880  0.70227  0.92758  1.0000
  H   H46       1.0  0.21120  0.79773  0.42759  1.0000
  H   H47       1.0  0.78880  0.79773  0.07241  1.0000
  H   H48       1.0  0.71120  0.70227  0.57241  1.0000
  H   H49       1.0  0.53820  0.37143  0.13476  1.0000
  H   H50       1.0  0.96179  0.12857  0.63476  1.0000
  H   H51       1.0  0.03821  0.12857  0.86524  1.0000
  H   H52       1.0  0.46179  0.37143  0.36524  1.0000
  H   H53       1.0  0.46180  0.62857  0.86524  1.0000
  H   H54       1.0  0.03821  0.87143  0.36524  1.0000
  H   H55       1.0  0.96179  0.87143  0.13476  1.0000
  H   H56       1.0  0.53821  0.62857  0.63476  1.0000
  H   H57       1.0  0.65693  0.12234  0.21130  1.0000
  H   H58       1.0  0.84307  0.37766  0.71129  1.0000
  H   H59       1.0  0.15693  0.37767  0.78871  1.0000
  H   H60       1.0  0.34307  0.12233  0.28871  1.0000
  H   H61       1.0  0.34307  0.87767  0.78870  1.0000
  H   H62       1.0  0.15693  0.62234  0.28871  1.0000
  H   H63       1.0  0.84307  0.62234  0.21129  1.0000
  H   H64       1.0  0.65693  0.87767  0.71129  1.0000
  H   H65       1.0  0.48886  0.19294  0.14423  1.0000
  H   H66       1.0  0.01115  0.30705  0.64423  1.0000
  H   H67       1.0  0.98885  0.30705  0.85577  1.0000
  H   H68       1.0  0.51114  0.19295  0.35577  1.0000
  H   H69       1.0  0.51115  0.80706  0.85577  1.0000
  H   H70       1.0  0.98885  0.69295  0.35577  1.0000
  H   H71       1.0  0.01115  0.69295  0.14423  1.0000
  H   H72       1.0  0.48886  0.80705  0.64423  1.0000
  C   C1        1.0  0.12537  0.37582  0.06933  1.0000
  C   C2        1.0  0.37463  0.12418  0.56933  1.0000
  C   C3        1.0  0.62537  0.12418  0.93067  1.0000
  C   C4        1.0  0.87463  0.37582  0.43067  1.0000
  C   C5        1.0  0.87463  0.62418  0.93067  1.0000
  C   C6        1.0  0.62537  0.87582  0.43067  1.0000
  C   C7        1.0  0.37463  0.87582  0.06933  1.0000
  C   C8        1.0  0.12537  0.62418  0.56933  1.0000
  C   C9        1.0  0.83213  0.42011  0.14997  1.0000
  C   C10       1.0  0.66787  0.07989  0.64998  1.0000
  C   C11       1.0  0.33213  0.07989  0.85003  1.0000
  C   C12       1.0  0.16787  0.42011  0.35003  1.0000
  C   C13       1.0  0.16787  0.57990  0.85003  1.0000
  C   C14       1.0  0.33213  0.92011  0.35003  1.0000
  C   C15       1.0  0.66787  0.92011  0.14997  1.0000
  C   C16       1.0  0.83213  0.57989  0.64998  1.0000
  C   C17       1.0  0.68479  0.33935  0.13671  1.0000
  C   C18       1.0  0.81521  0.16065  0.63671  1.0000
  C   C19       1.0  0.18480  0.16065  0.86329  1.0000
  C   C20       1.0  0.31520  0.33935  0.36329  1.0000
  C   C21       1.0  0.31520  0.66065  0.86329  1.0000
  C   C22       1.0  0.18479  0.83935  0.36329  1.0000
  C   C23       1.0  0.81520  0.83935  0.13671  1.0000
  C   C24       1.0  0.68480  0.66065  0.63671  1.0000
  C   C25       1.0  0.56934  0.19007  0.20983  1.0000
  C   C26       1.0  0.93066  0.30993  0.70983  1.0000
  C   C27       1.0  0.06934  0.30993  0.79017  1.0000
  C   C28       1.0  0.43066  0.19007  0.29017  1.0000
  C   C29       1.0  0.43066  0.80993  0.79016  1.0000
  C   C30       1.0  0.06933  0.69007  0.29017  1.0000
  C   C31       1.0  0.93066  0.69007  0.20983  1.0000
  C   C32       1.0  0.56934  0.80993  0.70983  1.0000
  I   I1        1.0  0.05949  0.11745  0.11778  1.0000
  I   I2        1.0  0.44050  0.38255  0.61778  1.0000
  I   I3        1.0  0.55950  0.38255  0.88222  1.0000
  I   I4        1.0  0.94051  0.11745  0.38222  1.0000
  I   I5        1.0  0.94050  0.88256  0.88222  1.0000
  I   I6        1.0  0.55949  0.61745  0.38222  1.0000
  I   I7        1.0  0.44050  0.61745  0.11778  1.0000
  I   I8        1.0  0.05949  0.88255  0.61778  1.0000
  O   O1        1.0  0.02485  0.37829  0.15644  1.0000
  O   O2        1.0  0.47515  0.12171  0.65644  1.0000
  O   O3        1.0  0.52485  0.12171  0.84356  1.0000
  O   O4        1.0  0.97514  0.37830  0.34356  1.0000
  O   O5        1.0  0.97515  0.62171  0.84356  1.0000
  O   O6        1.0  0.52485  0.87829  0.34356  1.0000
  O   O7        1.0  0.47514  0.87829  0.15644  1.0000
  O   O8        1.0  0.02486  0.62171  0.65644  1.0000
  O   O9        1.0  0.70087  0.27355  0.21549  1.0000
  O   O10       1.0  0.79913  0.22645  0.71549  1.0000
  O   O11       1.0  0.20087  0.22645  0.78452  1.0000
  O   O12       1.0  0.29913  0.27355  0.28451  1.0000
  O   O13       1.0  0.29914  0.72646  0.78451  1.0000
  O   O14       1.0  0.20087  0.77355  0.28451  1.0000
  O   O15       1.0  0.79913  0.77355  0.21548  1.0000
  O   O16       1.0  0.70087  0.72645  0.71549  1.0000
