data_image0
_chemical_formula_structural       Zn2NiH14C12O16
_chemical_formula_sum              "Zn2 Ni1 H14 C12 O16"
_cell_length_a       6.65155
_cell_length_b       6.92075
_cell_length_c       9.68563
_cell_angle_alpha    85.2356
_cell_angle_beta     77.8029
_cell_angle_gamma    81.134

_space_group_name_H-M_alt    "P 1"
_space_group_IT_number       1

loop_
  _space_group_symop_operation_xyz
  'x, y, z'

loop_
  _atom_site_type_symbol
  _atom_site_label
  _atom_site_symmetry_multiplicity
  _atom_site_fract_x
  _atom_site_fract_y
  _atom_site_fract_z
  _atom_site_occupancy
  Zn  Zn1       1.0  0.94438  0.77177  0.83373  1.0000
  Zn  Zn2       1.0  0.05562  0.22823  0.16627  1.0000
  Ni  Ni1       1.0  0.50000  1.00000  0.50000  1.0000
  H   H1        1.0  0.70323  0.77957  0.30888  1.0000
  H   H2        1.0  0.29677  0.22043  0.69111  1.0000
  H   H3        1.0  0.21189  0.95449  0.89291  1.0000
  H   H4        1.0  0.78811  0.04551  0.10709  1.0000
  H   H5        1.0  0.15563  0.81228  0.02487  1.0000
  H   H6        1.0  0.84437  0.18772  0.97513  1.0000
  H   H7        1.0  0.12017  0.62789  0.38017  1.0000
  H   H8        1.0  0.87983  0.37211  0.61983  1.0000
  H   H9        1.0  0.31850  0.47941  0.44757  1.0000
  H   H10       1.0  0.68151  0.52059  0.55243  1.0000
  H   H11       1.0  0.56421  0.45425  0.22849  1.0000
  H   H12       1.0  0.43579  0.54575  0.77150  1.0000
  H   H13       1.0  0.39311  0.59006  0.13139  1.0000
  H   H14       1.0  0.60689  0.40995  0.86861  1.0000
  C   C1        1.0  0.18265  0.72497  0.56808  1.0000
  C   C2        1.0  0.81735  0.27502  0.43192  1.0000
  C   C3        1.0  0.25697  0.63321  0.42606  1.0000
  C   C4        1.0  0.74303  0.36679  0.57394  1.0000
  C   C5        1.0  0.42073  0.73061  0.31973  1.0000
  C   C6        1.0  0.57927  0.26940  0.68027  1.0000
  C   C7        1.0  0.32468  0.93811  0.27437  1.0000
  C   C8        1.0  0.67532  0.06189  0.72563  1.0000
  C   C9        1.0  0.51120  0.60478  0.19194  1.0000
  C   C10       1.0  0.48880  0.39523  0.80806  1.0000
  C   C11       1.0  0.69369  0.68308  0.09381  1.0000
  C   C12       1.0  0.30631  0.31692  0.90619  1.0000
  O   O1        1.0  0.05745  0.63162  0.65970  1.0000
  O   O2        1.0  0.94255  0.36837  0.34030  1.0000
  O   O3        1.0  0.23746  0.88193  0.59737  1.0000
  O   O4        1.0  0.76254  0.11806  0.40263  1.0000
  O   O5        1.0  0.20522  0.95224  0.18473  1.0000
  O   O6        1.0  0.79478  0.04776  0.81527  1.0000
  O   O7        1.0  0.36156  0.08423  0.32981  1.0000
  O   O8        1.0  0.63843  0.91576  0.67018  1.0000
  O   O9        1.0  0.78902  0.80206  0.14065  1.0000
  O   O10       1.0  0.21099  0.19794  0.85935  1.0000
  O   O11       1.0  0.74657  0.62419  0.96802  1.0000
  O   O12       1.0  0.25343  0.37582  0.03198  1.0000
  O   O13       1.0  0.58729  0.75046  0.39093  1.0000
  O   O14       1.0  0.41271  0.24954  0.60907  1.0000
  O   O15       1.0  0.18418  0.81759  0.92082  1.0000
  O   O16       1.0  0.81582  0.18242  0.07918  1.0000
