data_image0
_chemical_formula_structural       Zn4Co2H28C24O32
_chemical_formula_sum              "Zn4 Co2 H28 C24 O32"
_cell_length_a       6.10029
_cell_length_b       9.40211
_cell_length_c       15.1118
_cell_angle_alpha    89.9997
_cell_angle_beta     89.9992
_cell_angle_gamma    102.978

_space_group_name_H-M_alt    "P 1"
_space_group_IT_number       1

loop_
  _space_group_symop_operation_xyz
  'x, y, z'

loop_
  _atom_site_type_symbol
  _atom_site_label
  _atom_site_symmetry_multiplicity
  _atom_site_fract_x
  _atom_site_fract_y
  _atom_site_fract_z
  _atom_site_occupancy
  Zn  Zn1       1.0  0.59429  0.84890  0.09168  1.0000
  Zn  Zn2       1.0  0.40570  0.65109  0.59168  1.0000
  Zn  Zn3       1.0  0.40571  0.15110  0.90832  1.0000
  Zn  Zn4       1.0  0.59430  0.34891  0.40832  1.0000
  Co  Co1       1.0  0.00000  0.50000  1.00000  1.0000
  Co  Co2       1.0  1.00000  1.00000  0.50000  1.0000
  H   H1        1.0  0.16608  0.83208  0.06759  1.0000
  H   H2        1.0  0.83392  0.66792  0.56759  1.0000
  H   H3        1.0  0.83392  0.16792  0.93241  1.0000
  H   H4        1.0  0.16608  0.33208  0.43241  1.0000
  H   H5        1.0  0.28566  0.00106  0.07795  1.0000
  H   H6        1.0  0.71434  0.49894  0.57795  1.0000
  H   H7        1.0  0.71434  0.99894  0.92205  1.0000
  H   H8        1.0  0.28565  0.50106  0.42205  1.0000
  H   H9        1.0  0.31564  0.43905  0.23912  1.0000
  H   H10       1.0  0.68432  0.06094  0.73912  1.0000
  H   H11       1.0  0.68435  0.56095  0.76088  1.0000
  H   H12       1.0  0.31568  0.93906  0.26088  1.0000
  H   H13       1.0  0.48050  0.36790  0.16342  1.0000
  H   H14       1.0  0.51949  0.13209  0.66341  1.0000
  H   H15       1.0  0.51950  0.63210  0.83658  1.0000
  H   H16       1.0  0.48051  0.86791  0.33659  1.0000
  H   H17       1.0  0.20720  0.15398  0.22139  1.0000
  H   H18       1.0  0.79279  0.34601  0.72138  1.0000
  H   H19       1.0  0.79280  0.84602  0.77861  1.0000
  H   H20       1.0  0.20722  0.65399  0.27862  1.0000
  H   H21       1.0  0.99698  0.23676  0.26251  1.0000
  H   H22       1.0  0.00300  0.26323  0.76251  1.0000
  H   H23       1.0  0.00302  0.76324  0.73749  1.0000
  H   H24       1.0  0.99701  0.73677  0.23749  1.0000
  H   H25       1.0  0.89865  0.42774  0.17906  1.0000
  H   H26       1.0  0.10134  0.07226  0.67906  1.0000
  H   H27       1.0  0.10134  0.57226  0.82093  1.0000
  H   H28       1.0  0.89866  0.92774  0.32094  1.0000
  C   C1        1.0  0.39842  0.56536  0.12163  1.0000
  C   C2        1.0  0.60157  0.93464  0.62163  1.0000
  C   C3        1.0  0.60158  0.43465  0.87837  1.0000
  C   C4        1.0  0.39843  0.06536  0.37837  1.0000
  C   C5        1.0  0.33628  0.41975  0.16826  1.0000
  C   C6        1.0  0.66370  0.08024  0.66825  1.0000
  C   C7        1.0  0.66372  0.58025  0.83174  1.0000
  C   C8        1.0  0.33629  0.91976  0.33175  1.0000
  C   C9        1.0  0.12241  0.31418  0.13362  1.0000
  C   C10       1.0  0.87758  0.18581  0.63362  1.0000
  C   C11       1.0  0.87759  0.68582  0.86638  1.0000
  C   C12       1.0  0.12242  0.81419  0.36638  1.0000
  C   C13       1.0  0.17166  0.25565  0.04243  1.0000
  C   C14       1.0  0.82835  0.24436  0.54243  1.0000
  C   C15       1.0  0.82834  0.74435  0.95757  1.0000
  C   C16       1.0  0.17164  0.75565  0.45758  1.0000
  C   C17       1.0  0.05575  0.19158  0.20211  1.0000
  C   C18       1.0  0.94424  0.30841  0.70210  1.0000
  C   C19       1.0  0.94425  0.80842  0.79789  1.0000
  C   C20       1.0  0.05577  0.69159  0.29790  1.0000
  C   C21       1.0  0.87888  0.05936  0.17508  1.0000
  C   C22       1.0  0.12112  0.44063  0.67508  1.0000
  C   C23       1.0  0.12112  0.94064  0.82492  1.0000
  C   C24       1.0  0.87889  0.55936  0.32492  1.0000
  O   O1        1.0  0.53807  0.66698  0.16209  1.0000
  O   O2        1.0  0.46192  0.83301  0.66209  1.0000
  O   O3        1.0  0.46193  0.33302  0.83791  1.0000
  O   O4        1.0  0.53808  0.16699  0.33792  1.0000
  O   O5        1.0  0.31734  0.58649  0.04670  1.0000
  O   O6        1.0  0.68265  0.91350  0.54670  1.0000
  O   O7        1.0  0.68266  0.41351  0.95330  1.0000
  O   O8        1.0  0.31734  0.08650  0.45330  1.0000
  O   O9        1.0  0.08614  0.29919  0.97368  1.0000
  O   O10       1.0  0.91388  0.20081  0.47368  1.0000
  O   O11       1.0  0.91386  0.70081  0.02632  1.0000
  O   O12       1.0  0.08611  0.79918  0.52632  1.0000
  O   O13       1.0  0.30959  0.17168  0.03861  1.0000
  O   O14       1.0  0.69042  0.32833  0.53861  1.0000
  O   O15       1.0  0.69041  0.82832  0.96139  1.0000
  O   O16       1.0  0.30958  0.67167  0.46139  1.0000
  O   O17       1.0  0.79824  0.05131  0.09648  1.0000
  O   O18       1.0  0.20176  0.44868  0.59648  1.0000
  O   O19       1.0  0.20175  0.94870  0.90352  1.0000
  O   O20       1.0  0.79826  0.55131  0.40353  1.0000
  O   O21       1.0  0.81553  0.95548  0.22937  1.0000
  O   O22       1.0  0.18447  0.54451  0.72937  1.0000
  O   O23       1.0  0.18448  0.04452  0.77062  1.0000
  O   O24       1.0  0.81554  0.45549  0.27063  1.0000
  O   O25       1.0  0.94504  0.38966  0.11972  1.0000
  O   O26       1.0  0.05495  0.11033  0.61972  1.0000
  O   O27       1.0  0.05496  0.61034  0.88028  1.0000
  O   O28       1.0  0.94505  0.88967  0.38028  1.0000
  O   O29       1.0  0.28672  0.90098  0.09943  1.0000
  O   O30       1.0  0.71328  0.59901  0.59943  1.0000
  O   O31       1.0  0.71329  0.09902  0.90057  1.0000
  O   O32       1.0  0.28672  0.40099  0.40057  1.0000
