data_image0
_chemical_formula_structural       La4H34C42N6O32
_chemical_formula_sum              "La4 H34 C42 N6 O32"
_cell_length_a       11.259
_cell_length_b       11.3609
_cell_length_c       12.69
_cell_angle_alpha    103.057
_cell_angle_beta     106.947
_cell_angle_gamma    114.451

_space_group_name_H-M_alt    "P 1"
_space_group_IT_number       1

loop_
  _space_group_symop_operation_xyz
  'x, y, z'

loop_
  _atom_site_type_symbol
  _atom_site_label
  _atom_site_symmetry_multiplicity
  _atom_site_fract_x
  _atom_site_fract_y
  _atom_site_fract_z
  _atom_site_occupancy
  La  La1       1.0  0.18566  0.13472  0.18073  1.0000
  La  La2       1.0  0.81433  0.86528  0.81927  1.0000
  La  La3       1.0  0.16026  0.43207  0.52019  1.0000
  La  La4       1.0  0.83973  0.56793  0.47981  1.0000
  H   H1        1.0  0.71793  0.25241  0.14793  1.0000
  H   H2        1.0  0.28206  0.74759  0.85207  1.0000
  H   H3        1.0  0.63322  0.19854  0.92771  1.0000
  H   H4        1.0  0.36678  0.80146  0.07229  1.0000
  H   H5        1.0  0.36745  0.10200  0.80282  1.0000
  H   H6        1.0  0.63255  0.89800  0.19718  1.0000
  H   H7        1.0  0.00393  0.47867  0.91015  1.0000
  H   H8        1.0  0.99607  0.52133  0.08985  1.0000
  H   H9        1.0  0.18015  0.43244  0.04147  1.0000
  H   H10       1.0  0.81985  0.56755  0.95853  1.0000
  H   H11       1.0  0.35792  0.39984  0.97263  1.0000
  H   H12       1.0  0.64209  0.60017  0.02737  1.0000
  H   H13       1.0  0.21129  0.03143  0.60009  1.0000
  H   H14       1.0  0.78872  0.96857  0.39991  1.0000
  H   H15       1.0  0.28334  0.84661  0.55880  1.0000
  H   H16       1.0  0.71666  0.15339  0.44120  1.0000
  H   H17       1.0  0.28363  0.75881  0.35919  1.0000
  H   H18       1.0  0.71637  0.24119  0.64081  1.0000
  H   H19       1.0  0.88932  0.14952  0.29878  1.0000
  H   H20       1.0  0.11069  0.85048  0.70122  1.0000
  H   H21       1.0  0.95376  0.19676  0.03365  1.0000
  H   H22       1.0  0.04623  0.80324  0.96634  1.0000
  H   H23       1.0  0.32100  0.45890  0.21819  1.0000
  H   H24       1.0  0.67899  0.54110  0.78182  1.0000
  H   H25       1.0  0.45450  0.64900  0.53684  1.0000
  H   H26       1.0  0.54550  0.35100  0.46316  1.0000
  H   H27       1.0  0.45939  0.45961  0.29402  1.0000
  H   H28       1.0  0.54062  0.54039  0.70598  1.0000
  H   H29       1.0  0.04586  0.32707  0.16630  1.0000
  H   H30       1.0  0.95414  0.67293  0.83370  1.0000
  H   H31       1.0  0.82219  0.24677  0.33534  1.0000
  H   H32       1.0  0.17782  0.75323  0.66466  1.0000
  H   H33       1.0  0.37496  0.51544  0.40480  1.0000
  H   H34       1.0  0.62504  0.48456  0.59520  1.0000
  C   C1        1.0  0.50851  0.20177  0.14155  1.0000
  C   C2        1.0  0.49148  0.79823  0.85845  1.0000
  C   C3        1.0  0.60561  0.21448  0.09082  1.0000
  C   C4        1.0  0.39438  0.78552  0.90918  1.0000
  C   C5        1.0  0.55724  0.18153  0.96796  1.0000
  C   C6        1.0  0.44275  0.81847  0.03204  1.0000
  C   C7        1.0  0.41129  0.12993  0.89920  1.0000
  C   C8        1.0  0.58871  0.87007  0.10081  1.0000
  C   C9        1.0  0.32035  0.11700  0.95633  1.0000
  C   C10       1.0  0.67964  0.88299  0.04367  1.0000
  C   C11       1.0  0.55407  0.24160  0.27412  1.0000
  C   C12       1.0  0.44592  0.75840  0.72588  1.0000
  C   C13       1.0  0.16009  0.05293  0.88737  1.0000
  C   C14       1.0  0.83991  0.94707  0.11263  1.0000
  C   C15       1.0  0.07844  0.45822  0.77316  1.0000
  C   C16       1.0  0.92156  0.54178  0.22684  1.0000
  C   C17       1.0  0.08036  0.46040  0.88391  1.0000
  C   C18       1.0  0.91965  0.53960  0.11609  1.0000
  C   C19       1.0  0.17881  0.43498  0.95599  1.0000
  C   C20       1.0  0.82119  0.56501  0.04401  1.0000
  C   C21       1.0  0.27542  0.41454  0.91761  1.0000
  C   C22       1.0  0.72459  0.58546  0.08239  1.0000
  C   C23       1.0  0.27066  0.42111  0.80798  1.0000
  C   C24       1.0  0.72935  0.57889  0.19203  1.0000
  C   C25       1.0  0.97634  0.48256  0.68806  1.0000
  C   C26       1.0  0.02366  0.51743  0.31194  1.0000
  C   C27       1.0  0.38505  0.42334  0.76843  1.0000
  C   C28       1.0  0.61496  0.57667  0.23157  1.0000
  C   C29       1.0  0.19435  0.04878  0.43184  1.0000
  C   C30       1.0  0.80565  0.95122  0.56816  1.0000
  C   C31       1.0  0.22042  0.99337  0.51769  1.0000
  C   C32       1.0  0.77958  0.00663  0.48231  1.0000
  C   C33       1.0  0.25768  0.89070  0.49371  1.0000
  C   C34       1.0  0.74232  0.10930  0.50629  1.0000
  C   C35       1.0  0.25838  0.84102  0.38297  1.0000
  C   C36       1.0  0.74162  0.15898  0.61703  1.0000
  C   C37       1.0  0.22237  0.89653  0.29939  1.0000
  C   C38       1.0  0.77763  0.10348  0.70061  1.0000
  C   C39       1.0  0.16712  0.16831  0.45229  1.0000
  C   C40       1.0  0.83288  0.83169  0.54771  1.0000
  C   C41       1.0  0.20689  0.84041  0.17320  1.0000
  C   C42       1.0  0.79311  0.15959  0.82680  1.0000
  N   N1        1.0  0.36899  0.15638  0.07570  1.0000
  N   N2        1.0  0.63100  0.84361  0.92430  1.0000
  N   N3        1.0  0.17168  0.43913  0.73611  1.0000
  N   N4        1.0  0.82832  0.56087  0.26389  1.0000
  N   N5        1.0  0.19597  0.00165  0.32568  1.0000
  N   N6        1.0  0.80403  0.99835  0.67432  1.0000
  O   O1        1.0  0.68859  0.29843  0.34219  1.0000
  O   O2        1.0  0.31141  0.70157  0.65781  1.0000
  O   O3        1.0  0.45568  0.21862  0.31041  1.0000
  O   O4        1.0  0.54431  0.78137  0.68959  1.0000
  O   O5        1.0  0.10118  0.98911  0.77519  1.0000
  O   O6        1.0  0.89881  0.01088  0.22481  1.0000
  O   O7        1.0  0.08981  0.06284  0.94961  1.0000
  O   O8        1.0  0.91018  0.93716  0.05039  1.0000
  O   O9        1.0  0.96909  0.45313  0.58112  1.0000
  O   O10       1.0  0.03091  0.54687  0.41888  1.0000
  O   O11       1.0  0.90542  0.53142  0.72068  1.0000
  O   O12       1.0  0.09458  0.46858  0.27932  1.0000
  O   O13       1.0  0.47612  0.39771  0.82314  1.0000
  O   O14       1.0  0.52390  0.60231  0.17687  1.0000
  O   O15       1.0  0.38407  0.46420  0.67976  1.0000
  O   O16       1.0  0.61593  0.53581  0.32024  1.0000
  O   O17       1.0  0.12274  0.19568  0.52957  1.0000
  O   O18       1.0  0.87727  0.80432  0.47044  1.0000
  O   O19       1.0  0.19487  0.24241  0.38924  1.0000
  O   O20       1.0  0.80513  0.75759  0.61076  1.0000
  O   O21       1.0  0.17706  0.90632  0.10769  1.0000
  O   O22       1.0  0.82293  0.09368  0.89231  1.0000
  O   O23       1.0  0.21991  0.73656  0.13957  1.0000
  O   O24       1.0  0.78008  0.26344  0.86043  1.0000
  O   O25       1.0  0.36680  0.55914  0.47733  1.0000
  O   O26       1.0  0.63320  0.44086  0.52267  1.0000
  O   O27       1.0  0.34853  0.41125  0.26714  1.0000
  O   O28       1.0  0.65147  0.58875  0.73286  1.0000
  O   O29       1.0  0.04140  0.24513  0.11239  1.0000
  O   O30       1.0  0.95860  0.75488  0.88760  1.0000
  O   O31       1.0  0.91099  0.24262  0.35061  1.0000
  O   O32       1.0  0.08901  0.75739  0.64938  1.0000
