data_image0
_chemical_formula_structural       Zn2H24C48N4O8
_chemical_formula_sum              "Zn2 H24 C48 N4 O8"
_cell_length_a       9.77192
_cell_length_b       11.5323
_cell_length_c       11.1617
_cell_angle_alpha    110.219
_cell_angle_beta     114.241
_cell_angle_gamma    93.5185

_space_group_name_H-M_alt    "P 1"
_space_group_IT_number       1

loop_
  _space_group_symop_operation_xyz
  'x, y, z'

loop_
  _atom_site_type_symbol
  _atom_site_label
  _atom_site_symmetry_multiplicity
  _atom_site_fract_x
  _atom_site_fract_y
  _atom_site_fract_z
  _atom_site_occupancy
  Zn  Zn1       1.0  0.67673  0.01850  0.70560  1.0000
  Zn  Zn2       1.0  0.32328  0.98151  0.29440  1.0000
  H   H1        1.0  0.06990  0.12386  0.58396  1.0000
  H   H2        1.0  0.93011  0.87613  0.41603  1.0000
  H   H3        1.0  0.23127  0.28684  0.57566  1.0000
  H   H4        1.0  0.76873  0.71316  0.42433  1.0000
  H   H5        1.0  0.36738  0.43167  0.60298  1.0000
  H   H6        1.0  0.63263  0.56835  0.39705  1.0000
  H   H7        1.0  0.52553  0.59684  0.59286  1.0000
  H   H8        1.0  0.47448  0.40317  0.40716  1.0000
  H   H9        1.0  0.56416  0.24023  0.89543  1.0000
  H   H10       1.0  0.43583  0.75977  0.10456  1.0000
  H   H11       1.0  0.54046  0.28295  0.12249  1.0000
  H   H12       1.0  0.45952  0.71704  0.87750  1.0000
  H   H13       1.0  0.63665  0.14607  0.25721  1.0000
  H   H14       1.0  0.36334  0.85391  0.74278  1.0000
  H   H15       1.0  0.77597  0.97262  0.28376  1.0000
  H   H16       1.0  0.22402  0.02736  0.71623  1.0000
  H   H17       1.0  0.89598  0.80531  0.18559  1.0000
  H   H18       1.0  0.10402  0.19469  0.81440  1.0000
  H   H19       1.0  0.98494  0.69809  0.00079  1.0000
  H   H20       1.0  0.01506  0.30190  0.99921  1.0000
  H   H21       1.0  0.99654  0.67901  0.77366  1.0000
  H   H22       1.0  0.00346  0.32099  0.22634  1.0000
  H   H23       1.0  0.88100  0.82407  0.65624  1.0000
  H   H24       1.0  0.11901  0.17593  0.34376  1.0000
  C   C1        1.0  0.80932  0.12117  0.59662  1.0000
  C   C2        1.0  0.19069  0.87883  0.40338  1.0000
  C   C3        1.0  0.88080  0.21398  0.56031  1.0000
  C   C4        1.0  0.11921  0.78603  0.43969  1.0000
  C   C5        1.0  0.02595  0.20545  0.57074  1.0000
  C   C6        1.0  0.97406  0.79455  0.42926  1.0000
  C   C7        1.0  0.11708  0.29840  0.56355  1.0000
  C   C8        1.0  0.88293  0.70160  0.43645  1.0000
  C   C9        1.0  0.06209  0.40098  0.53855  1.0000
  C   C10       1.0  0.93792  0.59903  0.46147  1.0000
  C   C11       1.0  0.15806  0.49916  0.53187  1.0000
  C   C12       1.0  0.84195  0.50086  0.46815  1.0000
  C   C13       1.0  0.31323  0.50199  0.56845  1.0000
  C   C14       1.0  0.68679  0.49803  0.43157  1.0000
  C   C15       1.0  0.90630  0.40512  0.51139  1.0000
  C   C16       1.0  0.09370  0.59489  0.48862  1.0000
  C   C17       1.0  0.81361  0.31113  0.52323  1.0000
  C   C18       1.0  0.18640  0.68887  0.47677  1.0000
  C   C19       1.0  0.65578  0.31398  0.48647  1.0000
  C   C20       1.0  0.34422  0.68602  0.51352  1.0000
  C   C21       1.0  0.40356  0.59450  0.55987  1.0000
  C   C22       1.0  0.59646  0.40551  0.44015  1.0000
  C   C23       1.0  0.53595  0.21381  0.47162  1.0000
  C   C24       1.0  0.46406  0.78619  0.52837  1.0000
  C   C25       1.0  0.60925  0.18567  0.95983  1.0000
  C   C26       1.0  0.39074  0.81432  0.04016  1.0000
  C   C27       1.0  0.59624  0.20888  0.08659  1.0000
  C   C28       1.0  0.40374  0.79111  0.91340  1.0000
  C   C29       1.0  0.65097  0.13463  0.16221  1.0000
  C   C30       1.0  0.34902  0.86535  0.83778  1.0000
  C   C31       1.0  0.72279  0.03929  0.11306  1.0000
  C   C32       1.0  0.27720  0.96070  0.88693  1.0000
  C   C33       1.0  0.78348  0.95852  0.18486  1.0000
  C   C34       1.0  0.21651  0.04147  0.81513  1.0000
  C   C35       1.0  0.84998  0.86666  0.13100  1.0000
  C   C36       1.0  0.15001  0.13334  0.86900  1.0000
  C   C37       1.0  0.86265  0.84887  0.00285  1.0000
  C   C38       1.0  0.13735  0.15112  0.99715  1.0000
  C   C39       1.0  0.93415  0.75770  0.94497  1.0000
  C   C40       1.0  0.06585  0.24230  0.05503  1.0000
  C   C41       1.0  0.94172  0.74773  0.82082  1.0000
  C   C42       1.0  0.05828  0.25227  0.17918  1.0000
  C   C43       1.0  0.87785  0.82844  0.75405  1.0000
  C   C44       1.0  0.12216  0.17157  0.24595  1.0000
  C   C45       1.0  0.80274  0.92696  0.92923  1.0000
  C   C46       1.0  0.19726  0.07304  0.07077  1.0000
  C   C47       1.0  0.73143  0.02323  0.98470  1.0000
  C   C48       1.0  0.26856  0.97676  0.01529  1.0000
  N   N1        1.0  0.67397  0.09489  0.90992  1.0000
  N   N2        1.0  0.32602  0.90510  0.09008  1.0000
  N   N3        1.0  0.81077  0.91517  0.80710  1.0000
  N   N4        1.0  0.18923  0.08483  0.19290  1.0000
  O   O1        1.0  0.75506  0.16907  0.68741  1.0000
  O   O2        1.0  0.24494  0.83092  0.31258  1.0000
  O   O3        1.0  0.81386  0.00655  0.55142  1.0000
  O   O4        1.0  0.18615  0.99345  0.44858  1.0000
  O   O5        1.0  0.44543  0.24478  0.52249  1.0000
  O   O6        1.0  0.55456  0.75521  0.47750  1.0000
  O   O7        1.0  0.52690  0.09814  0.38830  1.0000
  O   O8        1.0  0.47311  0.90186  0.61170  1.0000
