data_image0
_chemical_formula_structural       H24Pb2C26Br4N8O2
_chemical_formula_sum              "H24 Pb2 C26 Br4 N8 O2"
_cell_length_a       8.15592
_cell_length_b       8.68671
_cell_length_c       11.0304
_cell_angle_alpha    100.657
_cell_angle_beta     92.0739
_cell_angle_gamma    95.6844

_space_group_name_H-M_alt    "P 1"
_space_group_IT_number       1

loop_
  _space_group_symop_operation_xyz
  'x, y, z'

loop_
  _atom_site_type_symbol
  _atom_site_label
  _atom_site_symmetry_multiplicity
  _atom_site_fract_x
  _atom_site_fract_y
  _atom_site_fract_z
  _atom_site_occupancy
  H   H1        1.0  0.80890  0.12555  0.66913  1.0000
  H   H2        1.0  0.19110  0.87445  0.33087  1.0000
  H   H3        1.0  0.24028  0.51220  0.25609  1.0000
  H   H4        1.0  0.75971  0.48779  0.74391  1.0000
  H   H5        1.0  0.11993  0.38373  0.42346  1.0000
  H   H6        1.0  0.88007  0.61627  0.57654  1.0000
  H   H7        1.0  0.29801  0.23568  0.53834  1.0000
  H   H8        1.0  0.70199  0.76431  0.46166  1.0000
  H   H9        1.0  0.69619  0.35919  0.31349  1.0000
  H   H10       1.0  0.30380  0.64081  0.68651  1.0000
  H   H11       1.0  0.83436  0.06143  0.48353  1.0000
  H   H12       1.0  0.16563  0.93857  0.51647  1.0000
  H   H13       1.0  0.86631  0.24370  0.43354  1.0000
  H   H14       1.0  0.13369  0.75630  0.56646  1.0000
  H   H15       1.0  0.73464  0.08428  0.34262  1.0000
  H   H16       1.0  0.26536  0.91572  0.65738  1.0000
  H   H17       1.0  0.96535  0.99911  0.74197  1.0000
  H   H18       1.0  0.03465  0.00090  0.25804  1.0000
  H   H19       1.0  0.12426  0.83540  0.85787  1.0000
  H   H20       1.0  0.87575  0.16461  0.14214  1.0000
  H   H21       1.0  0.98446  0.70369  0.01437  1.0000
  H   H22       1.0  0.01555  0.29631  0.98564  1.0000
  H   H23       1.0  0.54488  0.88501  0.94945  1.0000
  H   H24       1.0  0.45512  0.11499  0.05055  1.0000
  Pb  Pb1       1.0  0.62078  0.66163  0.16292  1.0000
  Pb  Pb2       1.0  0.37923  0.33839  0.83710  1.0000
  C   C1        1.0  0.31482  0.44679  0.30868  1.0000
  C   C2        1.0  0.68518  0.55321  0.69131  1.0000
  C   C3        1.0  0.24808  0.37442  0.40125  1.0000
  C   C4        1.0  0.75192  0.62557  0.59874  1.0000
  C   C5        1.0  0.34792  0.29244  0.46542  1.0000
  C   C6        1.0  0.65208  0.70756  0.53457  1.0000
  C   C7        1.0  0.51301  0.28300  0.43557  1.0000
  C   C8        1.0  0.48699  0.71699  0.56442  1.0000
  C   C9        1.0  0.56884  0.35932  0.34077  1.0000
  C   C10       1.0  0.43116  0.64067  0.65923  1.0000
  C   C11       1.0  0.62494  0.19821  0.50116  1.0000
  C   C12       1.0  0.37506  0.80179  0.49884  1.0000
  C   C13       1.0  0.77403  0.14380  0.43753  1.0000
  C   C14       1.0  0.22596  0.85620  0.56247  1.0000
  C   C15       1.0  0.62317  0.03628  0.77006  1.0000
  C   C16       1.0  0.37683  0.96372  0.22994  1.0000
  C   C17       1.0  0.73964  0.95425  0.83614  1.0000
  C   C18       1.0  0.26036  0.04575  0.16386  1.0000
  C   C19       1.0  0.90522  0.93970  0.81008  1.0000
  C   C20       1.0  0.09478  0.06030  0.18993  1.0000
  C   C21       1.0  0.99514  0.84929  0.87422  1.0000
  C   C22       1.0  0.00487  0.15072  0.12578  1.0000
  C   C23       1.0  0.91833  0.77628  0.96272  1.0000
  C   C24       1.0  0.08168  0.22372  0.03728  1.0000
  C   C25       1.0  0.67352  0.87815  0.92764  1.0000
  C   C26       1.0  0.32648  0.12185  0.07236  1.0000
  Br  Br1       1.0  0.69869  0.37668  0.99708  1.0000
  Br  Br2       1.0  0.30133  0.62333  0.00292  1.0000
  Br  Br3       1.0  0.94948  0.68775  0.29935  1.0000
  Br  Br4       1.0  0.05053  0.31225  0.70064  1.0000
  N   N1        1.0  0.47280  0.43980  0.27993  1.0000
  N   N2        1.0  0.52719  0.56019  0.72007  1.0000
  N   N3        1.0  0.57983  0.17362  0.60856  1.0000
  N   N4        1.0  0.42016  0.82638  0.39144  1.0000
  N   N5        1.0  0.68304  0.10027  0.67430  1.0000
  N   N6        1.0  0.31696  0.89973  0.32570  1.0000
  N   N7        1.0  0.76071  0.79216  0.98948  1.0000
  N   N8        1.0  0.23929  0.20784  0.01052  1.0000
  O   O1        1.0  0.47562  0.03713  0.79704  1.0000
  O   O2        1.0  0.52438  0.96287  0.20296  1.0000
