data_image0
_chemical_formula_structural       H48Pb4C52Br8N16O4
_chemical_formula_sum              "H48 Pb4 C52 Br8 N16 O4"
_cell_length_a       9.39895
_cell_length_b       10.3393
_cell_length_c       16.1741
_cell_angle_alpha    90
_cell_angle_beta     90
_cell_angle_gamma    100.334

_space_group_name_H-M_alt    "P 1"
_space_group_IT_number       1

loop_
  _space_group_symop_operation_xyz
  'x, y, z'

loop_
  _atom_site_type_symbol
  _atom_site_label
  _atom_site_symmetry_multiplicity
  _atom_site_fract_x
  _atom_site_fract_y
  _atom_site_fract_z
  _atom_site_occupancy
  H   H1        1.0  0.74950  0.67549  0.76901  1.0000
  H   H2        1.0  0.25054  0.82445  0.26898  1.0000
  H   H3        1.0  0.25051  0.32443  0.23102  1.0000
  H   H4        1.0  0.74948  0.17553  0.73098  1.0000
  H   H5        1.0  0.10335  0.49411  0.59803  1.0000
  H   H6        1.0  0.89663  0.00597  0.09797  1.0000
  H   H7        1.0  0.89665  0.50594  0.40200  1.0000
  H   H8        1.0  0.10336  0.99413  0.90198  1.0000
  H   H9        1.0  0.12178  0.55311  0.44555  1.0000
  H   H10       1.0  0.87824  0.94692  0.94549  1.0000
  H   H11       1.0  0.87826  0.44696  0.55450  1.0000
  H   H12       1.0  0.12181  0.05306  0.05448  1.0000
  H   H13       1.0  0.36465  0.65927  0.39023  1.0000
  H   H14       1.0  0.63538  0.84066  0.89018  1.0000
  H   H15       1.0  0.63539  0.34078  0.60983  1.0000
  H   H16       1.0  0.36470  0.15917  0.10979  1.0000
  H   H17       1.0  0.57197  0.70214  0.48403  1.0000
  H   H18       1.0  0.42807  0.79773  0.98399  1.0000
  H   H19       1.0  0.42807  0.29786  0.51604  1.0000
  H   H20       1.0  0.57201  0.20206  0.01599  1.0000
  H   H21       1.0  0.75298  0.79866  0.66536  1.0000
  H   H22       1.0  0.24705  0.70131  0.16535  1.0000
  H   H23       1.0  0.24702  0.20133  0.33470  1.0000
  H   H24       1.0  0.75302  0.29862  0.83461  1.0000
  H   H25       1.0  0.72088  0.74952  0.56133  1.0000
  H   H26       1.0  0.27916  0.75034  0.06130  1.0000
  H   H27       1.0  0.27914  0.25044  0.43874  1.0000
  H   H28       1.0  0.72085  0.24959  0.93866  1.0000
  H   H29       1.0  0.80053  0.64978  0.63125  1.0000
  H   H30       1.0  0.19949  0.85015  0.13117  1.0000
  H   H31       1.0  0.19948  0.35019  0.36884  1.0000
  H   H32       1.0  0.80052  0.14976  0.86880  1.0000
  H   H33       1.0  0.60650  0.50246  0.01438  1.0000
  H   H34       1.0  0.39349  0.99760  0.51432  1.0000
  H   H35       1.0  0.39351  0.49753  0.98569  1.0000
  H   H36       1.0  0.60647  0.00250  0.48561  1.0000
  H   H37       1.0  0.01136  0.67145  0.09837  1.0000
  H   H38       1.0  0.98861  0.82867  0.59832  1.0000
  H   H39       1.0  0.98863  0.32867  0.90166  1.0000
  H   H40       1.0  0.01135  0.17141  0.40161  1.0000
  H   H41       1.0  0.10283  0.71980  0.95193  1.0000
  H   H42       1.0  0.89717  0.78025  0.45189  1.0000
  H   H43       1.0  0.89713  0.28028  0.04809  1.0000
  H   H44       1.0  0.10282  0.21977  0.54805  1.0000
  H   H45       1.0  0.93678  0.65637  0.83539  1.0000
  H   H46       1.0  0.06323  0.84359  0.33535  1.0000
  H   H47       1.0  0.06319  0.34361  0.16465  1.0000
  H   H48       1.0  0.93677  0.15639  0.66460  1.0000
  Pb  Pb1       1.0  0.28182  0.45966  0.77312  1.0000
  Pb  Pb2       1.0  0.71809  0.04033  0.27308  1.0000
  Pb  Pb3       1.0  0.71807  0.54034  0.22690  1.0000
  Pb  Pb4       1.0  0.28184  0.95964  0.72686  1.0000
  C   C1        1.0  0.20561  0.54061  0.56984  1.0000
  C   C2        1.0  0.79438  0.95944  0.06978  1.0000
  C   C3        1.0  0.79439  0.45943  0.43020  1.0000
  C   C4        1.0  0.20563  0.04060  0.93017  1.0000
  C   C5        1.0  0.21578  0.57324  0.48602  1.0000
  C   C6        1.0  0.78423  0.92677  0.98597  1.0000
  C   C7        1.0  0.78424  0.42680  0.51402  1.0000
  C   C8        1.0  0.21581  0.07320  0.01399  1.0000
  C   C9        1.0  0.34982  0.63268  0.45531  1.0000
  C   C10       1.0  0.65022  0.86726  0.95526  1.0000
  C   C11       1.0  0.65021  0.36735  0.54474  1.0000
  C   C12       1.0  0.34985  0.13261  0.04470  1.0000
  C   C13       1.0  0.46748  0.65683  0.50886  1.0000
  C   C14       1.0  0.53255  0.84309  0.00881  1.0000
  C   C15       1.0  0.53254  0.34317  0.49119  1.0000
  C   C16       1.0  0.46751  0.15677  0.99116  1.0000
  C   C17       1.0  0.44982  0.62002  0.59204  1.0000
  C   C18       1.0  0.55021  0.87996  0.09198  1.0000
  C   C19       1.0  0.55018  0.37998  0.40801  1.0000
  C   C20       1.0  0.44982  0.11999  0.90797  1.0000
  C   C21       1.0  0.57408  0.63887  0.64948  1.0000
  C   C22       1.0  0.42593  0.86109  0.14942  1.0000
  C   C23       1.0  0.42591  0.36111  0.35058  1.0000
  C   C24       1.0  0.57407  0.13886  0.85052  1.0000
  C   C25       1.0  0.71876  0.71323  0.62469  1.0000
  C   C26       1.0  0.28126  0.78670  0.12465  1.0000
  C   C27       1.0  0.28124  0.28674  0.37538  1.0000
  C   C28       1.0  0.71876  0.21323  0.87531  1.0000
  C   C29       1.0  0.63948  0.53921  0.85242  1.0000
  C   C30       1.0  0.36052  0.96079  0.35236  1.0000
  C   C31       1.0  0.36050  0.46077  0.14765  1.0000
  C   C32       1.0  0.63948  0.03923  0.64758  1.0000
  C   C33       1.0  0.75475  0.57636  0.91544  1.0000
  C   C34       1.0  0.24524  0.92365  0.41538  1.0000
  C   C35       1.0  0.24525  0.42361  0.08461  1.0000
  C   C36       1.0  0.75474  0.07639  0.58455  1.0000
  C   C37       1.0  0.71551  0.55124  0.99843  1.0000
  C   C38       1.0  0.28448  0.94881  0.49837  1.0000
  C   C39       1.0  0.28448  0.44877  0.00163  1.0000
  C   C40       1.0  0.71549  0.05126  0.50156  1.0000
  C   C41       1.0  0.94154  0.64687  0.04461  1.0000
  C   C42       1.0  0.05844  0.85321  0.54456  1.0000
  C   C43       1.0  0.05845  0.35321  0.95543  1.0000
  C   C44       1.0  0.94153  0.14686  0.45538  1.0000
  C   C45       1.0  0.99135  0.67349  0.96424  1.0000
  C   C46       1.0  0.00864  0.82657  0.46420  1.0000
  C   C47       1.0  0.00863  0.32657  0.03579  1.0000
  C   C48       1.0  0.99134  0.17348  0.53573  1.0000
  C   C49       1.0  0.89716  0.63777  0.89832  1.0000
  C   C50       1.0  0.10284  0.86222  0.39828  1.0000
  C   C51       1.0  0.10283  0.36224  0.10172  1.0000
  C   C52       1.0  0.89715  0.13778  0.60166  1.0000
  Br  Br1       1.0  0.95612  0.42231  0.73168  1.0000
  Br  Br2       1.0  0.04390  0.07765  0.23166  1.0000
  Br  Br3       1.0  0.04385  0.57773  0.26831  1.0000
  Br  Br4       1.0  0.95610  0.92235  0.76832  1.0000
  Br  Br5       1.0  0.31820  0.22714  0.66242  1.0000
  Br  Br6       1.0  0.68174  0.27289  0.16239  1.0000
  Br  Br7       1.0  0.68172  0.77289  0.33761  1.0000
  Br  Br8       1.0  0.31823  0.72715  0.83759  1.0000
  N   N1        1.0  0.31849  0.56317  0.62154  1.0000
  N   N2        1.0  0.68152  0.93686  0.12148  1.0000
  N   N3        1.0  0.68150  0.43685  0.37851  1.0000
  N   N4        1.0  0.31849  0.06316  0.87846  1.0000
  N   N5        1.0  0.55075  0.58495  0.72203  1.0000
  N   N6        1.0  0.44925  0.91502  0.22197  1.0000
  N   N7        1.0  0.44924  0.41501  0.27803  1.0000
  N   N8        1.0  0.55075  0.08497  0.77797  1.0000
  N   N9        1.0  0.65897  0.60513  0.77851  1.0000
  N   N10       1.0  0.34104  0.89483  0.27846  1.0000
  N   N11       1.0  0.34103  0.39480  0.22154  1.0000
  N   N12       1.0  0.65896  0.10517  0.72148  1.0000
  N   N13       1.0  0.80578  0.58648  0.06157  1.0000
  N   N14       1.0  0.19420  0.91361  0.56151  1.0000
  N   N15       1.0  0.19423  0.41358  0.93847  1.0000
  N   N16       1.0  0.80576  0.08649  0.43842  1.0000
  O   O1        1.0  0.52882  0.45619  0.86701  1.0000
  O   O2        1.0  0.47116  0.04382  0.36694  1.0000
  O   O3        1.0  0.47115  0.54380  0.13306  1.0000
  O   O4        1.0  0.52883  0.95620  0.63299  1.0000
