data_image0
_chemical_formula_structural       H20Pb2C24Br4N8O2
_chemical_formula_sum              "H20 Pb2 C24 Br4 N8 O2"
_cell_length_a       7.376
_cell_length_b       10.263
_cell_length_c       10.8245
_cell_angle_alpha    92.0654
_cell_angle_beta     100.978
_cell_angle_gamma    103.602

_space_group_name_H-M_alt    "P 1"
_space_group_IT_number       1

loop_
  _space_group_symop_operation_xyz
  'x, y, z'

loop_
  _atom_site_type_symbol
  _atom_site_label
  _atom_site_symmetry_multiplicity
  _atom_site_fract_x
  _atom_site_fract_y
  _atom_site_fract_z
  _atom_site_occupancy
  H   H1        1.0  0.17347  0.60716  0.05947  1.0000
  H   H2        1.0  0.82652  0.39284  0.94051  1.0000
  H   H3        1.0  0.39668  0.80145  0.19891  1.0000
  H   H4        1.0  0.60331  0.19853  0.80110  1.0000
  H   H5        1.0  0.73637  0.82628  0.03799  1.0000
  H   H6        1.0  0.26362  0.17371  0.96205  1.0000
  H   H7        1.0  0.83065  0.61843  0.98104  1.0000
  H   H8        1.0  0.16934  0.38157  0.01897  1.0000
  H   H9        1.0  0.82333  0.44383  0.26429  1.0000
  H   H10       1.0  0.17667  0.55617  0.73572  1.0000
  H   H11       1.0  0.40788  0.57975  0.46929  1.0000
  H   H12       1.0  0.59213  0.42025  0.53071  1.0000
  H   H13       1.0  0.04714  0.83442  0.46949  1.0000
  H   H14       1.0  0.95286  0.16558  0.53053  1.0000
  H   H15       1.0  0.77652  0.66647  0.33359  1.0000
  H   H16       1.0  0.22348  0.33354  0.66642  1.0000
  H   H17       1.0  0.81610  0.05178  0.13994  1.0000
  H   H18       1.0  0.18393  0.94823  0.86005  1.0000
  H   H19       1.0  0.89912  0.26712  0.23168  1.0000
  H   H20       1.0  0.10089  0.73288  0.76832  1.0000
  Pb  Pb1       1.0  0.44276  0.12206  0.35583  1.0000
  Pb  Pb2       1.0  0.55726  0.87794  0.64411  1.0000
  C   C1        1.0  0.01705  0.92250  0.14820  1.0000
  C   C2        1.0  0.98296  0.07749  0.85182  1.0000
  C   C3        1.0  0.12245  0.69391  0.08422  1.0000
  C   C4        1.0  0.87754  0.30609  0.91578  1.0000
  C   C5        1.0  0.24891  0.80300  0.16094  1.0000
  C   C6        1.0  0.75108  0.19699  0.83906  1.0000
  C   C7        1.0  0.88117  0.81679  0.07280  1.0000
  C   C8        1.0  0.11882  0.18321  0.92722  1.0000
  C   C9        1.0  0.93508  0.70083  0.04057  1.0000
  C   C10       1.0  0.06491  0.29916  0.95944  1.0000
  C   C11       1.0  0.96317  0.04655  0.17699  1.0000
  C   C12       1.0  0.03684  0.95345  0.82301  1.0000
  C   C13       1.0  0.17743  0.36782  0.33238  1.0000
  C   C14       1.0  0.82258  0.63218  0.66763  1.0000
  C   C15       1.0  0.12306  0.49465  0.36067  1.0000
  C   C16       1.0  0.87694  0.50535  0.63934  1.0000
  C   C17       1.0  0.94231  0.51896  0.32234  1.0000
  C   C18       1.0  0.05769  0.48104  0.67767  1.0000
  C   C19       1.0  0.26653  0.59628  0.43668  1.0000
  C   C20       1.0  0.73347  0.40372  0.56333  1.0000
  C   C21       1.0  0.06506  0.73701  0.43707  1.0000
  C   C22       1.0  0.93495  0.26299  0.56295  1.0000
  C   C23       1.0  0.91425  0.64251  0.36079  1.0000
  C   C24       1.0  0.08575  0.35749  0.63923  1.0000
  Br  Br1       1.0  0.29816  0.07107  0.60746  1.0000
  Br  Br2       1.0  0.70174  0.92885  0.39242  1.0000
  Br  Br3       1.0  0.58186  0.23460  0.13545  1.0000
  Br  Br4       1.0  0.41815  0.76548  0.86449  1.0000
  N   N1        1.0  0.08985  0.14695  0.24155  1.0000
  N   N2        1.0  0.91016  0.85305  0.75847  1.0000
  N   N3        1.0  0.03946  0.26262  0.26489  1.0000
  N   N4        1.0  0.96054  0.73738  0.73512  1.0000
  N   N5        1.0  0.23866  0.71393  0.47518  1.0000
  N   N6        1.0  0.76135  0.28607  0.52483  1.0000
  N   N7        1.0  0.19842  0.91439  0.19272  1.0000
  N   N8        1.0  0.80158  0.08560  0.80729  1.0000
  O   O1        1.0  0.34388  0.35781  0.37073  1.0000
  O   O2        1.0  0.65614  0.64220  0.62926  1.0000
