data_image0
_chemical_formula_structural       Ag4H48C48N12O8
_chemical_formula_sum              "Ag4 H48 C48 N12 O8"
_cell_length_a       7.30079
_cell_length_b       11.4451
_cell_length_c       15.053
_cell_angle_alpha    90
_cell_angle_beta     101.923
_cell_angle_gamma    90

_space_group_name_H-M_alt    "P 1"
_space_group_IT_number       1

loop_
  _space_group_symop_operation_xyz
  'x, y, z'

loop_
  _atom_site_type_symbol
  _atom_site_label
  _atom_site_symmetry_multiplicity
  _atom_site_fract_x
  _atom_site_fract_y
  _atom_site_fract_z
  _atom_site_occupancy
  Ag  Ag1       1.0  0.21641  0.98844  0.00519  1.0000
  Ag  Ag2       1.0  0.78359  0.48844  0.49481  1.0000
  Ag  Ag3       1.0  0.78357  0.01156  0.99480  1.0000
  Ag  Ag4       1.0  0.21640  0.51154  0.50520  1.0000
  H   H1        1.0  0.04636  0.75707  0.06264  1.0000
  H   H2        1.0  0.95365  0.25708  0.43736  1.0000
  H   H3        1.0  0.95364  0.24292  0.93737  1.0000
  H   H4        1.0  0.04638  0.74290  0.56264  1.0000
  H   H5        1.0  0.97793  0.66898  0.20450  1.0000
  H   H6        1.0  0.02208  0.16899  0.29550  1.0000
  H   H7        1.0  0.02206  0.33103  0.79551  1.0000
  H   H8        1.0  0.97795  0.83100  0.70449  1.0000
  H   H9        1.0  0.21788  0.97449  0.35058  1.0000
  H   H10       1.0  0.78209  0.47449  0.14942  1.0000
  H   H11       1.0  0.78213  0.02551  0.64943  1.0000
  H   H12       1.0  0.21788  0.52549  0.85058  1.0000
  H   H13       1.0  0.27785  0.05205  0.20337  1.0000
  H   H14       1.0  0.72212  0.55205  0.29663  1.0000
  H   H15       1.0  0.72216  0.94795  0.79664  1.0000
  H   H16       1.0  0.27787  0.44793  0.70337  1.0000
  H   H17       1.0  0.37617  0.15635  0.70189  1.0000
  H   H18       1.0  0.62383  0.65637  0.79811  1.0000
  H   H19       1.0  0.62382  0.84369  0.29811  1.0000
  H   H20       1.0  0.37615  0.34367  0.20189  1.0000
  H   H21       1.0  0.52965  0.33808  0.77344  1.0000
  H   H22       1.0  0.47037  0.83809  0.72656  1.0000
  H   H23       1.0  0.47036  0.66195  0.22658  1.0000
  H   H24       1.0  0.52964  0.16194  0.27342  1.0000
  H   H25       1.0  0.55962  0.36694  0.94211  1.0000
  H   H26       1.0  0.44038  0.86695  0.55788  1.0000
  H   H27       1.0  0.44037  0.63306  0.05790  1.0000
  H   H28       1.0  0.55964  0.13306  0.44210  1.0000
  H   H29       1.0  0.48804  0.14253  0.09567  1.0000
  H   H30       1.0  0.51193  0.64250  0.40434  1.0000
  H   H31       1.0  0.51195  0.85746  0.90433  1.0000
  H   H32       1.0  0.48809  0.35745  0.59567  1.0000
  H   H33       1.0  0.51604  0.29588  0.08340  1.0000
  H   H34       1.0  0.48391  0.79585  0.41658  1.0000
  H   H35       1.0  0.48391  0.70412  0.91660  1.0000
  H   H36       1.0  0.51609  0.20410  0.58339  1.0000
  H   H37       1.0  0.28652  0.23479  0.06886  1.0000
  H   H38       1.0  0.71344  0.73478  0.43112  1.0000
  H   H39       1.0  0.71345  0.76519  0.93114  1.0000
  H   H40       1.0  0.28657  0.26519  0.56887  1.0000
  H   H41       1.0  0.21325  0.98553  0.72258  1.0000
  H   H42       1.0  0.78675  0.48555  0.77742  1.0000
  H   H43       1.0  0.78677  0.01449  0.27740  1.0000
  H   H44       1.0  0.21322  0.51448  0.22259  1.0000
  H   H45       1.0  0.17723  0.93194  0.82566  1.0000
  H   H46       1.0  0.82278  0.43195  0.67434  1.0000
  H   H47       1.0  0.82279  0.06808  0.17432  1.0000
  H   H48       1.0  0.17720  0.56806  0.32568  1.0000
  C   C1        1.0  0.08416  0.80213  0.12805  1.0000
  C   C2        1.0  0.91585  0.30215  0.37195  1.0000
  C   C3        1.0  0.91584  0.19786  0.87196  1.0000
  C   C4        1.0  0.08417  0.69784  0.62804  1.0000
  C   C5        1.0  0.04863  0.75311  0.20735  1.0000
  C   C6        1.0  0.95136  0.25313  0.29264  1.0000
  C   C7        1.0  0.95136  0.24689  0.79265  1.0000
  C   C8        1.0  0.04866  0.74687  0.70736  1.0000
  C   C9        1.0  0.09549  0.81416  0.28945  1.0000
  C   C10       1.0  0.90450  0.31417  0.21056  1.0000
  C   C11       1.0  0.90450  0.18584  0.71057  1.0000
  C   C12       1.0  0.09551  0.68581  0.78944  1.0000
  C   C13       1.0  0.18141  0.92330  0.28832  1.0000
  C   C14       1.0  0.81857  0.42330  0.21168  1.0000
  C   C15       1.0  0.81860  0.07671  0.71169  1.0000
  C   C16       1.0  0.18142  0.57669  0.78831  1.0000
  C   C17       1.0  0.21438  0.96664  0.20688  1.0000
  C   C18       1.0  0.78561  0.46664  0.29312  1.0000
  C   C19       1.0  0.78563  0.03336  0.79312  1.0000
  C   C20       1.0  0.21438  0.53334  0.70688  1.0000
  C   C21       1.0  0.04792  0.76724  0.37642  1.0000
  C   C22       1.0  0.95210  0.26727  0.12359  1.0000
  C   C23       1.0  0.95209  0.23275  0.62360  1.0000
  C   C24       1.0  0.04793  0.73274  0.87641  1.0000
  C   C25       1.0  0.32781  0.08750  0.82859  1.0000
  C   C26       1.0  0.67219  0.58751  0.67141  1.0000
  C   C27       1.0  0.67220  0.91251  0.17140  1.0000
  C   C28       1.0  0.32780  0.41250  0.32859  1.0000
  C   C29       1.0  0.39235  0.17265  0.77428  1.0000
  C   C30       1.0  0.60766  0.67266  0.72572  1.0000
  C   C31       1.0  0.60765  0.82737  0.22572  1.0000
  C   C32       1.0  0.39234  0.32736  0.27427  1.0000
  C   C33       1.0  0.47470  0.27325  0.81427  1.0000
  C   C34       1.0  0.52531  0.77327  0.68573  1.0000
  C   C35       1.0  0.52530  0.72677  0.18574  1.0000
  C   C36       1.0  0.47469  0.22676  0.31426  1.0000
  C   C37       1.0  0.49082  0.29007  0.90782  1.0000
  C   C38       1.0  0.50918  0.79007  0.59217  1.0000
  C   C39       1.0  0.50917  0.70995  0.09219  1.0000
  C   C40       1.0  0.49084  0.20993  0.40781  1.0000
  C   C41       1.0  0.42190  0.20478  0.95803  1.0000
  C   C42       1.0  0.57809  0.70478  0.54197  1.0000
  C   C43       1.0  0.57808  0.79522  0.04197  1.0000
  C   C44       1.0  0.42192  0.29520  0.45803  1.0000
  C   C45       1.0  0.42900  0.22037  0.05725  1.0000
  C   C46       1.0  0.57097  0.72036  0.44274  1.0000
  C   C47       1.0  0.57096  0.77962  0.94275  1.0000
  C   C48       1.0  0.42904  0.27961  0.55725  1.0000
  N   N1        1.0  0.16512  0.90811  0.12766  1.0000
  N   N2        1.0  0.83487  0.40810  0.37234  1.0000
  N   N3        1.0  0.83488  0.09189  0.87234  1.0000
  N   N4        1.0  0.16515  0.59187  0.62766  1.0000
  N   N5        1.0  0.34095  0.10480  0.91899  1.0000
  N   N6        1.0  0.65904  0.60480  0.58101  1.0000
  N   N7        1.0  0.65904  0.89521  0.08100  1.0000
  N   N8        1.0  0.34096  0.39519  0.41899  1.0000
  N   N9        1.0  0.25543  0.98512  0.79118  1.0000
  N   N10       1.0  0.74457  0.48514  0.70882  1.0000
  N   N11       1.0  0.74459  0.01490  0.20880  1.0000
  N   N12       1.0  0.25540  0.51488  0.29120  1.0000
  O   O1        1.0  0.00778  0.84059  0.43130  1.0000
  O   O2        1.0  0.99222  0.34062  0.06870  1.0000
  O   O3        1.0  0.99222  0.15942  0.56870  1.0000
  O   O4        1.0  0.00780  0.65940  0.93130  1.0000
  O   O5        1.0  0.05010  0.65551  0.38461  1.0000
  O   O6        1.0  0.94989  0.15553  0.11538  1.0000
  O   O7        1.0  0.94989  0.34449  0.61540  1.0000
  O   O8        1.0  0.05015  0.84448  0.88461  1.0000
