data_image0
_chemical_formula_structural       Ag4H48C48N12O8
_chemical_formula_sum              "Ag4 H48 C48 N12 O8"
_cell_length_a       8.01272
_cell_length_b       8.77083
_cell_length_c       17.15
_cell_angle_alpha    90
_cell_angle_beta     90
_cell_angle_gamma    98.1693

_space_group_name_H-M_alt    "P 1"
_space_group_IT_number       1

loop_
  _space_group_symop_operation_xyz
  'x, y, z'

loop_
  _atom_site_type_symbol
  _atom_site_label
  _atom_site_symmetry_multiplicity
  _atom_site_fract_x
  _atom_site_fract_y
  _atom_site_fract_z
  _atom_site_occupancy
  Ag  Ag1       1.0  0.65380  0.87269  0.54104  1.0000
  Ag  Ag2       1.0  0.34620  0.62731  0.04104  1.0000
  Ag  Ag3       1.0  0.34620  0.12731  0.45896  1.0000
  Ag  Ag4       1.0  0.65380  0.37269  0.95896  1.0000
  H   H1        1.0  0.06669  0.90833  0.54951  1.0000
  H   H2        1.0  0.93331  0.59166  0.04951  1.0000
  H   H3        1.0  0.93330  0.09166  0.45049  1.0000
  H   H4        1.0  0.06669  0.40833  0.95049  1.0000
  H   H5        1.0  0.23979  0.08382  0.77423  1.0000
  H   H6        1.0  0.76020  0.41617  0.27423  1.0000
  H   H7        1.0  0.76020  0.91617  0.22577  1.0000
  H   H8        1.0  0.23979  0.58383  0.72577  1.0000
  H   H9        1.0  0.94300  0.13328  0.80167  1.0000
  H   H10       1.0  0.05700  0.36673  0.30168  1.0000
  H   H11       1.0  0.05699  0.86672  0.19833  1.0000
  H   H12       1.0  0.94300  0.63327  0.69833  1.0000
  H   H13       1.0  0.72140  0.05819  0.70093  1.0000
  H   H14       1.0  0.27860  0.44181  0.20093  1.0000
  H   H15       1.0  0.27860  0.94180  0.29907  1.0000
  H   H16       1.0  0.72139  0.55819  0.79907  1.0000
  H   H17       1.0  0.82390  0.33668  0.45041  1.0000
  H   H18       1.0  0.17610  0.16332  0.95041  1.0000
  H   H19       1.0  0.17610  0.66332  0.54959  1.0000
  H   H20       1.0  0.82390  0.83668  0.04959  1.0000
  H   H21       1.0  0.70489  0.18559  0.56672  1.0000
  H   H22       1.0  0.29510  0.31442  0.06672  1.0000
  H   H23       1.0  0.29511  0.81442  0.43329  1.0000
  H   H24       1.0  0.70489  0.68559  0.93328  1.0000
  H   H25       1.0  0.57569  0.32212  0.67467  1.0000
  H   H26       1.0  0.42431  0.17789  0.17467  1.0000
  H   H27       1.0  0.42431  0.67789  0.32534  1.0000
  H   H28       1.0  0.57569  0.82212  0.82534  1.0000
  H   H29       1.0  0.71700  0.67988  0.39174  1.0000
  H   H30       1.0  0.28300  0.82012  0.89174  1.0000
  H   H31       1.0  0.28300  0.32012  0.60826  1.0000
  H   H32       1.0  0.71700  0.17988  0.10827  1.0000
  H   H33       1.0  0.89783  0.58245  0.38745  1.0000
  H   H34       1.0  0.10217  0.91754  0.88745  1.0000
  H   H35       1.0  0.10217  0.41754  0.61255  1.0000
  H   H36       1.0  0.89783  0.08246  0.11255  1.0000
  H   H37       1.0  0.90010  0.75043  0.44565  1.0000
  H   H38       1.0  0.09991  0.74957  0.94565  1.0000
  H   H39       1.0  0.09990  0.24957  0.55435  1.0000
  H   H40       1.0  0.90010  0.25043  0.05435  1.0000
  H   H41       1.0  0.53447  0.73217  0.66788  1.0000
  H   H42       1.0  0.46553  0.76784  0.16788  1.0000
  H   H43       1.0  0.46553  0.26784  0.33212  1.0000
  H   H44       1.0  0.53447  0.23217  0.83212  1.0000
  H   H45       1.0  0.49828  0.55649  0.72008  1.0000
  H   H46       1.0  0.50172  0.94352  0.22009  1.0000
  H   H47       1.0  0.50172  0.44352  0.27992  1.0000
  H   H48       1.0  0.49828  0.05649  0.77992  1.0000
  C   C1        1.0  0.04302  0.95747  0.60627  1.0000
  C   C2        1.0  0.95698  0.54253  0.10627  1.0000
  C   C3        1.0  0.95698  0.04253  0.39373  1.0000
  C   C4        1.0  0.04302  0.45746  0.89373  1.0000
  C   C5        1.0  0.17562  0.99267  0.65926  1.0000
  C   C6        1.0  0.82438  0.50732  0.15926  1.0000
  C   C7        1.0  0.82438  0.00731  0.34074  1.0000
  C   C8        1.0  0.17562  0.49268  0.84074  1.0000
  C   C9        1.0  0.13990  0.05568  0.73133  1.0000
  C   C10       1.0  0.86011  0.44432  0.23133  1.0000
  C   C11       1.0  0.86010  0.94431  0.26867  1.0000
  C   C12       1.0  0.13990  0.55568  0.76867  1.0000
  C   C13       1.0  0.97613  0.08276  0.74675  1.0000
  C   C14       1.0  0.02388  0.41724  0.24676  1.0000
  C   C15       1.0  0.02389  0.91723  0.25325  1.0000
  C   C16       1.0  0.97610  0.58276  0.75324  1.0000
  C   C17       1.0  0.85198  0.04272  0.69062  1.0000
  C   C18       1.0  0.14802  0.45728  0.19062  1.0000
  C   C19       1.0  0.14801  0.95727  0.30938  1.0000
  C   C20       1.0  0.85199  0.54271  0.80938  1.0000
  C   C21       1.0  0.35008  0.96096  0.63877  1.0000
  C   C22       1.0  0.64993  0.53903  0.13877  1.0000
  C   C23       1.0  0.64992  0.03903  0.36123  1.0000
  C   C24       1.0  0.35008  0.46097  0.86123  1.0000
  C   C25       1.0  0.75434  0.54874  0.49393  1.0000
  C   C26       1.0  0.24566  0.95126  0.99393  1.0000
  C   C27       1.0  0.24565  0.45126  0.50607  1.0000
  C   C28       1.0  0.75434  0.04874  0.00607  1.0000
  C   C29       1.0  0.76564  0.39239  0.49783  1.0000
  C   C30       1.0  0.23436  0.10761  0.99783  1.0000
  C   C31       1.0  0.23436  0.60761  0.50217  1.0000
  C   C32       1.0  0.76564  0.89239  0.00217  1.0000
  C   C33       1.0  0.69926  0.30880  0.56310  1.0000
  C   C34       1.0  0.30074  0.19120  0.06310  1.0000
  C   C35       1.0  0.30074  0.69120  0.43690  1.0000
  C   C36       1.0  0.69926  0.80880  0.93690  1.0000
  C   C37       1.0  0.62652  0.38272  0.62249  1.0000
  C   C38       1.0  0.37348  0.11728  0.12249  1.0000
  C   C39       1.0  0.37348  0.61728  0.37751  1.0000
  C   C40       1.0  0.62652  0.88272  0.87750  1.0000
  C   C41       1.0  0.61682  0.54221  0.61498  1.0000
  C   C42       1.0  0.38318  0.95780  0.11498  1.0000
  C   C43       1.0  0.38318  0.45779  0.38502  1.0000
  C   C44       1.0  0.61683  0.04222  0.88502  1.0000
  C   C45       1.0  0.82148  0.64470  0.42575  1.0000
  C   C46       1.0  0.17852  0.85530  0.92575  1.0000
  C   C47       1.0  0.17852  0.35530  0.57425  1.0000
  C   C48       1.0  0.82149  0.14470  0.07425  1.0000
  N   N1        1.0  0.67983  0.62203  0.55115  1.0000
  N   N2        1.0  0.32017  0.87797  0.05115  1.0000
  N   N3        1.0  0.32017  0.37797  0.44885  1.0000
  N   N4        1.0  0.67983  0.12203  0.94885  1.0000
  N   N5        1.0  0.54486  0.61757  0.67195  1.0000
  N   N6        1.0  0.45514  0.88243  0.17195  1.0000
  N   N7        1.0  0.45515  0.38243  0.32805  1.0000
  N   N8        1.0  0.54486  0.11757  0.82805  1.0000
  N   N9        1.0  0.88395  0.98032  0.62140  1.0000
  N   N10       1.0  0.11606  0.51968  0.12141  1.0000
  N   N11       1.0  0.11606  0.01968  0.37859  1.0000
  N   N12       1.0  0.88393  0.48032  0.87859  1.0000
  O   O1        1.0  0.38902  0.96107  0.56655  1.0000
  O   O2        1.0  0.61099  0.53893  0.06655  1.0000
  O   O3        1.0  0.61099  0.03893  0.43344  1.0000
  O   O4        1.0  0.38901  0.46108  0.93345  1.0000
  O   O5        1.0  0.44657  0.93255  0.69387  1.0000
  O   O6        1.0  0.55343  0.56745  0.19388  1.0000
  O   O7        1.0  0.55343  0.06745  0.30613  1.0000
  O   O8        1.0  0.44657  0.43256  0.80613  1.0000
