data_image0
_chemical_formula_structural       Zn2Co4H32C48O16
_chemical_formula_sum              "Zn2 Co4 H32 C48 O16"
_cell_length_a       10.2894
_cell_length_b       10.2893
_cell_length_c       15.0569
_cell_angle_alpha    109.937
_cell_angle_beta     109.937
_cell_angle_gamma    90.0155

_space_group_name_H-M_alt    "P 1"
_space_group_IT_number       1

loop_
  _space_group_symop_operation_xyz
  'x, y, z'

loop_
  _atom_site_type_symbol
  _atom_site_label
  _atom_site_symmetry_multiplicity
  _atom_site_fract_x
  _atom_site_fract_y
  _atom_site_fract_z
  _atom_site_occupancy
  Zn  Zn1       1.0  0.87497  0.62509  0.74998  1.0000
  Zn  Zn2       1.0  0.12504  0.37491  0.25002  1.0000
  Co  Co1       1.0  0.94025  0.19026  0.88049  1.0000
  Co  Co2       1.0  0.69029  0.44025  0.38049  1.0000
  Co  Co3       1.0  0.05974  0.80974  0.11951  1.0000
  Co  Co4       1.0  0.30971  0.55975  0.61951  1.0000
  H   H1        1.0  0.88638  0.44076  0.99891  1.0000
  H   H2        1.0  0.11256  0.05815  0.99898  1.0000
  H   H3        1.0  0.55816  0.38638  0.49895  1.0000
  H   H4        1.0  0.94080  0.61251  0.49892  1.0000
  H   H5        1.0  0.11362  0.55923  0.00109  1.0000
  H   H6        1.0  0.88744  0.94185  0.00102  1.0000
  H   H7        1.0  0.44184  0.61362  0.50105  1.0000
  H   H8        1.0  0.05919  0.38750  0.50109  1.0000
  H   H9        1.0  0.69612  0.09244  0.71009  1.0000
  H   H10       1.0  0.01394  0.11774  0.70999  1.0000
  H   H11       1.0  0.61778  0.19611  0.21001  1.0000
  H   H12       1.0  0.59242  0.51401  0.21009  1.0000
  H   H13       1.0  0.30387  0.90756  0.28991  1.0000
  H   H14       1.0  0.98606  0.88226  0.29000  1.0000
  H   H15       1.0  0.38223  0.80389  0.78999  1.0000
  H   H16       1.0  0.40758  0.48598  0.78991  1.0000
  H   H17       1.0  0.85336  0.21348  0.04144  1.0000
  H   H18       1.0  0.18801  0.32784  0.04132  1.0000
  H   H19       1.0  0.82786  0.35333  0.54135  1.0000
  H   H20       1.0  0.71354  0.68804  0.54142  1.0000
  H   H21       1.0  0.14664  0.78652  0.95856  1.0000
  H   H22       1.0  0.81199  0.67216  0.95868  1.0000
  H   H23       1.0  0.17214  0.64667  0.45865  1.0000
  H   H24       1.0  0.28646  0.31196  0.45858  1.0000
  H   H25       1.0  0.73371  0.99355  0.86204  1.0000
  H   H26       1.0  0.12828  0.36855  0.86191  1.0000
  H   H27       1.0  0.86855  0.23367  0.36196  1.0000
  H   H28       1.0  0.49360  0.62835  0.36205  1.0000
  H   H29       1.0  0.26629  0.00645  0.13796  1.0000
  H   H30       1.0  0.87172  0.63145  0.13809  1.0000
  H   H31       1.0  0.13145  0.76634  0.63805  1.0000
  H   H32       1.0  0.50640  0.37165  0.63795  1.0000
  C   C1        1.0  0.78834  0.39105  0.77640  1.0000
  C   C2        1.0  0.98816  0.88551  0.77645  1.0000
  C   C3        1.0  0.38550  0.28832  0.27645  1.0000
  C   C4        1.0  0.89101  0.48812  0.27637  1.0000
  C   C5        1.0  0.21166  0.60895  0.22360  1.0000
  C   C6        1.0  0.01184  0.11449  0.22355  1.0000
  C   C7        1.0  0.61450  0.71168  0.72355  1.0000
  C   C8        1.0  0.10899  0.51188  0.72363  1.0000
  C   C9        1.0  0.78419  0.29994  0.83493  1.0000
  C   C10       1.0  0.05084  0.03506  0.83494  1.0000
  C   C11       1.0  0.53507  0.28413  0.33493  1.0000
  C   C12       1.0  0.79998  0.55085  0.33492  1.0000
  C   C13       1.0  0.21581  0.70006  0.16507  1.0000
  C   C14       1.0  0.94916  0.96494  0.16506  1.0000
  C   C15       1.0  0.46493  0.71587  0.66507  1.0000
  C   C16       1.0  0.20002  0.44915  0.66508  1.0000
  C   C17       1.0  0.83559  0.33887  0.94337  1.0000
  C   C18       1.0  0.10780  0.10451  0.94336  1.0000
  C   C19       1.0  0.60452  0.33552  0.44337  1.0000
  C   C20       1.0  0.83892  0.60776  0.44335  1.0000
  C   C21       1.0  0.16441  0.66113  0.05663  1.0000
  C   C22       1.0  0.89220  0.89549  0.05664  1.0000
  C   C23       1.0  0.39548  0.66448  0.55663  1.0000
  C   C24       1.0  0.16108  0.39224  0.55665  1.0000
  C   C25       1.0  0.73541  0.15306  0.79088  1.0000
  C   C26       1.0  0.05545  0.13790  0.79080  1.0000
  C   C27       1.0  0.63795  0.23542  0.29082  1.0000
  C   C28       1.0  0.65308  0.55556  0.29087  1.0000
  C   C29       1.0  0.26459  0.84694  0.20912  1.0000
  C   C30       1.0  0.94454  0.86209  0.20920  1.0000
  C   C31       1.0  0.36206  0.76458  0.70918  1.0000
  C   C32       1.0  0.34692  0.44444  0.70913  1.0000
  C   C33       1.0  0.81758  0.21732  0.96570  1.0000
  C   C34       1.0  0.14804  0.24834  0.96560  1.0000
  C   C35       1.0  0.74836  0.31755  0.46563  1.0000
  C   C36       1.0  0.71736  0.64806  0.46567  1.0000
  C   C37       1.0  0.18243  0.78268  0.03430  1.0000
  C   C38       1.0  0.85196  0.75166  0.03440  1.0000
  C   C39       1.0  0.25164  0.68245  0.53437  1.0000
  C   C40       1.0  0.28264  0.35194  0.53433  1.0000
  C   C41       1.0  0.75606  0.10210  0.87145  1.0000
  C   C42       1.0  0.11530  0.26937  0.87130  1.0000
  C   C43       1.0  0.76939  0.25603  0.37136  1.0000
  C   C44       1.0  0.60214  0.61541  0.37144  1.0000
  C   C45       1.0  0.24394  0.89790  0.12855  1.0000
  C   C46       1.0  0.88470  0.73063  0.12870  1.0000
  C   C47       1.0  0.23061  0.74397  0.62864  1.0000
  C   C48       1.0  0.39786  0.38459  0.62856  1.0000
  O   O1        1.0  0.97774  0.81678  0.83196  1.0000
  O   O2        1.0  0.85413  0.51520  0.83193  1.0000
  O   O3        1.0  0.01514  0.47777  0.33190  1.0000
  O   O4        1.0  0.31680  0.35414  0.33198  1.0000
  O   O5        1.0  0.02226  0.18322  0.16804  1.0000
  O   O6        1.0  0.14587  0.48480  0.16807  1.0000
  O   O7        1.0  0.98486  0.52223  0.66810  1.0000
  O   O8        1.0  0.68320  0.64586  0.66802  1.0000
  O   O9        1.0  0.73020  0.34241  0.68209  1.0000
  O   O10       1.0  0.95210  0.83998  0.68213  1.0000
  O   O11       1.0  0.33993  0.23014  0.18215  1.0000
  O   O12       1.0  0.84231  0.45198  0.18205  1.0000
  O   O13       1.0  0.26980  0.65760  0.31791  1.0000
  O   O14       1.0  0.04790  0.16002  0.31787  1.0000
  O   O15       1.0  0.66007  0.76986  0.81785  1.0000
  O   O16       1.0  0.15769  0.54802  0.81795  1.0000
