data_image0
_chemical_formula_structural       Tb2H28C24O12
_chemical_formula_sum              "Tb2 H28 C24 O12"
_cell_length_a       7.52205
_cell_length_b       9.62828
_cell_length_c       9.62824
_cell_angle_alpha    98.4264
_cell_angle_beta     89.9997
_cell_angle_gamma    89.9994

_space_group_name_H-M_alt    "P 1"
_space_group_IT_number       1

loop_
  _space_group_symop_operation_xyz
  'x, y, z'

loop_
  _atom_site_type_symbol
  _atom_site_label
  _atom_site_symmetry_multiplicity
  _atom_site_fract_x
  _atom_site_fract_y
  _atom_site_fract_z
  _atom_site_occupancy
  Tb  Tb1       1.0  0.58070  0.04532  0.04532  1.0000
  Tb  Tb2       1.0  0.08071  0.95468  0.95468  1.0000
  H   H1        1.0  0.57501  0.26575  0.59255  1.0000
  H   H2        1.0  0.07501  0.73425  0.40745  1.0000
  H   H3        1.0  0.07500  0.40745  0.73425  1.0000
  H   H4        1.0  0.57499  0.59255  0.26575  1.0000
  H   H5        1.0  0.62717  0.27076  0.78273  1.0000
  H   H6        1.0  0.12718  0.72925  0.21727  1.0000
  H   H7        1.0  0.12716  0.21727  0.72925  1.0000
  H   H8        1.0  0.62716  0.78273  0.27075  1.0000
  H   H9        1.0  0.70492  0.08033  0.42061  1.0000
  H   H10       1.0  0.20492  0.91967  0.57939  1.0000
  H   H11       1.0  0.20492  0.57939  0.91967  1.0000
  H   H12       1.0  0.70492  0.42062  0.08033  1.0000
  H   H13       1.0  0.92594  0.04358  0.47203  1.0000
  H   H14       1.0  0.42594  0.95642  0.52798  1.0000
  H   H15       1.0  0.42593  0.52797  0.95641  1.0000
  H   H16       1.0  0.92593  0.47203  0.04358  1.0000
  H   H17       1.0  0.75618  0.92206  0.48756  1.0000
  H   H18       1.0  0.25618  0.07794  0.51244  1.0000
  H   H19       1.0  0.25617  0.51244  0.07794  1.0000
  H   H20       1.0  0.75618  0.48756  0.92206  1.0000
  H   H21       1.0  0.91474  0.48358  0.48358  1.0000
  H   H22       1.0  0.41476  0.51643  0.51642  1.0000
  H   H23       1.0  0.73697  0.37968  0.37968  1.0000
  H   H24       1.0  0.23699  0.62033  0.62032  1.0000
  H   H25       1.0  0.26857  0.39781  0.27068  1.0000
  H   H26       1.0  0.76859  0.60220  0.72933  1.0000
  H   H27       1.0  0.76859  0.72933  0.60221  1.0000
  H   H28       1.0  0.26857  0.27065  0.39779  1.0000
  C   C1        1.0  0.64365  0.22013  0.67471  1.0000
  C   C2        1.0  0.14365  0.77986  0.32529  1.0000
  C   C3        1.0  0.14363  0.32529  0.77987  1.0000
  C   C4        1.0  0.64363  0.67471  0.22013  1.0000
  C   C5        1.0  0.78446  0.03519  0.49774  1.0000
  C   C6        1.0  0.28446  0.96481  0.50226  1.0000
  C   C7        1.0  0.28445  0.50226  0.96481  1.0000
  C   C8        1.0  0.78445  0.49775  0.03519  1.0000
  C   C9        1.0  0.74775  0.10649  0.64371  1.0000
  C   C10       1.0  0.24776  0.89351  0.35629  1.0000
  C   C11       1.0  0.24775  0.35629  0.89351  1.0000
  C   C12       1.0  0.74774  0.64371  0.10649  1.0000
  C   C13       1.0  0.84201  0.04979  0.75880  1.0000
  C   C14       1.0  0.34201  0.95021  0.24120  1.0000
  C   C15       1.0  0.34200  0.24120  0.95020  1.0000
  C   C16       1.0  0.84200  0.75880  0.04980  1.0000
  C   C17       1.0  0.87797  0.39983  0.39982  1.0000
  C   C18       1.0  0.37799  0.60018  0.60018  1.0000
  C   C19       1.0  0.19278  0.33963  0.33963  1.0000
  C   C20       1.0  0.69280  0.66037  0.66037  1.0000
  C   C21       1.0  0.00004  0.32192  0.32192  1.0000
  C   C22       1.0  0.50006  0.67808  0.67808  1.0000
  C   C23       1.0  0.93784  0.20766  0.20767  1.0000
  C   C24       1.0  0.43786  0.79233  0.79233  1.0000
  O   O1        1.0  0.80718  0.09338  0.89011  1.0000
  O   O2        1.0  0.30718  0.90662  0.10989  1.0000
  O   O3        1.0  0.30718  0.10989  0.90662  1.0000
  O   O4        1.0  0.80717  0.89011  0.09339  1.0000
  O   O5        1.0  0.96457  0.95964  0.72802  1.0000
  O   O6        1.0  0.46456  0.04036  0.27198  1.0000
  O   O7        1.0  0.46456  0.27198  0.04035  1.0000
  O   O8        1.0  0.96457  0.72802  0.95965  1.0000
  O   O9        1.0  0.77258  0.18833  0.18833  1.0000
  O   O10       1.0  0.27261  0.81167  0.81167  1.0000
  O   O11       1.0  0.05989  0.13692  0.13692  1.0000
  O   O12       1.0  0.55991  0.86308  0.86308  1.0000
