data_image0
_chemical_formula_structural       Zn2H72C52S4N12O8
_chemical_formula_sum              "Zn2 H72 C52 S4 N12 O8"
_cell_length_a       9.51119
_cell_length_b       10.3104
_cell_length_c       14.8323
_cell_angle_alpha    86.6593
_cell_angle_beta     87.9895
_cell_angle_gamma    85.2175

_space_group_name_H-M_alt    "P 1"
_space_group_IT_number       1

loop_
  _space_group_symop_operation_xyz
  'x, y, z'

loop_
  _atom_site_type_symbol
  _atom_site_label
  _atom_site_symmetry_multiplicity
  _atom_site_fract_x
  _atom_site_fract_y
  _atom_site_fract_z
  _atom_site_occupancy
  Zn  Zn1       1.0  0.64917  0.57146  0.72823  1.0000
  Zn  Zn2       1.0  0.35084  0.42854  0.27177  1.0000
  H   H1        1.0  0.87779  0.56104  0.86327  1.0000
  H   H2        1.0  0.12221  0.43896  0.13673  1.0000
  H   H3        1.0  0.97665  0.40425  0.98424  1.0000
  H   H4        1.0  0.02335  0.59575  0.01576  1.0000
  H   H5        1.0  0.66915  0.14221  0.91961  1.0000
  H   H6        1.0  0.33085  0.85779  0.08039  1.0000
  H   H7        1.0  0.59006  0.30356  0.79610  1.0000
  H   H8        1.0  0.40994  0.69644  0.20390  1.0000
  H   H9        1.0  0.79659  0.12412  0.07397  1.0000
  H   H10       1.0  0.20341  0.87588  0.92602  1.0000
  H   H11       1.0  0.94499  0.08630  0.00396  1.0000
  H   H12       1.0  0.05501  0.91370  0.99604  1.0000
  H   H13       1.0  0.98798  0.29499  0.22636  1.0000
  H   H14       1.0  0.01202  0.70501  0.77364  1.0000
  H   H15       1.0  0.88263  0.16099  0.22559  1.0000
  H   H16       1.0  0.11737  0.83901  0.77441  1.0000
  H   H17       1.0  0.70026  0.30118  0.13818  1.0000
  H   H18       1.0  0.29974  0.69882  0.86182  1.0000
  H   H19       1.0  0.72811  0.35056  0.24809  1.0000
  H   H20       1.0  0.27189  0.64944  0.75191  1.0000
  H   H21       1.0  0.60639  0.54214  0.17944  1.0000
  H   H22       1.0  0.39361  0.45786  0.82056  1.0000
  H   H23       1.0  0.63003  0.50048  0.06401  1.0000
  H   H24       1.0  0.36997  0.49952  0.93599  1.0000
  H   H25       1.0  0.12152  0.05448  0.12437  1.0000
  H   H26       1.0  0.87848  0.94552  0.87563  1.0000
  H   H27       1.0  0.17559  0.20522  0.15545  1.0000
  H   H28       1.0  0.82441  0.79478  0.84455  1.0000
  H   H29       1.0  0.30678  0.11294  0.02252  1.0000
  H   H30       1.0  0.69322  0.88706  0.97748  1.0000
  H   H31       1.0  0.14962  0.13036  0.95954  1.0000
  H   H32       1.0  0.85038  0.86964  0.04046  1.0000
  H   H33       1.0  0.22751  0.28026  0.85313  1.0000
  H   H34       1.0  0.77249  0.71974  0.14687  1.0000
  H   H35       1.0  0.39574  0.25761  0.90404  1.0000
  H   H36       1.0  0.60426  0.74239  0.09596  1.0000
  H   H37       1.0  0.74810  0.80288  0.62408  1.0000
  H   H38       1.0  0.25190  0.19712  0.37592  1.0000
  H   H39       1.0  0.96628  0.86265  0.53403  1.0000
  H   H40       1.0  0.03372  0.13735  0.46597  1.0000
  H   H41       1.0  0.14744  0.47207  0.59517  1.0000
  H   H42       1.0  0.85256  0.52793  0.40483  1.0000
  H   H43       1.0  0.92339  0.42706  0.68060  1.0000
  H   H44       1.0  0.07661  0.57294  0.31940  1.0000
  H   H45       1.0  0.29422  0.63561  0.52362  1.0000
  H   H46       1.0  0.70578  0.36439  0.47638  1.0000
  H   H47       1.0  0.18317  0.67348  0.43149  1.0000
  H   H48       1.0  0.81683  0.32652  0.56851  1.0000
  H   H49       1.0  0.42676  0.84319  0.55982  1.0000
  H   H50       1.0  0.57324  0.15681  0.44018  1.0000
  H   H51       1.0  0.28256  0.80353  0.63156  1.0000
  H   H52       1.0  0.71744  0.19646  0.36844  1.0000
  H   H53       1.0  0.37330  0.02529  0.64707  1.0000
  H   H54       1.0  0.62670  0.97471  0.35293  1.0000
  H   H55       1.0  0.29616  0.07717  0.54222  1.0000
  H   H56       1.0  0.70384  0.92283  0.45778  1.0000
  H   H57       1.0  0.14557  0.22989  0.63444  1.0000
  H   H58       1.0  0.85443  0.77010  0.36556  1.0000
  H   H59       1.0  0.23009  0.15592  0.73212  1.0000
  H   H60       1.0  0.76992  0.84408  0.26789  1.0000
  H   H61       1.0  0.37089  0.81137  0.38207  1.0000
  H   H62       1.0  0.62911  0.18863  0.61793  1.0000
  H   H63       1.0  0.34268  0.97147  0.41843  1.0000
  H   H64       1.0  0.65732  0.02853  0.58157  1.0000
  H   H65       1.0  0.09458  0.98773  0.36550  1.0000
  H   H66       1.0  0.90542  0.01227  0.63450  1.0000
  H   H67       1.0  0.22963  0.96850  0.27827  1.0000
  H   H68       1.0  0.77037  0.03150  0.72173  1.0000
  H   H69       1.0  0.99066  0.74971  0.21609  1.0000
  H   H70       1.0  0.00934  0.25029  0.78391  1.0000
  H   H71       1.0  0.00813  0.92050  0.21206  1.0000
  H   H72       1.0  0.99187  0.07950  0.78794  1.0000
  C   C1        1.0  0.52858  0.83689  0.80237  1.0000
  C   C2        1.0  0.47142  0.16310  0.19763  1.0000
  C   C3        1.0  0.46070  0.42114  0.61367  1.0000
  C   C4        1.0  0.53930  0.57887  0.38633  1.0000
  C   C5        1.0  0.83468  0.46717  0.87709  1.0000
  C   C6        1.0  0.16532  0.53282  0.12291  1.0000
  C   C7        1.0  0.88882  0.38110  0.94490  1.0000
  C   C8        1.0  0.11118  0.61890  0.05510  1.0000
  C   C9        1.0  0.82934  0.26278  0.96325  1.0000
  C   C10       1.0  0.17066  0.73722  0.03675  1.0000
  C   C11       1.0  0.71905  0.23379  0.90941  1.0000
  C   C12       1.0  0.28095  0.76621  0.09059  1.0000
  C   C13       1.0  0.67280  0.32341  0.84120  1.0000
  C   C14       1.0  0.32720  0.67659  0.15880  1.0000
  C   C15       1.0  0.88608  0.16783  0.03742  1.0000
  C   C16       1.0  0.11392  0.83217  0.96258  1.0000
  C   C17       1.0  0.91112  0.25078  0.18649  1.0000
  C   C18       1.0  0.08888  0.74922  0.81351  1.0000
  C   C19       1.0  0.77802  0.34203  0.17994  1.0000
  C   C20       1.0  0.22198  0.65798  0.82005  1.0000
  C   C21       1.0  0.68041  0.54320  0.12034  1.0000
  C   C22       1.0  0.31959  0.45680  0.87966  1.0000
  C   C23       1.0  0.11964  0.16011  0.10333  1.0000
  C   C24       1.0  0.88036  0.83988  0.89667  1.0000
  C   C25       1.0  0.20429  0.17117  0.01494  1.0000
  C   C26       1.0  0.79571  0.82883  0.98506  1.0000
  C   C27       1.0  0.29329  0.31699  0.90464  1.0000
  C   C28       1.0  0.70671  0.68301  0.09536  1.0000
  C   C29       1.0  0.83916  0.73277  0.61502  1.0000
  C   C30       1.0  0.16084  0.26723  0.38498  1.0000
  C   C31       1.0  0.95898  0.76531  0.56570  1.0000
  C   C32       1.0  0.04102  0.23468  0.43430  1.0000
  C   C33       1.0  0.07334  0.67163  0.55708  1.0000
  C   C34       1.0  0.92666  0.32837  0.44291  1.0000
  C   C35       1.0  0.06085  0.54814  0.59983  1.0000
  C   C36       1.0  0.93915  0.45186  0.40017  1.0000
  C   C37       1.0  0.93727  0.52250  0.64743  1.0000
  C   C38       1.0  0.06272  0.47750  0.35257  1.0000
  C   C39       1.0  0.20254  0.70046  0.50034  1.0000
  C   C40       1.0  0.79746  0.29954  0.49966  1.0000
  C   C41       1.0  0.31230  0.86715  0.57313  1.0000
  C   C42       1.0  0.68770  0.13284  0.42687  1.0000
  C   C43       1.0  0.28933  0.00648  0.60092  1.0000
  C   C44       1.0  0.71068  0.99352  0.39908  1.0000
  C   C45       1.0  0.14080  0.14952  0.68691  1.0000
  C   C46       1.0  0.85920  0.85048  0.31310  1.0000
  C   C47       1.0  0.28892  0.88307  0.40868  1.0000
  C   C48       1.0  0.71108  0.11693  0.59133  1.0000
  C   C49       1.0  0.17877  0.92017  0.33808  1.0000
  C   C50       1.0  0.82123  0.07983  0.66191  1.0000
  C   C51       1.0  0.99614  0.83369  0.25811  1.0000
  C   C52       1.0  0.00386  0.16631  0.74190  1.0000
  S   S1        1.0  0.46135  0.96895  0.84527  1.0000
  S   S2        1.0  0.53865  0.03105  0.15473  1.0000
  S   S3        1.0  0.38290  0.34742  0.53995  1.0000
  S   S4        1.0  0.61711  0.65258  0.46005  1.0000
  N   N1        1.0  0.57821  0.73944  0.77069  1.0000
  N   N2        1.0  0.42179  0.26057  0.22931  1.0000
  N   N3        1.0  0.51685  0.47551  0.66937  1.0000
  N   N4        1.0  0.48316  0.52449  0.33064  1.0000
  N   N5        1.0  0.72740  0.43978  0.82609  1.0000
  N   N6        1.0  0.27260  0.56022  0.17391  1.0000
  N   N7        1.0  0.97761  0.22388  0.09854  1.0000
  N   N8        1.0  0.02239  0.77612  0.90146  1.0000
  N   N9        1.0  0.82738  0.61314  0.65523  1.0000
  N   N10       1.0  0.17262  0.38686  0.34477  1.0000
  N   N11       1.0  0.22940  0.83803  0.49628  1.0000
  N   N12       1.0  0.77060  0.16197  0.50372  1.0000
  O   O1        1.0  0.80849  0.46785  0.14265  1.0000
  O   O2        1.0  0.19151  0.53215  0.85735  1.0000
  O   O3        1.0  0.22600  0.30403  0.99153  1.0000
  O   O4        1.0  0.77401  0.69597  0.00847  1.0000
  O   O5        1.0  0.15487  0.02658  0.64664  1.0000
  O   O6        1.0  0.84513  0.97342  0.35336  1.0000
  O   O7        1.0  0.11880  0.80555  0.31099  1.0000
  O   O8        1.0  0.88120  0.19445  0.68901  1.0000
