data_image0
_chemical_formula_structural       Ag2H30C18S2N4O6
_chemical_formula_sum              "Ag2 H30 C18 S2 N4 O6"
_cell_length_a       7.14322
_cell_length_b       8.11916
_cell_length_c       11.3687
_cell_angle_alpha    107.588
_cell_angle_beta     99.2757
_cell_angle_gamma    101.257

_space_group_name_H-M_alt    "P 1"
_space_group_IT_number       1

loop_
  _space_group_symop_operation_xyz
  'x, y, z'

loop_
  _atom_site_type_symbol
  _atom_site_label
  _atom_site_symmetry_multiplicity
  _atom_site_fract_x
  _atom_site_fract_y
  _atom_site_fract_z
  _atom_site_occupancy
  Ag  Ag1       1.0  0.98010  0.81414  0.56770  1.0000
  Ag  Ag2       1.0  0.01990  0.18586  0.43230  1.0000
  H   H1        1.0  0.56921  0.59498  0.40935  1.0000
  H   H2        1.0  0.43079  0.40502  0.59065  1.0000
  H   H3        1.0  0.75151  0.21437  0.80125  1.0000
  H   H4        1.0  0.24849  0.78564  0.19874  1.0000
  H   H5        1.0  0.91886  0.13343  0.71607  1.0000
  H   H6        1.0  0.08114  0.86657  0.28393  1.0000
  H   H7        1.0  0.21515  0.59789  0.40476  1.0000
  H   H8        1.0  0.78485  0.40211  0.59524  1.0000
  H   H9        1.0  0.23019  0.11308  0.69880  1.0000
  H   H10       1.0  0.76981  0.88692  0.30120  1.0000
  H   H11       1.0  0.47438  0.24030  0.75691  1.0000
  H   H12       1.0  0.52561  0.75970  0.24309  1.0000
  H   H13       1.0  0.98241  0.12302  0.94055  1.0000
  H   H14       1.0  0.01759  0.87698  0.05946  1.0000
  H   H15       1.0  0.93341  0.90680  0.82388  1.0000
  H   H16       1.0  0.06659  0.09321  0.17612  1.0000
  H   H17       1.0  0.74840  0.96804  0.90082  1.0000
  H   H18       1.0  0.25160  0.03196  0.09918  1.0000
  H   H19       1.0  0.32221  0.19122  0.93236  1.0000
  H   H20       1.0  0.67778  0.80878  0.06764  1.0000
  H   H21       1.0  0.52351  0.09464  0.92335  1.0000
  H   H22       1.0  0.47649  0.90537  0.07665  1.0000
  H   H23       1.0  0.28120  0.95562  0.85918  1.0000
  H   H24       1.0  0.71880  0.04439  0.14082  1.0000
  H   H25       1.0  0.30392  0.46637  0.92824  1.0000
  H   H26       1.0  0.69608  0.53363  0.07177  1.0000
  H   H27       1.0  0.23140  0.67188  0.97705  1.0000
  H   H28       1.0  0.76859  0.32812  0.02295  1.0000
  H   H29       1.0  0.04769  0.46182  0.90800  1.0000
  H   H30       1.0  0.95231  0.53818  0.09200  1.0000
  C   C1        1.0  0.63245  0.95859  0.65674  1.0000
  C   C2        1.0  0.36755  0.04142  0.34326  1.0000
  C   C3        1.0  0.53000  0.69887  0.48000  1.0000
  C   C4        1.0  0.47000  0.30113  0.52000  1.0000
  C   C5        1.0  0.79836  0.09317  0.75926  1.0000
  C   C6        1.0  0.20163  0.90684  0.24074  1.0000
  C   C7        1.0  0.33562  0.70162  0.47653  1.0000
  C   C8        1.0  0.66438  0.29837  0.52346  1.0000
  C   C9        1.0  0.43457  0.96384  0.65143  1.0000
  C   C10       1.0  0.56543  0.03616  0.34857  1.0000
  C   C11       1.0  0.37718  0.10980  0.74347  1.0000
  C   C12       1.0  0.62282  0.89020  0.25652  1.0000
  C   C13       1.0  0.86987  0.01851  0.86238  1.0000
  C   C14       1.0  0.13013  0.98150  0.13762  1.0000
  C   C15       1.0  0.37633  0.08625  0.87222  1.0000
  C   C16       1.0  0.62368  0.91374  0.12778  1.0000
  C   C17       1.0  0.19284  0.53614  0.90784  1.0000
  C   C18       1.0  0.80716  0.46386  0.09217  1.0000
  S   S1        1.0  0.18548  0.54979  0.75308  1.0000
  S   S2        1.0  0.81453  0.45021  0.24693  1.0000
  N   N1        1.0  0.67726  0.82751  0.56929  1.0000
  N   N2        1.0  0.32274  0.17249  0.43071  1.0000
  N   N3        1.0  0.28921  0.83472  0.56069  1.0000
  N   N4        1.0  0.71079  0.16528  0.43931  1.0000
  O   O1        1.0  0.03810  0.65019  0.73403  1.0000
  O   O2        1.0  0.96191  0.34980  0.26597  1.0000
  O   O3        1.0  0.11880  0.36146  0.66671  1.0000
  O   O4        1.0  0.88121  0.63854  0.33330  1.0000
  O   O5        1.0  0.38544  0.63841  0.75434  1.0000
  O   O6        1.0  0.61457  0.36159  0.24566  1.0000
