data_image0
_chemical_formula_structural       Ni2H44C52N4O22
_chemical_formula_sum              "Ni2 H44 C52 N4 O22"
_cell_length_a       10.0122
_cell_length_b       11.2825
_cell_length_c       12.4775
_cell_angle_alpha    94.6735
_cell_angle_beta     102.798
_cell_angle_gamma    114.083

_space_group_name_H-M_alt    "P 1"
_space_group_IT_number       1

loop_
  _space_group_symop_operation_xyz
  'x, y, z'

loop_
  _atom_site_type_symbol
  _atom_site_label
  _atom_site_symmetry_multiplicity
  _atom_site_fract_x
  _atom_site_fract_y
  _atom_site_fract_z
  _atom_site_occupancy
  Ni  Ni1       1.0  0.28976  0.13211  0.65309  1.0000
  Ni  Ni2       1.0  0.71024  0.86789  0.34691  1.0000
  H   H1        1.0  0.31539  0.85295  0.11733  1.0000
  H   H2        1.0  0.68461  0.14705  0.88267  1.0000
  H   H3        1.0  0.68048  0.54598  0.03842  1.0000
  H   H4        1.0  0.31952  0.45402  0.96158  1.0000
  H   H5        1.0  0.51155  0.22623  0.58446  1.0000
  H   H6        1.0  0.48845  0.77377  0.41554  1.0000
  H   H7        1.0  0.56581  0.14692  0.67342  1.0000
  H   H8        1.0  0.43419  0.85308  0.32658  1.0000
  H   H9        1.0  0.30603  0.22923  0.85798  1.0000
  H   H10       1.0  0.69397  0.77077  0.14202  1.0000
  H   H11       1.0  0.45786  0.21347  0.86264  1.0000
  H   H12       1.0  0.54214  0.78653  0.13736  1.0000
  H   H13       1.0  0.96457  0.99721  0.59976  1.0000
  H   H14       1.0  0.03543  0.00280  0.40024  1.0000
  H   H15       1.0  0.04288  0.11160  0.70994  1.0000
  H   H16       1.0  0.95712  0.88840  0.29006  1.0000
  H   H17       1.0  0.09307  0.24166  0.52859  1.0000
  H   H18       1.0  0.90694  0.75833  0.47141  1.0000
  H   H19       1.0  0.08114  0.45642  0.51939  1.0000
  H   H20       1.0  0.91886  0.54357  0.48061  1.0000
  H   H21       1.0  0.51017  0.64140  0.77865  1.0000
  H   H22       1.0  0.48983  0.35860  0.22134  1.0000
  H   H23       1.0  0.50529  0.41873  0.77433  1.0000
  H   H24       1.0  0.49471  0.58126  0.22566  1.0000
  H   H25       1.0  0.20903  0.67246  0.46938  1.0000
  H   H26       1.0  0.79097  0.32754  0.53062  1.0000
  H   H27       1.0  0.21081  0.89424  0.47697  1.0000
  H   H28       1.0  0.78918  0.10576  0.52302  1.0000
  H   H29       1.0  0.34889  0.97529  0.82335  1.0000
  H   H30       1.0  0.65110  0.02471  0.17664  1.0000
  H   H31       1.0  0.36892  0.76302  0.83087  1.0000
  H   H32       1.0  0.63108  0.23697  0.16912  1.0000
  H   H33       1.0  0.16131  0.03901  0.02726  1.0000
  H   H34       1.0  0.83869  0.96099  0.97274  1.0000
  H   H35       1.0  0.04876  0.19561  0.00456  1.0000
  H   H36       1.0  0.95124  0.80439  0.99544  1.0000
  H   H37       1.0  0.19338  0.32682  0.36262  1.0000
  H   H38       1.0  0.80662  0.67318  0.63738  1.0000
  H   H39       1.0  0.85335  0.24494  0.04032  1.0000
  H   H40       1.0  0.14665  0.75506  0.95968  1.0000
  H   H41       1.0  0.14235  0.69348  0.27095  1.0000
  H   H42       1.0  0.85765  0.30652  0.72905  1.0000
  H   H43       1.0  0.24851  0.53103  0.29430  1.0000
  H   H44       1.0  0.75150  0.46897  0.70570  1.0000
  C   C1        1.0  0.18399  0.33319  0.58143  1.0000
  C   C2        1.0  0.81601  0.66681  0.41856  1.0000
  C   C3        1.0  0.17835  0.45376  0.57732  1.0000
  C   C4        1.0  0.82165  0.54624  0.42268  1.0000
  C   C5        1.0  0.29472  0.56888  0.64951  1.0000
  C   C6        1.0  0.70528  0.43112  0.35049  1.0000
  C   C7        1.0  0.41482  0.55572  0.72154  1.0000
  C   C8        1.0  0.58518  0.44427  0.27846  1.0000
  C   C9        1.0  0.41373  0.43169  0.71882  1.0000
  C   C10       1.0  0.58627  0.56830  0.28118  1.0000
  C   C11       1.0  0.28842  0.69746  0.65002  1.0000
  C   C12       1.0  0.71158  0.30254  0.34997  1.0000
  C   C13       1.0  0.23997  0.73572  0.55019  1.0000
  C   C14       1.0  0.76003  0.26428  0.44980  1.0000
  C   C15       1.0  0.24022  0.85924  0.55356  1.0000
  C   C16       1.0  0.75978  0.14075  0.44643  1.0000
  C   C17       1.0  0.32156  0.90578  0.74693  1.0000
  C   C18       1.0  0.67843  0.09422  0.25306  1.0000
  C   C19       1.0  0.33044  0.78622  0.75012  1.0000
  C   C20       1.0  0.66956  0.21377  0.24987  1.0000
  C   C21       1.0  0.24296  0.16962  0.30263  1.0000
  C   C22       1.0  0.75704  0.83038  0.69736  1.0000
  C   C23       1.0  0.23544  0.08821  0.20760  1.0000
  C   C24       1.0  0.76456  0.91179  0.79240  1.0000
  C   C25       1.0  0.16632  0.10084  0.10095  1.0000
  C   C26       1.0  0.83368  0.89916  0.89904  1.0000
  C   C27       1.0  0.10383  0.18990  0.08822  1.0000
  C   C28       1.0  0.89617  0.81010  0.91178  1.0000
  C   C29       1.0  0.11483  0.27406  0.18230  1.0000
  C   C30       1.0  0.88517  0.72594  0.81770  1.0000
  C   C31       1.0  0.18534  0.26287  0.28871  1.0000
  C   C32       1.0  0.81466  0.73713  0.71129  1.0000
  C   C33       1.0  0.05569  0.37383  0.16974  1.0000
  C   C34       1.0  0.94431  0.62617  0.83026  1.0000
  C   C35       1.0  0.91733  0.34392  0.09123  1.0000
  C   C36       1.0  0.08267  0.65608  0.90878  1.0000
  C   C37       1.0  0.85439  0.43425  0.07775  1.0000
  C   C38       1.0  0.14561  0.56575  0.92226  1.0000
  C   C39       1.0  0.93689  0.56299  0.14652  1.0000
  C   C40       1.0  0.06311  0.43701  0.85349  1.0000
  C   C41       1.0  0.07826  0.59311  0.22223  1.0000
  C   C42       1.0  0.92174  0.40689  0.77778  1.0000
  C   C43       1.0  0.13710  0.50159  0.23534  1.0000
  C   C44       1.0  0.86290  0.49841  0.76466  1.0000
  C   C45       1.0  0.31545  0.16829  0.42171  1.0000
  C   C46       1.0  0.68455  0.83172  0.57828  1.0000
  C   C47       1.0  0.29415  0.98686  0.21709  1.0000
  C   C48       1.0  0.70585  0.01314  0.78291  1.0000
  C   C49       1.0  0.70137  0.37973  0.99099  1.0000
  C   C50       1.0  0.29863  0.62027  0.00902  1.0000
  C   C51       1.0  0.89294  0.67645  0.15236  1.0000
  C   C52       1.0  0.10707  0.32355  0.84765  1.0000
  N   N1        1.0  0.29971  0.32130  0.65080  1.0000
  N   N2        1.0  0.70030  0.67870  0.34919  1.0000
  N   N3        1.0  0.27975  0.94357  0.65047  1.0000
  N   N4        1.0  0.72024  0.05643  0.34953  1.0000
  O   O1        1.0  0.22464  0.10089  0.47637  1.0000
  O   O2        1.0  0.77537  0.89911  0.52363  1.0000
  O   O3        1.0  0.45551  0.24152  0.46119  1.0000
  O   O4        1.0  0.54450  0.75848  0.53880  1.0000
  O   O5        1.0  0.34372  0.95991  0.30704  1.0000
  O   O6        1.0  0.65628  0.04009  0.69296  1.0000
  O   O7        1.0  0.28808  0.92936  0.11700  1.0000
  O   O8        1.0  0.71191  0.07064  0.88300  1.0000
  O   O9        1.0  0.64798  0.26679  0.93066  1.0000
  O   O10       1.0  0.35202  0.73322  0.06934  1.0000
  O   O11       1.0  0.62102  0.44565  0.97940  1.0000
  O   O12       1.0  0.37898  0.55435  0.02061  1.0000
  O   O13       1.0  0.75603  0.65729  0.10097  1.0000
  O   O14       1.0  0.24398  0.34271  0.89904  1.0000
  O   O15       1.0  0.99110  0.78643  0.20928  1.0000
  O   O16       1.0  0.00890  0.21358  0.79073  1.0000
  O   O17       1.0  0.52304  0.21209  0.66488  1.0000
  O   O18       1.0  0.47696  0.78791  0.33512  1.0000
  O   O19       1.0  0.34525  0.16900  0.82872  1.0000
  O   O20       1.0  0.65475  0.83100  0.17128  1.0000
  O   O21       1.0  0.06380  0.05798  0.65410  1.0000
  O   O22       1.0  0.93620  0.94202  0.34590  1.0000
