data_image0
_chemical_formula_structural       Zn2H28C26N2O8
_chemical_formula_sum              "Zn2 H28 C26 N2 O8"
_cell_length_a       6.19338
_cell_length_b       12.0687
_cell_length_c       12.2597
_cell_angle_alpha    111.625
_cell_angle_beta     100.462
_cell_angle_gamma    89.4813

_space_group_name_H-M_alt    "P 1"
_space_group_IT_number       1

loop_
  _space_group_symop_operation_xyz
  'x, y, z'

loop_
  _atom_site_type_symbol
  _atom_site_label
  _atom_site_symmetry_multiplicity
  _atom_site_fract_x
  _atom_site_fract_y
  _atom_site_fract_z
  _atom_site_occupancy
  Zn  Zn1       1.0  0.51184  0.59418  0.95789  1.0000
  Zn  Zn2       1.0  0.48814  0.40582  0.04210  1.0000
  H   H1        1.0  0.68473  0.25827  0.65909  1.0000
  H   H2        1.0  0.31527  0.74174  0.34091  1.0000
  H   H3        1.0  0.90135  0.42468  0.67747  1.0000
  H   H4        1.0  0.09864  0.57532  0.32251  1.0000
  H   H5        1.0  0.99118  0.24791  0.52686  1.0000
  H   H6        1.0  0.00883  0.75208  0.47313  1.0000
  H   H7        1.0  0.24057  0.33451  0.60151  1.0000
  H   H8        1.0  0.75942  0.66547  0.39847  1.0000
  H   H9        1.0  0.32936  0.20209  0.71978  1.0000
  H   H10       1.0  0.67065  0.79791  0.28022  1.0000
  H   H11       1.0  0.28411  0.11779  0.56416  1.0000
  H   H12       1.0  0.71588  0.88219  0.43583  1.0000
  H   H13       1.0  0.89694  0.06372  0.56702  1.0000
  H   H14       1.0  0.10304  0.93628  0.43299  1.0000
  H   H15       1.0  0.08369  0.01810  0.66697  1.0000
  H   H16       1.0  0.91631  0.98190  0.33304  1.0000
  H   H17       1.0  0.02110  0.19699  0.83879  1.0000
  H   H18       1.0  0.97888  0.80301  0.16121  1.0000
  H   H19       1.0  0.76648  0.11909  0.75842  1.0000
  H   H20       1.0  0.23352  0.88093  0.24160  1.0000
  H   H21       1.0  0.47740  0.85658  0.06737  1.0000
  H   H22       1.0  0.52261  0.14341  0.93263  1.0000
  H   H23       1.0  0.70239  0.04032  0.10485  1.0000
  H   H24       1.0  0.29763  0.95969  0.89518  1.0000
  H   H25       1.0  0.11659  0.81478  0.87383  1.0000
  H   H26       1.0  0.88340  0.18522  0.12616  1.0000
  H   H27       1.0  0.87742  0.64280  0.84944  1.0000
  H   H28       1.0  0.12257  0.35720  0.15056  1.0000
  C   C1        1.0  0.71563  0.36356  0.84112  1.0000
  C   C2        1.0  0.28437  0.63645  0.15888  1.0000
  C   C3        1.0  0.82120  0.28556  0.73769  1.0000
  C   C4        1.0  0.17881  0.71445  0.26231  1.0000
  C   C5        1.0  0.99007  0.36059  0.71032  1.0000
  C   C6        1.0  0.00994  0.63941  0.28966  1.0000
  C   C7        1.0  0.11035  0.28018  0.61232  1.0000
  C   C8        1.0  0.88964  0.71981  0.38767  1.0000
  C   C9        1.0  0.20286  0.17209  0.63740  1.0000
  C   C10       1.0  0.79713  0.82790  0.36259  1.0000
  C   C11       1.0  0.01900  0.09747  0.65134  1.0000
  C   C12       1.0  0.98099  0.90253  0.34866  1.0000
  C   C13       1.0  0.90585  0.17153  0.75316  1.0000
  C   C14       1.0  0.09413  0.82848  0.24684  1.0000
  C   C15       1.0  0.15972  0.43420  0.82026  1.0000
  C   C16       1.0  0.84032  0.56579  0.17973  1.0000
  C   C17       1.0  0.61831  0.85323  0.02445  1.0000
  C   C18       1.0  0.38171  0.14677  0.97556  1.0000
  C   C19       1.0  0.74704  0.95507  0.04526  1.0000
  C   C20       1.0  0.25296  0.04494  0.95474  1.0000
  C   C21       1.0  0.93019  0.94646  0.99030  1.0000
  C   C22       1.0  0.06982  0.05353  0.00970  1.0000
  C   C23       1.0  0.97543  0.83132  0.91789  1.0000
  C   C24       1.0  0.02457  0.16868  0.08211  1.0000
  C   C25       1.0  0.84033  0.73314  0.90193  1.0000
  C   C26       1.0  0.15968  0.26686  0.09808  1.0000
  N   N1        1.0  0.66233  0.74390  0.95296  1.0000
  N   N2        1.0  0.33765  0.25610  0.04703  1.0000
  O   O1        1.0  0.68006  0.46915  0.84614  1.0000
  O   O2        1.0  0.31995  0.53086  0.15386  1.0000
  O   O3        1.0  0.66399  0.31752  0.91188  1.0000
  O   O4        1.0  0.33603  0.68250  0.08812  1.0000
  O   O5        1.0  0.22232  0.38927  0.89851  1.0000
  O   O6        1.0  0.77770  0.61075  0.10146  1.0000
  O   O7        1.0  0.23529  0.53439  0.82460  1.0000
  O   O8        1.0  0.76470  0.46562  0.17538  1.0000
