data_image0
_chemical_formula_structural       Zn2H30C28N2O8
_chemical_formula_sum              "Zn2 H30 C28 N2 O8"
_cell_length_a       6.19815
_cell_length_b       9.03601
_cell_length_c       12.2419
_cell_angle_alpha    81.5071
_cell_angle_beta     80.7562
_cell_angle_gamma    85.6622

_space_group_name_H-M_alt    "P 1"
_space_group_IT_number       1

loop_
  _space_group_symop_operation_xyz
  'x, y, z'

loop_
  _atom_site_type_symbol
  _atom_site_label
  _atom_site_symmetry_multiplicity
  _atom_site_fract_x
  _atom_site_fract_y
  _atom_site_fract_z
  _atom_site_occupancy
  Zn  Zn1       1.0  0.52330  0.86332  0.57342  1.0000
  Zn  Zn2       1.0  0.47669  0.13667  0.42658  1.0000
  H   H1        1.0  0.10234  0.64909  0.37832  1.0000
  H   H2        1.0  0.89765  0.35090  0.62167  1.0000
  H   H3        1.0  0.91330  0.76272  0.23513  1.0000
  H   H4        1.0  0.08670  0.23728  0.76486  1.0000
  H   H5        1.0  0.94690  0.00981  0.13001  1.0000
  H   H6        1.0  0.05310  0.99019  0.86999  1.0000
  H   H7        1.0  0.14076  0.05562  0.20914  1.0000
  H   H8        1.0  0.85924  0.94438  0.79086  1.0000
  H   H9        1.0  0.20860  0.81375  0.05343  1.0000
  H   H10       1.0  0.79140  0.18625  0.94657  1.0000
  H   H11       1.0  0.32845  0.98912  0.02666  1.0000
  H   H12       1.0  0.67154  0.01089  0.97334  1.0000
  H   H13       1.0  0.59548  0.79189  0.10004  1.0000
  H   H14       1.0  0.40452  0.20812  0.89996  1.0000
  H   H15       1.0  0.51556  0.91868  0.19732  1.0000
  H   H16       1.0  0.48444  0.08133  0.80268  1.0000
  H   H17       1.0  0.50241  0.64952  0.29229  1.0000
  H   H18       1.0  0.49759  0.35048  0.70770  1.0000
  H   H19       1.0  0.31864  0.61537  0.20343  1.0000
  H   H20       1.0  0.68137  0.38464  0.79657  1.0000
  H   H21       1.0  0.94130  0.68460  0.61098  1.0000
  H   H22       1.0  0.05870  0.31540  0.38902  1.0000
  H   H23       1.0  0.11419  0.57102  0.77404  1.0000
  H   H24       1.0  0.88582  0.42899  0.22596  1.0000
  H   H25       1.0  0.49678  0.65561  0.98315  1.0000
  H   H26       1.0  0.50323  0.34441  0.01686  1.0000
  H   H27       1.0  0.34868  0.76707  0.80909  1.0000
  H   H28       1.0  0.65132  0.23294  0.19091  1.0000
  H   H29       1.0  0.79398  0.55537  0.07436  1.0000
  H   H30       1.0  0.20603  0.44464  0.92565  1.0000
  C   C1        1.0  0.26247  0.83137  0.41376  1.0000
  C   C2        1.0  0.73753  0.16860  0.58624  1.0000
  C   C3        1.0  0.17520  0.75039  0.33038  1.0000
  C   C4        1.0  0.82480  0.24961  0.66962  1.0000
  C   C5        1.0  0.99770  0.84403  0.27063  1.0000
  C   C6        1.0  0.00230  0.15596  0.72937  1.0000
  C   C7        1.0  0.08319  0.96341  0.17424  1.0000
  C   C8        1.0  0.91681  0.03658  0.82576  1.0000
  C   C9        1.0  0.26997  0.90034  0.09405  1.0000
  C   C10       1.0  0.73003  0.09966  0.90595  1.0000
  C   C11       1.0  0.45505  0.83176  0.15750  1.0000
  C   C12       1.0  0.54495  0.16825  0.84250  1.0000
  C   C13       1.0  0.37211  0.70238  0.24588  1.0000
  C   C14       1.0  0.62789  0.29762  0.75412  1.0000
  C   C15       1.0  0.82088  0.90741  0.35605  1.0000
  C   C16       1.0  0.17910  0.09259  0.64394  1.0000
  C   C17       1.0  0.84701  0.67247  0.69479  1.0000
  C   C18       1.0  0.15299  0.32753  0.30521  1.0000
  C   C19       1.0  0.94266  0.60999  0.78722  1.0000
  C   C20       1.0  0.05735  0.39001  0.21279  1.0000
  C   C21       1.0  0.81888  0.60138  0.89472  1.0000
  C   C22       1.0  0.18113  0.39863  0.10528  1.0000
  C   C23       1.0  0.60000  0.65782  0.90220  1.0000
  C   C24       1.0  0.40000  0.34218  0.09780  1.0000
  C   C25       1.0  0.51544  0.71804  0.80615  1.0000
  C   C26       1.0  0.48457  0.28196  0.19386  1.0000
  C   C27       1.0  0.90276  0.53829  0.99709  1.0000
  C   C28       1.0  0.09726  0.46173  0.00292  1.0000
  N   N1        1.0  0.63610  0.72488  0.70398  1.0000
  N   N2        1.0  0.36389  0.27511  0.29603  1.0000
  O   O1        1.0  0.31858  0.75172  0.50089  1.0000
  O   O2        1.0  0.68142  0.24827  0.49910  1.0000
  O   O3        1.0  0.28515  0.97129  0.38786  1.0000
  O   O4        1.0  0.71484  0.02870  0.61214  1.0000
  O   O5        1.0  0.73663  0.03813  0.32998  1.0000
  O   O6        1.0  0.26335  0.96186  0.67001  1.0000
  O   O7        1.0  0.76721  0.82102  0.44679  1.0000
  O   O8        1.0  0.23279  0.17898  0.55321  1.0000
