data_image0
_chemical_formula_structural       P2H32Pb4C32N2O22
_chemical_formula_sum              "P2 H32 Pb4 C32 N2 O22"
_cell_length_a       6.73278
_cell_length_b       9.27711
_cell_length_c       16.7196
_cell_angle_alpha    102.118
_cell_angle_beta     91.8113
_cell_angle_gamma    98.6763

_space_group_name_H-M_alt    "P 1"
_space_group_IT_number       1

loop_
  _space_group_symop_operation_xyz
  'x, y, z'

loop_
  _atom_site_type_symbol
  _atom_site_label
  _atom_site_symmetry_multiplicity
  _atom_site_fract_x
  _atom_site_fract_y
  _atom_site_fract_z
  _atom_site_occupancy
  P   P1        1.0  0.80939  0.21241  0.07863  1.0000
  P   P2        1.0  0.19059  0.78763  0.92139  1.0000
  H   H1        1.0  0.25361  0.79056  0.50967  1.0000
  H   H2        1.0  0.74639  0.20943  0.49034  1.0000
  H   H3        1.0  0.11341  0.39360  0.19074  1.0000
  H   H4        1.0  0.88661  0.60641  0.80925  1.0000
  H   H5        1.0  0.90651  0.45549  0.04654  1.0000
  H   H6        1.0  0.09354  0.54449  0.95344  1.0000
  H   H7        1.0  0.09836  0.34266  0.02657  1.0000
  H   H8        1.0  0.90166  0.65730  0.97342  1.0000
  H   H9        1.0  0.29989  0.60301  0.09028  1.0000
  H   H10       1.0  0.70013  0.39701  0.90972  1.0000
  H   H11       1.0  0.38770  0.43745  0.10636  1.0000
  H   H12       1.0  0.61235  0.56258  0.89363  1.0000
  H   H13       1.0  0.57584  0.66935  0.19888  1.0000
  H   H14       1.0  0.42419  0.33066  0.80113  1.0000
  H   H15       1.0  0.45079  0.54477  0.25504  1.0000
  H   H16       1.0  0.54926  0.45522  0.74494  1.0000
  H   H17       1.0  0.39732  0.79957  0.31520  1.0000
  H   H18       1.0  0.60271  0.20042  0.68480  1.0000
  H   H19       1.0  0.01295  0.76492  0.29575  1.0000
  H   H20       1.0  0.98709  0.23508  0.70425  1.0000
  H   H21       1.0  0.10596  0.60717  0.31637  1.0000
  H   H22       1.0  0.89406  0.39280  0.68362  1.0000
  H   H23       1.0  0.84239  0.52247  0.20526  1.0000
  H   H24       1.0  0.15765  0.47753  0.79475  1.0000
  H   H25       1.0  0.96238  0.65425  0.14950  1.0000
  H   H26       1.0  0.03763  0.34574  0.85051  1.0000
  H   H27       1.0  0.22764  0.49948  0.42307  1.0000
  H   H28       1.0  0.77234  0.50048  0.57694  1.0000
  H   H29       1.0  0.28102  0.28041  0.62308  1.0000
  H   H30       1.0  0.71892  0.71961  0.37693  1.0000
  H   H31       1.0  0.26124  0.02869  0.37454  1.0000
  H   H32       1.0  0.73872  0.97127  0.62547  1.0000
  Pb  Pb1       1.0  0.72330  0.17653  0.27506  1.0000
  Pb  Pb2       1.0  0.27675  0.82351  0.72494  1.0000
  Pb  Pb3       1.0  0.28650  0.06280  0.09521  1.0000
  Pb  Pb4       1.0  0.71347  0.93725  0.90478  1.0000
  C   C1        1.0  0.98924  0.37931  0.07088  1.0000
  C   C2        1.0  0.01079  0.62066  0.92912  1.0000
  C   C3        1.0  0.31301  0.53141  0.13444  1.0000
  C   C4        1.0  0.68703  0.46861  0.86556  1.0000
  C   C5        1.0  0.42701  0.61966  0.21386  1.0000
  C   C6        1.0  0.57303  0.38035  0.78612  1.0000
  C   C7        1.0  0.31444  0.74418  0.25620  1.0000
  C   C8        1.0  0.68558  0.25584  0.74379  1.0000
  C   C9        1.0  0.10038  0.67674  0.27093  1.0000
  C   C10       1.0  0.89965  0.32325  0.72907  1.0000
  C   C11       1.0  0.98650  0.58320  0.19263  1.0000
  C   C12       1.0  0.01353  0.41680  0.80737  1.0000
  C   C13       1.0  0.32100  0.86310  0.20472  1.0000
  C   C14       1.0  0.67899  0.13691  0.79527  1.0000
  C   C15       1.0  0.24610  0.26407  0.38966  1.0000
  C   C16       1.0  0.75383  0.73590  0.61034  1.0000
  C   C17       1.0  0.24120  0.39878  0.44520  1.0000
  C   C18       1.0  0.75872  0.60116  0.55480  1.0000
  C   C19       1.0  0.25939  0.40628  0.52945  1.0000
  C   C20       1.0  0.74059  0.59371  0.47055  1.0000
  C   C21       1.0  0.27043  0.27614  0.55756  1.0000
  C   C22       1.0  0.72952  0.72385  0.44245  1.0000
  C   C23       1.0  0.26616  0.13949  0.50231  1.0000
  C   C24       1.0  0.73379  0.86049  0.49769  1.0000
  C   C25       1.0  0.25928  0.13394  0.41788  1.0000
  C   C26       1.0  0.74071  0.86603  0.58212  1.0000
  C   C27       1.0  0.23598  0.26165  0.29997  1.0000
  C   C28       1.0  0.76399  0.73833  0.70003  1.0000
  C   C29       1.0  0.26763  0.55210  0.58954  1.0000
  C   C30       1.0  0.73237  0.44789  0.41047  1.0000
  C   C31       1.0  0.27108  0.00484  0.53703  1.0000
  C   C32       1.0  0.72888  0.99514  0.46297  1.0000
  N   N1        1.0  0.10232  0.46563  0.14916  1.0000
  N   N2        1.0  0.89773  0.53439  0.85085  1.0000
  O   O1        1.0  0.67785  0.26312  0.14972  1.0000
  O   O2        1.0  0.32209  0.73691  0.85028  1.0000
  O   O3        1.0  0.93118  0.09314  0.09413  1.0000
  O   O4        1.0  0.06879  0.90692  0.90592  1.0000
  O   O5        1.0  0.68857  0.17200  0.99527  1.0000
  O   O6        1.0  0.31145  0.82801  0.00474  1.0000
  O   O7        1.0  0.15525  0.89745  0.18095  1.0000
  O   O8        1.0  0.84475  0.10258  0.81905  1.0000
  O   O9        1.0  0.49155  0.92184  0.18569  1.0000
  O   O10       1.0  0.50841  0.07819  0.81429  1.0000
  O   O11       1.0  0.09855  0.32254  0.27244  1.0000
  O   O12       1.0  0.90145  0.67746  0.72755  1.0000
  O   O13       1.0  0.36168  0.19945  0.25542  1.0000
  O   O14       1.0  0.63829  0.80055  0.74458  1.0000
  O   O15       1.0  0.24847  0.66921  0.56337  1.0000
  O   O16       1.0  0.75153  0.33078  0.43663  1.0000
  O   O17       1.0  0.29428  0.55365  0.66552  1.0000
  O   O18       1.0  0.70570  0.44634  0.33449  1.0000
  O   O19       1.0  0.29104  0.01404  0.61189  1.0000
  O   O20       1.0  0.70897  0.98596  0.38811  1.0000
  O   O21       1.0  0.25225  0.87695  0.48111  1.0000
  O   O22       1.0  0.74774  0.12304  0.51889  1.0000
