data_image0
_chemical_formula_structural       Cu2H28C34S2N6
_chemical_formula_sum              "Cu2 H28 C34 S2 N6"
_cell_length_a       5.82126
_cell_length_b       10.5607
_cell_length_c       12.7522
_cell_angle_alpha    93.9086
_cell_angle_beta     105.862
_cell_angle_gamma    95.0117

_space_group_name_H-M_alt    "P 1"
_space_group_IT_number       1

loop_
  _space_group_symop_operation_xyz
  'x, y, z'

loop_
  _atom_site_type_symbol
  _atom_site_label
  _atom_site_symmetry_multiplicity
  _atom_site_fract_x
  _atom_site_fract_y
  _atom_site_fract_z
  _atom_site_occupancy
  Cu  Cu1       1.0  0.38941  0.62560  0.41324  1.0000
  Cu  Cu2       1.0  0.61057  0.37439  0.58676  1.0000
  H   H1        1.0  0.86579  0.46074  0.30347  1.0000
  H   H2        1.0  0.13416  0.53924  0.69652  1.0000
  H   H3        1.0  0.72366  0.34080  0.19542  1.0000
  H   H4        1.0  0.27628  0.65918  0.80457  1.0000
  H   H5        1.0  0.33816  0.43965  0.16124  1.0000
  H   H6        1.0  0.66181  0.56036  0.83875  1.0000
  H   H7        1.0  0.42998  0.39977  0.29797  1.0000
  H   H8        1.0  0.56996  0.60022  0.70202  1.0000
  H   H9        1.0  0.93427  0.87448  0.23541  1.0000
  H   H10       1.0  0.06576  0.12552  0.76460  1.0000
  H   H11       1.0  0.96230  0.09849  0.31381  1.0000
  H   H12       1.0  0.03775  0.90151  0.68619  1.0000
  H   H13       1.0  0.64827  0.16882  0.39556  1.0000
  H   H14       1.0  0.35179  0.83120  0.60443  1.0000
  H   H15       1.0  0.30033  0.01480  0.39619  1.0000
  H   H16       1.0  0.69973  0.98523  0.60382  1.0000
  H   H17       1.0  0.26433  0.79256  0.31319  1.0000
  H   H18       1.0  0.73571  0.20746  0.68683  1.0000
  H   H19       1.0  0.05096  0.63246  0.04604  1.0000
  H   H20       1.0  0.94903  0.36754  0.95396  1.0000
  H   H21       1.0  0.10180  0.76208  0.89648  1.0000
  H   H22       1.0  0.89820  0.23792  0.10353  1.0000
  H   H23       1.0  0.81299  0.91823  0.82638  1.0000
  H   H24       1.0  0.18700  0.08177  0.17362  1.0000
  H   H25       1.0  0.46994  0.94110  0.90411  1.0000
  H   H26       1.0  0.53004  0.05889  0.09589  1.0000
  H   H27       1.0  0.42482  0.81634  0.05603  1.0000
  H   H28       1.0  0.57516  0.18364  0.94397  1.0000
  C   C1        1.0  0.95441  0.65924  0.49775  1.0000
  C   C2        1.0  0.04558  0.34077  0.50226  1.0000
  C   C3        1.0  0.72255  0.44072  0.22506  1.0000
  C   C4        1.0  0.27741  0.55927  0.77493  1.0000
  C   C5        1.0  0.47882  0.46109  0.23990  1.0000
  C   C6        1.0  0.52115  0.53891  0.76010  1.0000
  C   C7        1.0  0.79460  0.90446  0.27034  1.0000
  C   C8        1.0  0.20544  0.09554  0.72966  1.0000
  C   C9        1.0  0.81041  0.03060  0.31417  1.0000
  C   C10       1.0  0.18964  0.96940  0.68583  1.0000
  C   C11       1.0  0.63376  0.07073  0.36001  1.0000
  C   C12       1.0  0.36629  0.92928  0.63999  1.0000
  C   C13       1.0  0.43837  0.98427  0.36023  1.0000
  C   C14       1.0  0.56168  0.01575  0.63977  1.0000
  C   C15       1.0  0.42095  0.85873  0.31537  1.0000
  C   C16       1.0  0.57908  0.14129  0.68464  1.0000
  C   C17       1.0  0.60036  0.81599  0.27126  1.0000
  C   C18       1.0  0.39967  0.18402  0.72875  1.0000
  C   C19       1.0  0.58587  0.67967  0.23264  1.0000
  C   C20       1.0  0.41413  0.32032  0.76736  1.0000
  C   C21       1.0  0.70278  0.63484  0.14760  1.0000
  C   C22       1.0  0.29721  0.36515  0.85240  1.0000
  C   C23       1.0  0.73727  0.71718  0.06234  1.0000
  C   C24       1.0  0.26272  0.28281  0.93766  1.0000
  C   C25       1.0  0.92796  0.70263  0.01633  1.0000
  C   C26       1.0  0.07203  0.29736  0.98367  1.0000
  C   C27       1.0  0.95488  0.77502  0.93227  1.0000
  C   C28       1.0  0.04511  0.22497  0.06773  1.0000
  C   C29       1.0  0.79219  0.86188  0.89226  1.0000
  C   C30       1.0  0.20779  0.13811  0.10773  1.0000
  C   C31       1.0  0.60036  0.87550  0.93647  1.0000
  C   C32       1.0  0.39962  0.12448  0.06352  1.0000
  C   C33       1.0  0.57444  0.80462  0.02167  1.0000
  C   C34       1.0  0.42554  0.19537  0.97833  1.0000
  S   S1        1.0  0.73518  0.68089  0.55204  1.0000
  S   S2        1.0  0.26482  0.31912  0.44797  1.0000
  N   N1        1.0  0.11671  0.64372  0.46089  1.0000
  N   N2        1.0  0.88329  0.35629  0.53911  1.0000
  N   N3        1.0  0.77785  0.52305  0.14655  1.0000
  N   N4        1.0  0.22211  0.47694  0.85345  1.0000
  N   N5        1.0  0.48085  0.59497  0.27996  1.0000
  N   N6        1.0  0.51915  0.40503  0.72005  1.0000
