data_image0
_chemical_formula_structural       Cu2H28C40N8O8
_chemical_formula_sum              "Cu2 H28 C40 N8 O8"
_cell_length_a       7.23736
_cell_length_b       10.605
_cell_length_c       12.1279
_cell_angle_alpha    90.0007
_cell_angle_beta     97.4756
_cell_angle_gamma    89.9999

_space_group_name_H-M_alt    "P 1"
_space_group_IT_number       1

loop_
  _space_group_symop_operation_xyz
  'x, y, z'

loop_
  _atom_site_type_symbol
  _atom_site_label
  _atom_site_symmetry_multiplicity
  _atom_site_fract_x
  _atom_site_fract_y
  _atom_site_fract_z
  _atom_site_occupancy
  Cu  Cu1       1.0  0.50000  0.50000  0.50000  1.0000
  Cu  Cu2       1.0  0.50000  0.00000  1.00000  1.0000
  H   H1        1.0  0.16838  0.82969  0.99781  1.0000
  H   H2        1.0  0.83160  0.32967  0.50220  1.0000
  H   H3        1.0  0.83162  0.17031  0.00218  1.0000
  H   H4        1.0  0.16838  0.67032  0.49781  1.0000
  H   H5        1.0  0.62052  0.86397  0.23242  1.0000
  H   H6        1.0  0.37950  0.36397  0.26756  1.0000
  H   H7        1.0  0.37948  0.13604  0.76757  1.0000
  H   H8        1.0  0.62050  0.63603  0.73243  1.0000
  H   H9        1.0  0.86385  0.78997  0.07665  1.0000
  H   H10       1.0  0.13615  0.28995  0.42336  1.0000
  H   H11       1.0  0.13616  0.21003  0.92335  1.0000
  H   H12       1.0  0.86383  0.71005  0.57665  1.0000
  H   H13       1.0  0.59124  0.65035  0.04786  1.0000
  H   H14       1.0  0.40876  0.15033  0.45213  1.0000
  H   H15       1.0  0.40876  0.34966  0.95214  1.0000
  H   H16       1.0  0.59123  0.84967  0.54788  1.0000
  H   H17       1.0  0.62167  0.42150  0.09362  1.0000
  H   H18       1.0  0.37833  0.92148  0.40638  1.0000
  H   H19       1.0  0.37832  0.57851  0.90638  1.0000
  H   H20       1.0  0.62168  0.07853  0.59363  1.0000
  H   H21       1.0  0.93667  0.33161  0.15951  1.0000
  H   H22       1.0  0.06332  0.83159  0.34050  1.0000
  H   H23       1.0  0.06333  0.66840  0.84049  1.0000
  H   H24       1.0  0.93669  0.16841  0.65950  1.0000
  H   H25       1.0  0.21255  0.47137  0.18141  1.0000
  H   H26       1.0  0.78744  0.97135  0.31860  1.0000
  H   H27       1.0  0.78744  0.52863  0.81859  1.0000
  H   H28       1.0  0.21256  0.02864  0.68140  1.0000
  C   C1        1.0  0.44331  0.65947  0.33359  1.0000
  C   C2        1.0  0.55672  0.15947  0.16640  1.0000
  C   C3        1.0  0.55670  0.34053  0.66640  1.0000
  C   C4        1.0  0.44327  0.84053  0.83360  1.0000
  C   C5        1.0  0.38057  0.72939  0.22947  1.0000
  C   C6        1.0  0.61945  0.22938  0.27053  1.0000
  C   C7        1.0  0.61944  0.27061  0.77053  1.0000
  C   C8        1.0  0.38055  0.77062  0.72947  1.0000
  C   C9        1.0  0.22183  0.72129  0.14873  1.0000
  C   C10       1.0  0.77818  0.22129  0.35127  1.0000
  C   C11       1.0  0.77818  0.27870  0.85127  1.0000
  C   C12       1.0  0.22181  0.77871  0.64872  1.0000
  C   C13       1.0  0.48737  0.82894  0.19400  1.0000
  C   C14       1.0  0.51264  0.32893  0.30599  1.0000
  C   C15       1.0  0.51263  0.17106  0.80599  1.0000
  C   C16       1.0  0.48735  0.67106  0.69400  1.0000
  C   C17       1.0  0.05713  0.64008  0.13473  1.0000
  C   C18       1.0  0.94287  0.14006  0.36527  1.0000
  C   C19       1.0  0.94288  0.35993  0.86526  1.0000
  C   C20       1.0  0.05712  0.85993  0.63473  1.0000
  C   C21       1.0  0.88103  0.68965  0.09518  1.0000
  C   C22       1.0  0.11898  0.18963  0.40483  1.0000
  C   C23       1.0  0.11898  0.31035  0.90482  1.0000
  C   C24       1.0  0.88101  0.81036  0.59519  1.0000
  C   C25       1.0  0.72607  0.61054  0.07970  1.0000
  C   C26       1.0  0.27394  0.11052  0.42030  1.0000
  C   C27       1.0  0.27393  0.38947  0.92030  1.0000
  C   C28       1.0  0.72606  0.88948  0.57971  1.0000
  C   C29       1.0  0.74399  0.48234  0.10439  1.0000
  C   C30       1.0  0.25600  0.98232  0.39561  1.0000
  C   C31       1.0  0.25601  0.51766  0.89561  1.0000
  C   C32       1.0  0.74399  0.01768  0.60440  1.0000
  C   C33       1.0  0.91956  0.43210  0.14194  1.0000
  C   C34       1.0  0.08044  0.93208  0.35807  1.0000
  C   C35       1.0  0.08044  0.56790  0.85807  1.0000
  C   C36       1.0  0.91956  0.06791  0.64193  1.0000
  C   C37       1.0  0.07495  0.51027  0.15619  1.0000
  C   C38       1.0  0.92505  0.01026  0.34382  1.0000
  C   C39       1.0  0.92505  0.48973  0.84381  1.0000
  C   C40       1.0  0.07495  0.98974  0.65619  1.0000
  N   N1        1.0  0.24400  0.81322  0.07331  1.0000
  N   N2        1.0  0.75600  0.31321  0.42670  1.0000
  N   N3        1.0  0.75601  0.18678  0.92669  1.0000
  N   N4        1.0  0.24399  0.68679  0.57330  1.0000
  N   N5        1.0  0.40439  0.87861  0.09955  1.0000
  N   N6        1.0  0.59560  0.37860  0.40044  1.0000
  N   N7        1.0  0.59561  0.12140  0.90044  1.0000
  N   N8        1.0  0.40439  0.62140  0.59955  1.0000
  O   O1        1.0  0.60256  0.68252  0.38340  1.0000
  O   O2        1.0  0.39746  0.18251  0.11660  1.0000
  O   O3        1.0  0.39745  0.31748  0.61660  1.0000
  O   O4        1.0  0.60253  0.81748  0.88340  1.0000
  O   O5        1.0  0.33021  0.57748  0.36922  1.0000
  O   O6        1.0  0.66982  0.07748  0.13077  1.0000
  O   O7        1.0  0.66980  0.42252  0.63077  1.0000
  O   O8        1.0  0.33017  0.92252  0.86923  1.0000
