data_image0
_chemical_formula_structural       NiH18C20N4O6
_chemical_formula_sum              "Ni1 H18 C20 N4 O6"
_cell_length_a       6.6344
_cell_length_b       7.03594
_cell_length_c       10.2806
_cell_angle_alpha    78.0399
_cell_angle_beta     80.6775
_cell_angle_gamma    72.0514

_space_group_name_H-M_alt    "P 1"
_space_group_IT_number       1

loop_
  _space_group_symop_operation_xyz
  'x, y, z'

loop_
  _atom_site_type_symbol
  _atom_site_label
  _atom_site_symmetry_multiplicity
  _atom_site_fract_x
  _atom_site_fract_y
  _atom_site_fract_z
  _atom_site_occupancy
  Ni  Ni1       1.0  0.49999  0.00000  0.50000  1.0000
  H   H1        1.0  0.80286  0.97939  0.30266  1.0000
  H   H2        1.0  0.19715  0.02061  0.69735  1.0000
  H   H3        1.0  0.62051  0.89702  0.27223  1.0000
  H   H4        1.0  0.37948  0.10299  0.72778  1.0000
  H   H5        1.0  0.11195  0.17220  0.32257  1.0000
  H   H6        1.0  0.88805  0.82780  0.67743  1.0000
  H   H7        1.0  0.39404  0.43660  0.53247  1.0000
  H   H8        1.0  0.60596  0.56339  0.46753  1.0000
  H   H9        1.0  0.10535  0.77627  0.08167  1.0000
  H   H10       1.0  0.89465  0.22373  0.91833  1.0000
  H   H11       1.0  0.85171  0.91556  0.90982  1.0000
  H   H12       1.0  0.14829  0.08444  0.09019  1.0000
  H   H13       1.0  0.52727  0.79947  0.93175  1.0000
  H   H14       1.0  0.47273  0.20053  0.06825  1.0000
  H   H15       1.0  0.46477  0.53481  0.12434  1.0000
  H   H16       1.0  0.53523  0.46519  0.87565  1.0000
  H   H17       1.0  0.72191  0.39023  0.29312  1.0000
  H   H18       1.0  0.27808  0.60979  0.70689  1.0000
  C   C1        1.0  0.29692  0.43221  0.45926  1.0000
  C   C2        1.0  0.70309  0.56778  0.54074  1.0000
  C   C3        1.0  0.17417  0.59207  0.37273  1.0000
  C   C4        1.0  0.82583  0.40793  0.62727  1.0000
  C   C5        1.0  0.08014  0.49587  0.30120  1.0000
  C   C6        1.0  0.91985  0.50413  0.69880  1.0000
  C   C7        1.0  0.82903  0.19518  0.62782  1.0000
  C   C8        1.0  0.17097  0.80481  0.37218  1.0000
  C   C9        1.0  0.92964  0.57644  0.19979  1.0000
  C   C10       1.0  0.07036  0.42356  0.80021  1.0000
  C   C11       1.0  0.96407  0.72483  0.09100  1.0000
  C   C12       1.0  0.03593  0.27517  0.90900  1.0000
  C   C13       1.0  0.82054  0.80363  0.99511  1.0000
  C   C14       1.0  0.17946  0.19637  0.00489  1.0000
  C   C15       1.0  0.63954  0.73683  0.00697  1.0000
  C   C16       1.0  0.36046  0.26317  0.99303  1.0000
  C   C17       1.0  0.60478  0.58851  0.11446  1.0000
  C   C18       1.0  0.39522  0.41149  0.88554  1.0000
  C   C19       1.0  0.74947  0.50695  0.20997  1.0000
  C   C20       1.0  0.25053  0.49306  0.79002  1.0000
  N   N1        1.0  0.28622  0.25381  0.44131  1.0000
  N   N2        1.0  0.71378  0.74619  0.55869  1.0000
  N   N3        1.0  0.15323  0.29334  0.34578  1.0000
  N   N4        1.0  0.84676  0.70666  0.65422  1.0000
  O   O1        1.0  0.69698  0.17890  0.55741  1.0000
  O   O2        1.0  0.30304  0.82109  0.44258  1.0000
  O   O3        1.0  0.95358  0.04347  0.69635  1.0000
  O   O4        1.0  0.04643  0.95654  0.30366  1.0000
  O   O5        1.0  0.64160  0.00981  0.30467  1.0000
  O   O6        1.0  0.35840  0.99019  0.69534  1.0000
