data_image0
_chemical_formula_structural       Cu2H14C24N12O4
_chemical_formula_sum              "Cu2 H14 C24 N12 O4"
_cell_length_a       5.3002
_cell_length_b       8.4086
_cell_length_c       15.5151
_cell_angle_alpha    89.9996
_cell_angle_beta     89.9998
_cell_angle_gamma    105.219

_space_group_name_H-M_alt    "P 1"
_space_group_IT_number       1

loop_
  _space_group_symop_operation_xyz
  'x, y, z'

loop_
  _atom_site_type_symbol
  _atom_site_label
  _atom_site_symmetry_multiplicity
  _atom_site_fract_x
  _atom_site_fract_y
  _atom_site_fract_z
  _atom_site_occupancy
  Cu  Cu1       1.0  0.61977  0.92421  0.42235  1.0000
  Cu  Cu2       1.0  0.38024  0.07579  0.92234  1.0000
  H   H1        1.0  0.51457  0.24767  0.50648  1.0000
  H   H2        1.0  0.48543  0.75234  0.00648  1.0000
  H   H3        1.0  0.36852  0.41617  0.49619  1.0000
  H   H4        1.0  0.63147  0.58383  0.99619  1.0000
  H   H5        1.0  0.48633  0.33158  0.40233  1.0000
  H   H6        1.0  0.51367  0.66843  0.90233  1.0000
  H   H7        1.0  0.04818  0.54675  0.27288  1.0000
  H   H8        1.0  0.95181  0.45325  0.77288  1.0000
  H   H9        1.0  0.98402  0.42608  0.36881  1.0000
  H   H10       1.0  0.01597  0.57392  0.86881  1.0000
  H   H11       1.0  0.25659  0.60624  0.36503  1.0000
  H   H12       1.0  0.74340  0.39375  0.86503  1.0000
  H   H13       1.0  0.48274  0.59193  0.15813  1.0000
  H   H14       1.0  0.51725  0.40807  0.65813  1.0000
  C   C1        1.0  0.13191  0.43580  0.09994  1.0000
  C   C2        1.0  0.86809  0.56419  0.59994  1.0000
  C   C3        1.0  0.00926  0.25884  0.11303  1.0000
  C   C4        1.0  0.99074  0.74115  0.61303  1.0000
  C   C5        1.0  0.15405  0.19782  0.17384  1.0000
  C   C6        1.0  0.84595  0.80217  0.67384  1.0000
  C   C7        1.0  0.37776  0.34199  0.20053  1.0000
  C   C8        1.0  0.62224  0.65800  0.70053  1.0000
  C   C9        1.0  0.78893  0.18065  0.06586  1.0000
  C   C10       1.0  0.21107  0.81935  0.56586  1.0000
  C   C11       1.0  0.91378  0.90527  0.18556  1.0000
  C   C12       1.0  0.08622  0.09473  0.68555  1.0000
  C   C13       1.0  0.12303  0.04058  0.20929  1.0000
  C   C14       1.0  0.87697  0.95942  0.70929  1.0000
  C   C15       1.0  0.29335  0.00688  0.27222  1.0000
  C   C16       1.0  0.70664  0.99312  0.77222  1.0000
  C   C17       1.0  0.13794  0.19068  0.45414  1.0000
  C   C18       1.0  0.86207  0.80933  0.95414  1.0000
  C   C19       1.0  0.39190  0.30320  0.46555  1.0000
  C   C20       1.0  0.60810  0.69681  0.96556  1.0000
  C   C21       1.0  0.88926  0.65109  0.37325  1.0000
  C   C22       1.0  0.11074  0.34891  0.87325  1.0000
  C   C23       1.0  0.05494  0.55163  0.34349  1.0000
  C   C24       1.0  0.94506  0.44837  0.84349  1.0000
  N   N1        1.0  0.35236  0.47627  0.15406  1.0000
  N   N2        1.0  0.64763  0.52373  0.65406  1.0000
  N   N3        1.0  0.60625  0.12816  0.02184  1.0000
  N   N4        1.0  0.39377  0.87184  0.52184  1.0000
  N   N5        1.0  0.74162  0.79139  0.16756  1.0000
  N   N6        1.0  0.25838  0.20861  0.66755  1.0000
  N   N7        1.0  0.42155  0.96829  0.32567  1.0000
  N   N8        1.0  0.57846  0.03171  0.82567  1.0000
  N   N9        1.0  0.93280  0.10069  0.44321  1.0000
  N   N10       1.0  0.06721  0.89932  0.94322  1.0000
  N   N11       1.0  0.75843  0.73454  0.39592  1.0000
  N   N12       1.0  0.24158  0.26546  0.89592  1.0000
  O   O1        1.0  0.06274  0.53365  0.05247  1.0000
  O   O2        1.0  0.93726  0.46635  0.55247  1.0000
  O   O3        1.0  0.54819  0.34076  0.25414  1.0000
  O   O4        1.0  0.45180  0.65924  0.75413  1.0000
