data_image0
_chemical_formula_structural       Sn2H28C20N2Cl2O4
_chemical_formula_sum              "Sn2 H28 C20 N2 Cl2 O4"
_cell_length_a       6.47222
_cell_length_b       9.79987
_cell_length_c       11.0615
_cell_angle_alpha    67.4008
_cell_angle_beta     75.8947
_cell_angle_gamma    73.9876

_space_group_name_H-M_alt    "P 1"
_space_group_IT_number       1

loop_
  _space_group_symop_operation_xyz
  'x, y, z'

loop_
  _atom_site_type_symbol
  _atom_site_label
  _atom_site_symmetry_multiplicity
  _atom_site_fract_x
  _atom_site_fract_y
  _atom_site_fract_z
  _atom_site_occupancy
  Sn  Sn1       1.0  0.94542  0.88952  0.37114  1.0000
  Sn  Sn2       1.0  0.47812  0.35640  0.51478  1.0000
  H   H1        1.0  0.40992  0.40919  0.23597  1.0000
  H   H2        1.0  0.63407  0.38392  0.11309  1.0000
  H   H3        1.0  0.09960  0.49489  0.13457  1.0000
  H   H4        1.0  0.57144  0.11598  0.06276  1.0000
  H   H5        1.0  0.31607  0.09876  0.93218  1.0000
  H   H6        1.0  0.00768  0.61364  0.79097  1.0000
  H   H7        1.0  0.99484  0.79734  0.67224  1.0000
  H   H8        1.0  0.07500  0.94873  0.76946  1.0000
  H   H9        1.0  0.47597  0.50449  0.82299  1.0000
  H   H10       1.0  0.70670  0.56706  0.93969  1.0000
  H   H11       1.0  0.19346  0.70234  0.23950  1.0000
  H   H12       1.0  0.10739  0.88440  0.12160  1.0000
  H   H13       1.0  0.92315  0.75800  0.20032  1.0000
  H   H14       1.0  0.72879  0.69692  0.58163  1.0000
  H   H15       1.0  0.54633  0.82123  0.46881  1.0000
  H   H16       1.0  0.61842  0.88680  0.57944  1.0000
  H   H17       1.0  0.14635  0.00006  0.49209  1.0000
  H   H18       1.0  0.06382  0.14622  0.34469  1.0000
  H   H19       1.0  0.30230  0.00304  0.33441  1.0000
  H   H20       1.0  0.65907  0.21965  0.74053  1.0000
  H   H21       1.0  0.80612  0.13437  0.61847  1.0000
  H   H22       1.0  0.55181  0.08748  0.71187  1.0000
  H   H23       1.0  0.04483  0.36401  0.58815  1.0000
  H   H24       1.0  0.15750  0.24288  0.49105  1.0000
  H   H25       1.0  0.10233  0.44363  0.41207  1.0000
  H   H26       1.0  0.78981  0.46176  0.30936  1.0000
  H   H27       1.0  0.71135  0.57735  0.41155  1.0000
  H   H28       1.0  0.54360  0.60277  0.29548  1.0000
  C   C1        1.0  0.62227  0.19050  0.28100  1.0000
  C   C2        1.0  0.50258  0.33040  0.18424  1.0000
  C   C3        1.0  0.15478  0.40478  0.09167  1.0000
  C   C4        1.0  0.35716  0.30721  0.10941  1.0000
  C   C5        1.0  0.41615  0.19503  0.05091  1.0000
  C   C6        1.0  0.27669  0.18509  0.97828  1.0000
  C   C7        1.0  0.08161  0.29097  0.96616  1.0000
  C   C8        1.0  0.22222  0.61805  0.61280  1.0000
  C   C9        1.0  0.10738  0.69238  0.71656  1.0000
  C   C10       1.0  0.21375  0.86029  0.80542  1.0000
  C   C11       1.0  0.25558  0.72162  0.78613  1.0000
  C   C12       1.0  0.43566  0.61379  0.83615  1.0000
  C   C13       1.0  0.56425  0.64750  0.90053  1.0000
  C   C14       1.0  0.50442  0.78961  0.91373  1.0000
  C   C15       1.0  0.05618  0.79730  0.21379  1.0000
  C   C16       1.0  0.67786  0.81399  0.51872  1.0000
  C   C17       1.0  0.13750  0.02688  0.38752  1.0000
  C   C18       1.0  0.64470  0.17770  0.66509  1.0000
  C   C19       1.0  0.15635  0.35078  0.49950  1.0000
  C   C20       1.0  0.65197  0.51932  0.36385  1.0000
  N   N1        1.0  0.01821  0.39752  0.02105  1.0000
  N   N2        1.0  0.33561  0.89439  0.86830  1.0000
  Cl  Cl1       1.0  0.90648  0.28673  0.87066  1.0000
  Cl  Cl2       1.0  0.66208  0.83454  0.99541  1.0000
  O   O1        1.0  0.62218  0.18578  0.39694  1.0000
  O   O2        1.0  0.73072  0.08329  0.23755  1.0000
  O   O3        1.0  0.35193  0.49039  0.65363  1.0000
  O   O4        1.0  0.18513  0.67770  0.49444  1.0000
