data_image0
_chemical_formula_structural       Cu2H20C12N4O8
_chemical_formula_sum              "Cu2 H20 C12 N4 O8"
_cell_length_a       5.18949
_cell_length_b       8.57978
_cell_length_c       9.18172
_cell_angle_alpha    89.9938
_cell_angle_beta     94.9123
_cell_angle_gamma    89.9999

_space_group_name_H-M_alt    "P 1"
_space_group_IT_number       1

loop_
  _space_group_symop_operation_xyz
  'x, y, z'

loop_
  _atom_site_type_symbol
  _atom_site_label
  _atom_site_symmetry_multiplicity
  _atom_site_fract_x
  _atom_site_fract_y
  _atom_site_fract_z
  _atom_site_occupancy
  Cu  Cu1       1.0  0.01803  0.38039  0.34812  1.0000
  Cu  Cu2       1.0  0.98198  0.88036  0.65189  1.0000
  H   H1        1.0  0.39144  0.90636  0.40554  1.0000
  H   H2        1.0  0.60857  0.40634  0.59447  1.0000
  H   H3        1.0  0.10929  0.10097  0.25980  1.0000
  H   H4        1.0  0.89077  0.60092  0.74021  1.0000
  H   H5        1.0  0.95645  0.21334  0.13065  1.0000
  H   H6        1.0  0.04357  0.71325  0.86936  1.0000
  H   H7        1.0  0.34625  0.22610  0.03401  1.0000
  H   H8        1.0  0.65375  0.72596  0.96598  1.0000
  H   H9        1.0  0.49822  0.15670  0.20096  1.0000
  H   H10       1.0  0.50179  0.65662  0.79902  1.0000
  H   H11       1.0  0.58204  0.63158  0.38534  1.0000
  H   H12       1.0  0.41796  0.13155  0.61465  1.0000
  H   H13       1.0  0.46559  0.74872  0.14534  1.0000
  H   H14       1.0  0.53437  0.24863  0.85465  1.0000
  H   H15       1.0  0.05377  0.87871  0.08205  1.0000
  H   H16       1.0  0.94621  0.37863  0.91792  1.0000
  H   H17       1.0  0.94048  0.83606  0.25608  1.0000
  H   H18       1.0  0.05948  0.33599  0.74391  1.0000
  H   H19       1.0  0.98239  0.68198  0.13179  1.0000
  H   H20       1.0  0.01760  0.18191  0.86822  1.0000
  C   C1        1.0  0.35700  0.24158  0.15304  1.0000
  C   C2        1.0  0.64303  0.74149  0.84695  1.0000
  C   C3        1.0  0.45691  0.40432  0.19381  1.0000
  C   C4        1.0  0.54309  0.90424  0.80619  1.0000
  C   C5        1.0  0.37733  0.63216  0.34109  1.0000
  C   C6        1.0  0.62267  0.13211  0.65891  1.0000
  C   C7        1.0  0.34260  0.77329  0.23419  1.0000
  C   C8        1.0  0.65739  0.27323  0.76581  1.0000
  C   C9        1.0  0.06297  0.79404  0.17209  1.0000
  C   C10       1.0  0.93702  0.29397  0.82791  1.0000
  C   C11       1.0  0.20605  0.65914  0.46588  1.0000
  C   C12       1.0  0.79395  0.15912  0.53412  1.0000
  N   N1        1.0  0.10598  0.20810  0.21057  1.0000
  N   N2        1.0  0.89405  0.70803  0.78943  1.0000
  N   N3        1.0  0.30170  0.48558  0.27337  1.0000
  N   N4        1.0  0.69828  0.98553  0.72662  1.0000
  O   O1        1.0  0.67430  0.44781  0.15600  1.0000
  O   O2        1.0  0.32568  0.94769  0.84402  1.0000
  O   O3        1.0  0.02357  0.56470  0.48613  1.0000
  O   O4        1.0  0.97643  0.06469  0.51387  1.0000
  O   O5        1.0  0.24881  0.78371  0.54078  1.0000
  O   O6        1.0  0.75121  0.28372  0.45923  1.0000
  O   O7        1.0  0.44456  0.91213  0.30493  1.0000
  O   O8        1.0  0.55543  0.41208  0.69507  1.0000
