data_image0
_chemical_formula_structural       Cd8H40C24S8N40O24
_chemical_formula_sum              "Cd8 H40 C24 S8 N40 O24"
_cell_length_a       8.90649
_cell_length_b       10.7202
_cell_length_c       19.908
_cell_angle_alpha    100.901
_cell_angle_beta     90
_cell_angle_gamma    89.9999

_space_group_name_H-M_alt    "P 1"
_space_group_IT_number       1

loop_
  _space_group_symop_operation_xyz
  'x, y, z'

loop_
  _atom_site_type_symbol
  _atom_site_label
  _atom_site_symmetry_multiplicity
  _atom_site_fract_x
  _atom_site_fract_y
  _atom_site_fract_z
  _atom_site_occupancy
  Cd  Cd1       1.0  0.70537  0.13413  0.17700  1.0000
  Cd  Cd2       1.0  0.70537  0.36586  0.82300  1.0000
  Cd  Cd3       1.0  0.29463  0.86586  0.82300  1.0000
  Cd  Cd4       1.0  0.29463  0.63413  0.17700  1.0000
  Cd  Cd5       1.0  0.78811  0.00390  0.34236  1.0000
  Cd  Cd6       1.0  0.78811  0.49609  0.65764  1.0000
  Cd  Cd7       1.0  0.21189  0.99609  0.65764  1.0000
  Cd  Cd8       1.0  0.21189  0.50390  0.34236  1.0000
  H   H1        1.0  0.49766  0.94854  0.07436  1.0000
  H   H2        1.0  0.49767  0.55145  0.92565  1.0000
  H   H3        1.0  0.50233  0.05145  0.92565  1.0000
  H   H4        1.0  0.50234  0.44855  0.07436  1.0000
  H   H5        1.0  0.41906  0.79848  0.06856  1.0000
  H   H6        1.0  0.41906  0.70151  0.93144  1.0000
  H   H7        1.0  0.58094  0.20152  0.93144  1.0000
  H   H8        1.0  0.58094  0.29848  0.06856  1.0000
  H   H9        1.0  0.97901  0.20043  0.44272  1.0000
  H   H10       1.0  0.97901  0.29958  0.55728  1.0000
  H   H11       1.0  0.02099  0.79958  0.55728  1.0000
  H   H12       1.0  0.02099  0.70043  0.44272  1.0000
  H   H13       1.0  0.06144  0.34752  0.44815  1.0000
  H   H14       1.0  0.06144  0.15248  0.55185  1.0000
  H   H15       1.0  0.93856  0.65248  0.55185  1.0000
  H   H16       1.0  0.93857  0.84752  0.44815  1.0000
  H   H17       1.0  0.11597  0.32709  0.08600  1.0000
  H   H18       1.0  0.11596  0.17291  0.91400  1.0000
  H   H19       1.0  0.88403  0.67291  0.91400  1.0000
  H   H20       1.0  0.88403  0.82709  0.08600  1.0000
  H   H21       1.0  0.03877  0.18963  0.11244  1.0000
  H   H22       1.0  0.03877  0.31037  0.88756  1.0000
  H   H23       1.0  0.96123  0.81037  0.88756  1.0000
  H   H24       1.0  0.96123  0.68962  0.11244  1.0000
  H   H25       1.0  0.19957  0.26921  0.15592  1.0000
  H   H26       1.0  0.19957  0.23079  0.84407  1.0000
  H   H27       1.0  0.80043  0.73079  0.84408  1.0000
  H   H28       1.0  0.80043  0.76921  0.15593  1.0000
  H   H29       1.0  0.66784  0.54303  0.34056  1.0000
  H   H30       1.0  0.66784  0.95697  0.65944  1.0000
  H   H31       1.0  0.33215  0.45697  0.65944  1.0000
  H   H32       1.0  0.33215  0.04303  0.34056  1.0000
  H   H33       1.0  0.78692  0.63542  0.29656  1.0000
  H   H34       1.0  0.78692  0.86458  0.70344  1.0000
  H   H35       1.0  0.21307  0.36458  0.70344  1.0000
  H   H36       1.0  0.21307  0.13542  0.29656  1.0000
  H   H37       1.0  0.64024  0.53939  0.25084  1.0000
  H   H38       1.0  0.64024  0.96060  0.74916  1.0000
  H   H39       1.0  0.35975  0.46061  0.74916  1.0000
  H   H40       1.0  0.35976  0.03939  0.25084  1.0000
  C   C1        1.0  0.95905  0.31719  0.25599  1.0000
  C   C2        1.0  0.95905  0.18280  0.74401  1.0000
  C   C3        1.0  0.04095  0.68281  0.74401  1.0000
  C   C4        1.0  0.04095  0.81719  0.25599  1.0000
  C   C5        1.0  0.55341  0.80736  0.25636  1.0000
  C   C6        1.0  0.55341  0.69263  0.74365  1.0000
  C   C7        1.0  0.44658  0.19263  0.74365  1.0000
  C   C8        1.0  0.44659  0.30736  0.25635  1.0000
  C   C9        1.0  0.98522  0.26618  0.35493  1.0000
  C   C10       1.0  0.98522  0.23382  0.64507  1.0000
  C   C11       1.0  0.01478  0.73382  0.64507  1.0000
  C   C12       1.0  0.01478  0.76618  0.35493  1.0000
  C   C13       1.0  0.52318  0.86647  0.15919  1.0000
  C   C14       1.0  0.52318  0.63352  0.84081  1.0000
  C   C15       1.0  0.47682  0.13353  0.84081  1.0000
  C   C16       1.0  0.47683  0.36647  0.15919  1.0000
  C   C17       1.0  0.09402  0.28111  0.12976  1.0000
  C   C18       1.0  0.09402  0.21889  0.87024  1.0000
  C   C19       1.0  0.90598  0.71889  0.87024  1.0000
  C   C20       1.0  0.90598  0.78111  0.12976  1.0000
  C   C21       1.0  0.67303  0.59860  0.29961  1.0000
  C   C22       1.0  0.67303  0.90140  0.70040  1.0000
  C   C23       1.0  0.32696  0.40140  0.70039  1.0000
  C   C24       1.0  0.32697  0.09859  0.29961  1.0000
  S   S1        1.0  0.97200  0.39189  0.18542  1.0000
  S   S2        1.0  0.97199  0.10811  0.81458  1.0000
  S   S3        1.0  0.02800  0.60811  0.81458  1.0000
  S   S4        1.0  0.02801  0.89189  0.18542  1.0000
  S   S5        1.0  0.54083  0.72829  0.32525  1.0000
  S   S6        1.0  0.54083  0.77171  0.67476  1.0000
  S   S7        1.0  0.45916  0.27171  0.67476  1.0000
  S   S8        1.0  0.45917  0.22828  0.32525  1.0000
  N   N1        1.0  0.62891  0.91546  0.25994  1.0000
  N   N2        1.0  0.62891  0.58453  0.74006  1.0000
  N   N3        1.0  0.37109  0.08454  0.74006  1.0000
  N   N4        1.0  0.37109  0.41546  0.25994  1.0000
  N   N5        1.0  0.87316  0.21564  0.25618  1.0000
  N   N6        1.0  0.87316  0.28435  0.74382  1.0000
  N   N7        1.0  0.12684  0.78436  0.74382  1.0000
  N   N8        1.0  0.12684  0.71564  0.25618  1.0000
  N   N9        1.0  0.61050  0.95429  0.19840  1.0000
  N   N10       1.0  0.61051  0.54570  0.80160  1.0000
  N   N11       1.0  0.38949  0.04570  0.80160  1.0000
  N   N12       1.0  0.38950  0.45429  0.19840  1.0000
  N   N13       1.0  0.88973  0.18141  0.31896  1.0000
  N   N14       1.0  0.88973  0.31859  0.68104  1.0000
  N   N15       1.0  0.11027  0.81859  0.68104  1.0000
  N   N16       1.0  0.11027  0.68141  0.31895  1.0000
  N   N17       1.0  0.48370  0.77369  0.19422  1.0000
  N   N18       1.0  0.48371  0.72630  0.80578  1.0000
  N   N19       1.0  0.51629  0.22630  0.80578  1.0000
  N   N20       1.0  0.51630  0.27370  0.19422  1.0000
  N   N21       1.0  0.03147  0.35237  0.31712  1.0000
  N   N22       1.0  0.03147  0.14763  0.68288  1.0000
  N   N23       1.0  0.96853  0.64763  0.68288  1.0000
  N   N24       1.0  0.96853  0.85237  0.31712  1.0000
  N   N25       1.0  0.76080  0.06196  0.03233  1.0000
  N   N26       1.0  0.76079  0.43805  0.96767  1.0000
  N   N27       1.0  0.23920  0.93805  0.96767  1.0000
  N   N28       1.0  0.23920  0.56198  0.03233  1.0000
  N   N29       1.0  0.48528  0.86860  0.09421  1.0000
  N   N30       1.0  0.48530  0.63140  0.90579  1.0000
  N   N31       1.0  0.51471  0.13140  0.90579  1.0000
  N   N32       1.0  0.51472  0.36860  0.09421  1.0000
  N   N33       1.0  0.03681  0.26140  0.41854  1.0000
  N   N34       1.0  0.03681  0.23860  0.58145  1.0000
  N   N35       1.0  0.96319  0.73860  0.58146  1.0000
  N   N36       1.0  0.96319  0.76140  0.41854  1.0000
  N   N37       1.0  0.72221  0.07419  0.48218  1.0000
  N   N38       1.0  0.72221  0.42582  0.51782  1.0000
  N   N39       1.0  0.27780  0.92581  0.51782  1.0000
  N   N40       1.0  0.27780  0.57419  0.48218  1.0000
  O   O1        1.0  0.85068  0.05451  0.08249  1.0000
  O   O2        1.0  0.85068  0.44549  0.91751  1.0000
  O   O3        1.0  0.14932  0.94550  0.91751  1.0000
  O   O4        1.0  0.14932  0.55451  0.08249  1.0000
  O   O5        1.0  0.62907  0.10907  0.04863  1.0000
  O   O6        1.0  0.62907  0.39094  0.95137  1.0000
  O   O7        1.0  0.37093  0.89093  0.95137  1.0000
  O   O8        1.0  0.37093  0.60907  0.04864  1.0000
  O   O9        1.0  0.62153  0.05878  0.43542  1.0000
  O   O10       1.0  0.62153  0.44122  0.56458  1.0000
  O   O11       1.0  0.37847  0.94122  0.56458  1.0000
  O   O12       1.0  0.37847  0.55878  0.43542  1.0000
  O   O13       1.0  0.86088  0.04769  0.46161  1.0000
  O   O14       1.0  0.86088  0.45231  0.53839  1.0000
  O   O15       1.0  0.13912  0.95231  0.53839  1.0000
  O   O16       1.0  0.13912  0.54769  0.46161  1.0000
  O   O17       1.0  0.69368  0.11210  0.54302  1.0000
  O   O18       1.0  0.69368  0.38790  0.45698  1.0000
  O   O19       1.0  0.30633  0.88790  0.45698  1.0000
  O   O20       1.0  0.30633  0.61211  0.54301  1.0000
  O   O21       1.0  0.79915  0.02525  0.97249  1.0000
  O   O22       1.0  0.79914  0.47478  0.02751  1.0000
  O   O23       1.0  0.20086  0.97477  0.02751  1.0000
  O   O24       1.0  0.20084  0.52529  0.97249  1.0000
