data_image0
_chemical_formula_structural       Cd8H40C24S8N32Cl8
_chemical_formula_sum              "Cd8 H40 C24 S8 N32 Cl8"
_cell_length_a       8.64489
_cell_length_b       10.9424
_cell_length_c       17.1947
_cell_angle_alpha    104.938
_cell_angle_beta     90
_cell_angle_gamma    90

_space_group_name_H-M_alt    "P 1"
_space_group_IT_number       1

loop_
  _space_group_symop_operation_xyz
  'x, y, z'

loop_
  _atom_site_type_symbol
  _atom_site_label
  _atom_site_symmetry_multiplicity
  _atom_site_fract_x
  _atom_site_fract_y
  _atom_site_fract_z
  _atom_site_occupancy
  Cd  Cd1       1.0  0.54583  0.16158  0.82948  1.0000
  Cd  Cd2       1.0  0.04583  0.33842  0.17052  1.0000
  Cd  Cd3       1.0  0.45417  0.83842  0.17052  1.0000
  Cd  Cd4       1.0  0.95417  0.66158  0.82948  1.0000
  Cd  Cd5       1.0  0.45619  0.26468  0.62975  1.0000
  Cd  Cd6       1.0  0.95619  0.23533  0.37025  1.0000
  Cd  Cd7       1.0  0.54381  0.73533  0.37025  1.0000
  Cd  Cd8       1.0  0.04381  0.76468  0.62975  1.0000
  H   H1        1.0  0.26472  0.05468  0.51224  1.0000
  H   H2        1.0  0.76472  0.44532  0.48776  1.0000
  H   H3        1.0  0.73528  0.94532  0.48776  1.0000
  H   H4        1.0  0.23528  0.55468  0.51224  1.0000
  H   H5        1.0  0.15912  0.91950  0.51318  1.0000
  H   H6        1.0  0.65912  0.58051  0.48682  1.0000
  H   H7        1.0  0.84088  0.08051  0.48682  1.0000
  H   H8        1.0  0.34088  0.41950  0.51318  1.0000
  H   H9        1.0  0.77629  0.35914  0.94443  1.0000
  H   H10       1.0  0.27629  0.14085  0.05556  1.0000
  H   H11       1.0  0.22371  0.64086  0.05557  1.0000
  H   H12       1.0  0.72371  0.85914  0.94444  1.0000
  H   H13       1.0  0.85432  0.50560  0.94687  1.0000
  H   H14       1.0  0.35432  0.99440  0.05313  1.0000
  H   H15       1.0  0.14569  0.49440  0.05313  1.0000
  H   H16       1.0  0.64568  0.00559  0.94687  1.0000
  H   H17       1.0  0.53751  0.72777  0.65442  1.0000
  H   H18       1.0  0.03751  0.77223  0.34559  1.0000
  H   H19       1.0  0.46250  0.27223  0.34559  1.0000
  H   H20       1.0  0.96250  0.22777  0.65441  1.0000
  H   H21       1.0  0.43922  0.63491  0.71074  1.0000
  H   H22       1.0  0.93922  0.86510  0.28926  1.0000
  H   H23       1.0  0.56078  0.36510  0.28926  1.0000
  H   H24       1.0  0.06078  0.13490  0.71074  1.0000
  H   H25       1.0  0.59859  0.73394  0.75536  1.0000
  H   H26       1.0  0.09859  0.76606  0.24464  1.0000
  H   H27       1.0  0.40141  0.26606  0.24464  1.0000
  H   H28       1.0  0.90142  0.23394  0.75536  1.0000
  H   H29       1.0  0.12900  0.97100  0.93197  1.0000
  H   H30       1.0  0.62900  0.52900  0.06803  1.0000
  H   H31       1.0  0.87100  0.02899  0.06803  1.0000
  H   H32       1.0  0.37100  0.47101  0.93197  1.0000
  H   H33       1.0  0.21794  0.10180  0.90506  1.0000
  H   H34       1.0  0.71794  0.39821  0.09495  1.0000
  H   H35       1.0  0.78206  0.89820  0.09495  1.0000
  H   H36       1.0  0.28205  0.60180  0.90505  1.0000
  H   H37       1.0  0.05121  0.02596  0.85073  1.0000
  H   H38       1.0  0.55121  0.47404  0.14927  1.0000
  H   H39       1.0  0.94879  0.97403  0.14927  1.0000
  H   H40       1.0  0.44879  0.52597  0.85073  1.0000
  C   C1        1.0  0.69174  0.47023  0.73217  1.0000
  C   C2        1.0  0.19174  0.02977  0.26783  1.0000
  C   C3        1.0  0.30826  0.52977  0.26783  1.0000
  C   C4        1.0  0.80826  0.97023  0.73217  1.0000
  C   C5        1.0  0.26517  0.00429  0.61818  1.0000
  C   C6        1.0  0.76517  0.49571  0.38182  1.0000
  C   C7        1.0  0.73483  0.99571  0.38182  1.0000
  C   C8        1.0  0.23483  0.50429  0.61818  1.0000
  C   C9        1.0  0.29561  0.96467  0.73365  1.0000
  C   C10       1.0  0.79561  0.53533  0.26635  1.0000
  C   C11       1.0  0.70439  0.03533  0.26635  1.0000
  C   C12       1.0  0.20439  0.46467  0.73365  1.0000
  C   C13       1.0  0.73250  0.42608  0.84545  1.0000
  C   C14       1.0  0.23249  0.07392  0.15456  1.0000
  C   C15       1.0  0.26751  0.57392  0.15456  1.0000
  C   C16       1.0  0.76750  0.92608  0.84544  1.0000
  C   C17       1.0  0.55110  0.67377  0.69962  1.0000
  C   C18       1.0  0.05110  0.82623  0.30038  1.0000
  C   C19       1.0  0.44890  0.32623  0.30038  1.0000
  C   C20       1.0  0.94890  0.17377  0.69962  1.0000
  C   C21       1.0  0.15745  0.01193  0.88182  1.0000
  C   C22       1.0  0.65745  0.48807  0.11818  1.0000
  C   C23       1.0  0.84255  0.98807  0.11818  1.0000
  C   C24       1.0  0.34254  0.51193  0.88182  1.0000
  S   S1        1.0  0.28175  0.89701  0.81508  1.0000
  S   S2        1.0  0.78175  0.60299  0.18492  1.0000
  S   S3        1.0  0.71825  0.10299  0.18492  1.0000
  S   S4        1.0  0.21825  0.39701  0.81508  1.0000
  S   S5        1.0  0.68543  0.54737  0.65538  1.0000
  S   S6        1.0  0.18543  0.95264  0.34462  1.0000
  S   S7        1.0  0.31457  0.45263  0.34462  1.0000
  S   S8        1.0  0.81457  0.04736  0.65538  1.0000
  N   N1        1.0  0.64762  0.33047  0.79970  1.0000
  N   N2        1.0  0.14762  0.16953  0.20029  1.0000
  N   N3        1.0  0.35238  0.66953  0.20030  1.0000
  N   N4        1.0  0.85238  0.83047  0.79971  1.0000
  N   N5        1.0  0.62206  0.36007  0.72741  1.0000
  N   N6        1.0  0.12206  0.13993  0.27259  1.0000
  N   N7        1.0  0.37794  0.63993  0.27259  1.0000
  N   N8        1.0  0.87794  0.86007  0.72741  1.0000
  N   N9        1.0  0.22162  0.92220  0.66182  1.0000
  N   N10       1.0  0.72162  0.57781  0.33818  1.0000
  N   N11       1.0  0.77837  0.07780  0.33818  1.0000
  N   N12       1.0  0.27838  0.42219  0.66182  1.0000
  N   N13       1.0  0.76358  0.51452  0.80460  1.0000
  N   N14       1.0  0.26358  0.98548  0.19540  1.0000
  N   N15       1.0  0.23642  0.48548  0.19541  1.0000
  N   N16       1.0  0.73642  0.01452  0.80460  1.0000
  N   N17       1.0  0.38119  0.06629  0.73460  1.0000
  N   N18       1.0  0.88118  0.43372  0.26540  1.0000
  N   N19       1.0  0.61881  0.93371  0.26540  1.0000
  N   N20       1.0  0.11881  0.56628  0.73460  1.0000
  N   N21       1.0  0.36191  0.09334  0.66124  1.0000
  N   N22       1.0  0.86191  0.40667  0.33876  1.0000
  N   N23       1.0  0.63808  0.90666  0.33876  1.0000
  N   N24       1.0  0.13809  0.59333  0.66124  1.0000
  N   N25       1.0  0.20964  0.00172  0.54461  1.0000
  N   N26       1.0  0.70964  0.49828  0.45539  1.0000
  N   N27       1.0  0.79036  0.99828  0.45539  1.0000
  N   N28       1.0  0.29036  0.50173  0.54461  1.0000
  N   N29       1.0  0.77652  0.43643  0.92201  1.0000
  N   N30       1.0  0.27652  0.06357  0.07798  1.0000
  N   N31       1.0  0.22348  0.56357  0.07798  1.0000
  N   N32       1.0  0.72348  0.93643  0.92202  1.0000
  Cl  Cl1       1.0  0.45401  0.21019  0.48238  1.0000
  Cl  Cl2       1.0  0.95401  0.28981  0.51762  1.0000
  Cl  Cl3       1.0  0.54599  0.78981  0.51762  1.0000
  Cl  Cl4       1.0  0.04599  0.71019  0.48238  1.0000
  Cl  Cl5       1.0  0.50455  0.20829  0.97467  1.0000
  Cl  Cl6       1.0  0.00455  0.29172  0.02533  1.0000
  Cl  Cl7       1.0  0.49545  0.79171  0.02533  1.0000
  Cl  Cl8       1.0  0.99545  0.70828  0.97467  1.0000
