data_image0
_chemical_formula_structural       Co4H32C40N8O16
_chemical_formula_sum              "Co4 H32 C40 N8 O16"
_cell_length_a       4.86954
_cell_length_b       10.7025
_cell_length_c       19.4232
_cell_angle_alpha    95.1505
_cell_angle_beta     89.9999
_cell_angle_gamma    89.9999

_space_group_name_H-M_alt    "P 1"
_space_group_IT_number       1

loop_
  _space_group_symop_operation_xyz
  'x, y, z'

loop_
  _atom_site_type_symbol
  _atom_site_label
  _atom_site_symmetry_multiplicity
  _atom_site_fract_x
  _atom_site_fract_y
  _atom_site_fract_z
  _atom_site_occupancy
  Co  Co1       1.0  0.36905  0.65241  0.71790  1.0000
  Co  Co2       1.0  0.86906  0.34759  0.78210  1.0000
  Co  Co3       1.0  0.63095  0.34759  0.28210  1.0000
  Co  Co4       1.0  0.13094  0.65241  0.21790  1.0000
  H   H1        1.0  0.74504  0.82643  0.81955  1.0000
  H   H2        1.0  0.24506  0.17357  0.68045  1.0000
  H   H3        1.0  0.25495  0.17357  0.18045  1.0000
  H   H4        1.0  0.75495  0.82643  0.31955  1.0000
  H   H5        1.0  0.01077  0.92376  0.92033  1.0000
  H   H6        1.0  0.51080  0.07624  0.57968  1.0000
  H   H7        1.0  0.98921  0.07625  0.07968  1.0000
  H   H8        1.0  0.48922  0.92376  0.42033  1.0000
  H   H9        1.0  0.54724  0.70523  0.05623  1.0000
  H   H10       1.0  0.04726  0.29476  0.44376  1.0000
  H   H11       1.0  0.45274  0.29476  0.94376  1.0000
  H   H12       1.0  0.95276  0.70524  0.55624  1.0000
  H   H13       1.0  0.91203  0.86317  0.03902  1.0000
  H   H14       1.0  0.41205  0.13683  0.46098  1.0000
  H   H15       1.0  0.08796  0.13683  0.96098  1.0000
  H   H16       1.0  0.58797  0.86317  0.53902  1.0000
  H   H17       1.0  0.07066  0.95662  0.72893  1.0000
  H   H18       1.0  0.57066  0.04339  0.77107  1.0000
  H   H19       1.0  0.92934  0.04339  0.27107  1.0000
  H   H20       1.0  0.42934  0.95661  0.22893  1.0000
  H   H21       1.0  0.85017  0.98532  0.65922  1.0000
  H   H22       1.0  0.35017  0.01469  0.84078  1.0000
  H   H23       1.0  0.14983  0.01469  0.34078  1.0000
  H   H24       1.0  0.64983  0.98532  0.15922  1.0000
  H   H25       1.0  0.17157  0.90480  0.64376  1.0000
  H   H26       1.0  0.67158  0.09520  0.85624  1.0000
  H   H27       1.0  0.82843  0.09520  0.35624  1.0000
  H   H28       1.0  0.32842  0.90480  0.14376  1.0000
  H   H29       1.0  0.80991  0.42720  0.99157  1.0000
  H   H30       1.0  0.30992  0.57280  0.50843  1.0000
  H   H31       1.0  0.19008  0.57280  0.00843  1.0000
  H   H32       1.0  0.69009  0.42720  0.49157  1.0000
  C   C1        1.0  0.49684  0.71268  0.88045  1.0000
  C   C2        1.0  0.99685  0.28732  0.61955  1.0000
  C   C3        1.0  0.50315  0.28732  0.11955  1.0000
  C   C4        1.0  0.00316  0.71268  0.38045  1.0000
  C   C5        1.0  0.44404  0.67923  0.94833  1.0000
  C   C6        1.0  0.94405  0.32076  0.55167  1.0000
  C   C7        1.0  0.55595  0.32076  0.05167  1.0000
  C   C8        1.0  0.05596  0.67923  0.44833  1.0000
  C   C9        1.0  0.10791  0.52848  0.90475  1.0000
  C   C10       1.0  0.60791  0.47151  0.59525  1.0000
  C   C11       1.0  0.89209  0.47151  0.09525  1.0000
  C   C12       1.0  0.39209  0.52848  0.40475  1.0000
  C   C13       1.0  0.17298  0.56606  0.83521  1.0000
  C   C14       1.0  0.67298  0.43395  0.66479  1.0000
  C   C15       1.0  0.82702  0.43395  0.16479  1.0000
  C   C16       1.0  0.32702  0.56605  0.33521  1.0000
  C   C17       1.0  0.85496  0.79417  0.68614  1.0000
  C   C18       1.0  0.35497  0.20583  0.81386  1.0000
  C   C19       1.0  0.14503  0.20584  0.31387  1.0000
  C   C20       1.0  0.64503  0.79417  0.18613  1.0000
  C   C21       1.0  0.70300  0.80190  0.87169  1.0000
  C   C22       1.0  0.20301  0.19810  0.62831  1.0000
  C   C23       1.0  0.29699  0.19810  0.12831  1.0000
  C   C24       1.0  0.79700  0.80190  0.37169  1.0000
  C   C25       1.0  0.84890  0.85619  0.92821  1.0000
  C   C26       1.0  0.34892  0.14381  0.57179  1.0000
  C   C27       1.0  0.15108  0.14381  0.07180  1.0000
  C   C28       1.0  0.65110  0.85619  0.42821  1.0000
  C   C29       1.0  0.59111  0.73457  0.00508  1.0000
  C   C30       1.0  0.09112  0.26543  0.49492  1.0000
  C   C31       1.0  0.40888  0.26543  0.99492  1.0000
  C   C32       1.0  0.90889  0.73457  0.50508  1.0000
  C   C33       1.0  0.79324  0.82271  0.99500  1.0000
  C   C34       1.0  0.29326  0.17729  0.50500  1.0000
  C   C35       1.0  0.20674  0.17729  0.00500  1.0000
  C   C36       1.0  0.70675  0.82271  0.49500  1.0000
  C   C37       1.0  0.99387  0.91770  0.67818  1.0000
  C   C38       1.0  0.49388  0.08230  0.82182  1.0000
  C   C39       1.0  0.00613  0.08230  0.32182  1.0000
  C   C40       1.0  0.50613  0.91770  0.17818  1.0000
  N   N1        1.0  0.35164  0.65657  0.82471  1.0000
  N   N2        1.0  0.85164  0.34344  0.67529  1.0000
  N   N3        1.0  0.64837  0.34343  0.17528  1.0000
  N   N4        1.0  0.14836  0.65657  0.32471  1.0000
  N   N5        1.0  0.24648  0.58921  0.95772  1.0000
  N   N6        1.0  0.74648  0.41078  0.54227  1.0000
  N   N7        1.0  0.75352  0.41078  0.04227  1.0000
  N   N8        1.0  0.25353  0.58921  0.45772  1.0000
  O   O1        1.0  0.04723  0.51012  0.78358  1.0000
  O   O2        1.0  0.54723  0.48989  0.71642  1.0000
  O   O3        1.0  0.95277  0.48988  0.21642  1.0000
  O   O4        1.0  0.45277  0.51011  0.28357  1.0000
  O   O5        1.0  0.92921  0.44511  0.91142  1.0000
  O   O6        1.0  0.42921  0.55488  0.58857  1.0000
  O   O7        1.0  0.07079  0.55488  0.08857  1.0000
  O   O8        1.0  0.57079  0.44511  0.41142  1.0000
  O   O9        1.0  0.59236  0.79452  0.69106  1.0000
  O   O10       1.0  0.09237  0.20548  0.80894  1.0000
  O   O11       1.0  0.40763  0.20548  0.30894  1.0000
  O   O12       1.0  0.90763  0.79452  0.19106  1.0000
  O   O13       1.0  0.99438  0.69415  0.68852  1.0000
  O   O14       1.0  0.49439  0.30585  0.81148  1.0000
  O   O15       1.0  0.00561  0.30585  0.31148  1.0000
  O   O16       1.0  0.50561  0.69415  0.18852  1.0000
