data_image0
_chemical_formula_structural       Cu4H40C24N8O16
_chemical_formula_sum              "Cu4 H40 C24 N8 O16"
_cell_length_a       5.25238
_cell_length_b       8.70943
_cell_length_c       17.9079
_cell_angle_alpha    89.9987
_cell_angle_beta     89.999
_cell_angle_gamma    90.0012

_space_group_name_H-M_alt    "P 1"
_space_group_IT_number       1

loop_
  _space_group_symop_operation_xyz
  'x, y, z'

loop_
  _atom_site_type_symbol
  _atom_site_label
  _atom_site_symmetry_multiplicity
  _atom_site_fract_x
  _atom_site_fract_y
  _atom_site_fract_z
  _atom_site_occupancy
  Cu  Cu1       1.0  0.06773  0.27541  0.67330  1.0000
  Cu  Cu2       1.0  0.43228  0.72460  0.17331  1.0000
  Cu  Cu3       1.0  0.56772  0.22459  0.32669  1.0000
  Cu  Cu4       1.0  0.93227  0.77540  0.82670  1.0000
  H   H1        1.0  0.45741  0.14430  0.51654  1.0000
  H   H2        1.0  0.04264  0.85573  0.01654  1.0000
  H   H3        1.0  0.95736  0.35572  0.48346  1.0000
  H   H4        1.0  0.54260  0.64428  0.98346  1.0000
  H   H5        1.0  0.60414  0.06911  0.59882  1.0000
  H   H6        1.0  0.89590  0.93092  0.09882  1.0000
  H   H7        1.0  0.10411  0.43091  0.40118  1.0000
  H   H8        1.0  0.39586  0.56908  0.90119  1.0000
  H   H9        1.0  0.59738  0.53254  0.70300  1.0000
  H   H10       1.0  0.90263  0.46746  0.20300  1.0000
  H   H11       1.0  0.09737  0.96747  0.29700  1.0000
  H   H12       1.0  0.40263  0.03252  0.79700  1.0000
  H   H13       1.0  0.56586  0.64693  0.58040  1.0000
  H   H14       1.0  0.93417  0.35309  0.08040  1.0000
  H   H15       1.0  0.06582  0.85309  0.41960  1.0000
  H   H16       1.0  0.43413  0.14690  0.91959  1.0000
  H   H17       1.0  0.17888  0.77881  0.53572  1.0000
  H   H18       1.0  0.32116  0.22122  0.03571  1.0000
  H   H19       1.0  0.67885  0.72119  0.46428  1.0000
  H   H20       1.0  0.82111  0.27878  0.96429  1.0000
  H   H21       1.0  0.00458  0.72032  0.61635  1.0000
  H   H22       1.0  0.49544  0.27970  0.11635  1.0000
  H   H23       1.0  0.50456  0.77967  0.38365  1.0000
  H   H24       1.0  0.99542  0.22031  0.88366  1.0000
  H   H25       1.0  0.10568  0.58106  0.55013  1.0000
  H   H26       1.0  0.39434  0.41897  0.05013  1.0000
  H   H27       1.0  0.60564  0.91894  0.44986  1.0000
  H   H28       1.0  0.89429  0.08103  0.94987  1.0000
  H   H29       1.0  0.39550  0.79928  0.70840  1.0000
  H   H30       1.0  0.10451  0.20072  0.20839  1.0000
  H   H31       1.0  0.89551  0.70073  0.29160  1.0000
  H   H32       1.0  0.60451  0.29927  0.79160  1.0000
  H   H33       1.0  0.22386  0.00225  0.63615  1.0000
  H   H34       1.0  0.27619  0.99777  0.13615  1.0000
  H   H35       1.0  0.72383  0.49776  0.36385  1.0000
  H   H36       1.0  0.77614  0.50223  0.86386  1.0000
  H   H37       1.0  0.08109  0.08904  0.56517  1.0000
  H   H38       1.0  0.41896  0.91097  0.06518  1.0000
  H   H39       1.0  0.58104  0.41096  0.43482  1.0000
  H   H40       1.0  0.91891  0.58902  0.93483  1.0000
  C   C1        1.0  0.45988  0.14954  0.57788  1.0000
  C   C2        1.0  0.04015  0.85048  0.07788  1.0000
  C   C3        1.0  0.95985  0.35047  0.42212  1.0000
  C   C4        1.0  0.54012  0.64952  0.92212  1.0000
  C   C5        1.0  0.53646  0.31057  0.60190  1.0000
  C   C6        1.0  0.96357  0.68946  0.10189  1.0000
  C   C7        1.0  0.03642  0.18945  0.39811  1.0000
  C   C8        1.0  0.46355  0.81054  0.89810  1.0000
  C   C9        1.0  0.40933  0.53194  0.67527  1.0000
  C   C10       1.0  0.09068  0.46807  0.17526  1.0000
  C   C11       1.0  0.90931  0.96807  0.32474  1.0000
  C   C12       1.0  0.59068  0.03192  0.82473  1.0000
  C   C13       1.0  0.41018  0.67014  0.61989  1.0000
  C   C14       1.0  0.08983  0.32987  0.11989  1.0000
  C   C15       1.0  0.91017  0.82987  0.38011  1.0000
  C   C16       1.0  0.58980  0.17011  0.88010  1.0000
  C   C17       1.0  0.15963  0.68840  0.57806  1.0000
  C   C18       1.0  0.34039  0.31162  0.07806  1.0000
  C   C19       1.0  0.65961  0.81159  0.42194  1.0000
  C   C20       1.0  0.84035  0.18838  0.92194  1.0000
  C   C21       1.0  0.20316  0.55612  0.73421  1.0000
  C   C22       1.0  0.29684  0.44388  0.23421  1.0000
  C   C23       1.0  0.70316  0.94387  0.26579  1.0000
  C   C24       1.0  0.79684  0.05612  0.76579  1.0000
  N   N1        1.0  0.20792  0.10432  0.60778  1.0000
  N   N2        1.0  0.29212  0.89569  0.10778  1.0000
  N   N3        1.0  0.70789  0.39568  0.39221  1.0000
  N   N4        1.0  0.79208  0.60431  0.89222  1.0000
  N   N5        1.0  0.35940  0.38595  0.63992  1.0000
  N   N6        1.0  0.14062  0.61407  0.13992  1.0000
  N   N7        1.0  0.85937  0.11407  0.36008  1.0000
  N   N8        1.0  0.64061  0.88592  0.86008  1.0000
  O   O1        1.0  0.75582  0.36125  0.58568  1.0000
  O   O2        1.0  0.74420  0.63878  0.08567  1.0000
  O   O3        1.0  0.25580  0.13877  0.41433  1.0000
  O   O4        1.0  0.24417  0.86123  0.91433  1.0000
  O   O5        1.0  0.02502  0.45905  0.74195  1.0000
  O   O6        1.0  0.47499  0.54096  0.24195  1.0000
  O   O7        1.0  0.52499  0.04096  0.25805  1.0000
  O   O8        1.0  0.97502  0.95903  0.75805  1.0000
  O   O9        1.0  0.21763  0.68041  0.77205  1.0000
  O   O10       1.0  0.28236  0.31958  0.27205  1.0000
  O   O11       1.0  0.71763  0.81959  0.22795  1.0000
  O   O12       1.0  0.78238  0.18040  0.72795  1.0000
  O   O13       1.0  0.47821  0.80863  0.65894  1.0000
  O   O14       1.0  0.02181  0.19139  0.15894  1.0000
  O   O15       1.0  0.97821  0.69139  0.34106  1.0000
  O   O16       1.0  0.52179  0.30861  0.84106  1.0000
