data_image0
_chemical_formula_structural       Mn3H52C54N10O16
_chemical_formula_sum              "Mn3 H52 C54 N10 O16"
_cell_length_a       11.1741
_cell_length_b       12.1949
_cell_length_c       12.44
_cell_angle_alpha    102.758
_cell_angle_beta     91.2566
_cell_angle_gamma    111.088

_space_group_name_H-M_alt    "P 1"
_space_group_IT_number       1

loop_
  _space_group_symop_operation_xyz
  'x, y, z'

loop_
  _atom_site_type_symbol
  _atom_site_label
  _atom_site_symmetry_multiplicity
  _atom_site_fract_x
  _atom_site_fract_y
  _atom_site_fract_z
  _atom_site_occupancy
  Mn  Mn1       1.0  0.92187  0.22267  0.20706  1.0000
  Mn  Mn2       1.0  0.07813  0.77733  0.79294  1.0000
  Mn  Mn3       1.0  1.00000  0.99999  0.99999  1.0000
  H   H1        1.0  0.83406  0.03523  0.80620  1.0000
  H   H2        1.0  0.16594  0.96477  0.19379  1.0000
  H   H3        1.0  0.78942  0.00978  0.42961  1.0000
  H   H4        1.0  0.21057  0.99021  0.57039  1.0000
  H   H5        1.0  0.29640  0.36778  0.37552  1.0000
  H   H6        1.0  0.70360  0.63223  0.62447  1.0000
  H   H7        1.0  0.53587  0.11261  0.98351  1.0000
  H   H8        1.0  0.46414  0.88740  0.01649  1.0000
  H   H9        1.0  0.73551  0.16539  0.38786  1.0000
  H   H10       1.0  0.26450  0.83462  0.61214  1.0000
  H   H11       1.0  0.39863  0.18921  0.07556  1.0000
  H   H12       1.0  0.60137  0.81078  0.92443  1.0000
  H   H13       1.0  0.98091  0.79735  0.24077  1.0000
  H   H14       1.0  0.01909  0.20265  0.75923  1.0000
  H   H15       1.0  0.47630  0.98431  0.62660  1.0000
  H   H16       1.0  0.52370  0.01570  0.37340  1.0000
  H   H17       1.0  0.63164  0.28122  0.15444  1.0000
  H   H18       1.0  0.36836  0.71876  0.84555  1.0000
  H   H19       1.0  0.69528  0.42374  0.34302  1.0000
  H   H20       1.0  0.30472  0.57625  0.65698  1.0000
  H   H21       1.0  0.39127  0.04604  0.80498  1.0000
  H   H22       1.0  0.60874  0.95396  0.19502  1.0000
  H   H23       1.0  0.99251  0.59728  0.18443  1.0000
  H   H24       1.0  0.00749  0.40273  0.81558  1.0000
  H   H25       1.0  0.06114  0.68588  0.08728  1.0000
  H   H26       1.0  0.93887  0.31412  0.91272  1.0000
  H   H27       1.0  0.15063  0.71441  0.21672  1.0000
  H   H28       1.0  0.84937  0.28559  0.78328  1.0000
  H   H29       1.0  0.90700  0.46190  0.63182  1.0000
  H   H30       1.0  0.09299  0.53810  0.36818  1.0000
  H   H31       1.0  0.76655  0.48806  0.59203  1.0000
  H   H32       1.0  0.23344  0.51194  0.40797  1.0000
  H   H33       1.0  0.88710  0.49012  0.49938  1.0000
  H   H34       1.0  0.11290  0.50988  0.50062  1.0000
  H   H35       1.0  0.58110  0.28728  0.56403  1.0000
  H   H36       1.0  0.41890  0.71271  0.43597  1.0000
  H   H37       1.0  0.69256  0.26752  0.65616  1.0000
  H   H38       1.0  0.30744  0.73248  0.34383  1.0000
  H   H39       1.0  0.62395  0.15645  0.52977  1.0000
  H   H40       1.0  0.37605  0.84354  0.47023  1.0000
  H   H41       1.0  0.13031  0.37847  0.07318  1.0000
  H   H42       1.0  0.86970  0.62153  0.92683  1.0000
  H   H43       1.0  0.33065  0.66063  0.10092  1.0000
  H   H44       1.0  0.66935  0.33937  0.89909  1.0000
  H   H45       1.0  0.22822  0.63137  0.97740  1.0000
  H   H46       1.0  0.77178  0.36863  0.02260  1.0000
  H   H47       1.0  0.27352  0.51354  0.00698  1.0000
  H   H48       1.0  0.72649  0.48645  0.99303  1.0000
  H   H49       1.0  0.98130  0.69508  0.39586  1.0000
  H   H50       1.0  0.01871  0.30493  0.60415  1.0000
  H   H51       1.0  0.89024  0.75912  0.57120  1.0000
  H   H52       1.0  0.10976  0.24089  0.42880  1.0000
  C   C1        1.0  0.78022  0.12649  0.01171  1.0000
  C   C2        1.0  0.21978  0.87351  0.98829  1.0000
  C   C3        1.0  0.69336  0.07923  0.90547  1.0000
  C   C4        1.0  0.30664  0.92077  0.09453  1.0000
  C   C5        1.0  0.89484  0.97635  0.23681  1.0000
  C   C6        1.0  0.10517  0.02365  0.76319  1.0000
  C   C7        1.0  0.19537  0.21982  0.17331  1.0000
  C   C8        1.0  0.80462  0.78017  0.82669  1.0000
  C   C9        1.0  0.73740  0.03756  0.80641  1.0000
  C   C10       1.0  0.26260  0.96245  0.19359  1.0000
  C   C11       1.0  0.82883  0.93911  0.42073  1.0000
  C   C12       1.0  0.17117  0.06088  0.57927  1.0000
  C   C13       1.0  0.36985  0.35198  0.32565  1.0000
  C   C14       1.0  0.63014  0.64802  0.67434  1.0000
  C   C15       1.0  0.33450  0.27579  0.21969  1.0000
  C   C16       1.0  0.66549  0.72421  0.78031  1.0000
  C   C17       1.0  0.56844  0.08159  0.90482  1.0000
  C   C18       1.0  0.43156  0.91841  0.09518  1.0000
  C   C19       1.0  0.65724  0.00171  0.70650  1.0000
  C   C20       1.0  0.34276  0.99830  0.29350  1.0000
  C   C21       1.0  0.88488  0.90863  0.32554  1.0000
  C   C22       1.0  0.11512  0.09137  0.67446  1.0000
  C   C23       1.0  0.79533  0.26259  0.41792  1.0000
  C   C24       1.0  0.20467  0.73741  0.58209  1.0000
  C   C25       1.0  0.42941  0.25131  0.15751  1.0000
  C   C26       1.0  0.57058  0.74868  0.84248  1.0000
  C   C27       1.0  0.93783  0.81903  0.31621  1.0000
  C   C28       1.0  0.06218  0.18097  0.68380  1.0000
  C   C29       1.0  0.49987  0.40557  0.36974  1.0000
  C   C30       1.0  0.50013  0.59443  0.63026  1.0000
  C   C31       1.0  0.53476  0.00918  0.70594  1.0000
  C   C32       1.0  0.46524  0.99083  0.29405  1.0000
  C   C33       1.0  0.55894  0.30373  0.20132  1.0000
  C   C34       1.0  0.44105  0.69625  0.79867  1.0000
  C   C35       1.0  0.59454  0.38107  0.30738  1.0000
  C   C36       1.0  0.40546  0.61892  0.69262  1.0000
  C   C37       1.0  0.48890  0.04615  0.80536  1.0000
  C   C38       1.0  0.51110  0.95386  0.19463  1.0000
  C   C39       1.0  0.08144  0.64265  0.15041  1.0000
  C   C40       1.0  0.91856  0.35735  0.84960  1.0000
  C   C41       1.0  0.83605  0.44707  0.56214  1.0000
  C   C42       1.0  0.16394  0.55293  0.43785  1.0000
  C   C43       1.0  0.65983  0.25381  0.56856  1.0000
  C   C44       1.0  0.34017  0.74618  0.43143  1.0000
  C   C45       1.0  0.08156  0.43883  0.11275  1.0000
  C   C46       1.0  0.91843  0.56117  0.88726  1.0000
  C   C47       1.0  0.24835  0.59176  0.04357  1.0000
  C   C48       1.0  0.75165  0.40824  0.95644  1.0000
  C   C49       1.0  0.82897  0.88324  0.50771  1.0000
  C   C50       1.0  0.17103  0.11676  0.49229  1.0000
  C   C51       1.0  0.93832  0.76344  0.40295  1.0000
  C   C52       1.0  0.06168  0.23657  0.59705  1.0000
  C   C53       1.0  0.88665  0.79707  0.50014  1.0000
  C   C54       1.0  0.11335  0.20293  0.49987  1.0000
  N   N1        1.0  0.54217  0.48202  0.47724  1.0000
  N   N2        1.0  0.45783  0.51798  0.52275  1.0000
  N   N3        1.0  0.69546  0.96056  0.60242  1.0000
  N   N4        1.0  0.30454  0.03944  0.39757  1.0000
  N   N5        1.0  0.78040  0.91527  0.60861  1.0000
  N   N6        1.0  0.21959  0.08473  0.39139  1.0000
  N   N7        1.0  0.76638  0.31819  0.51294  1.0000
  N   N8        1.0  0.23362  0.68180  0.48705  1.0000
  N   N9        1.0  0.13497  0.55286  0.10211  1.0000
  N   N10       1.0  0.86504  0.44714  0.89790  1.0000
  O   O1        1.0  0.89470  0.12508  0.01386  1.0000
  O   O2        1.0  0.10531  0.87493  0.98614  1.0000
  O   O3        1.0  0.74145  0.17337  0.09922  1.0000
  O   O4        1.0  0.25855  0.82663  0.90078  1.0000
  O   O5        1.0  0.98405  0.40139  0.16231  1.0000
  O   O6        1.0  0.01596  0.59861  0.83770  1.0000
  O   O7        1.0  0.88368  0.31476  0.36456  1.0000
  O   O8        1.0  0.11633  0.68524  0.63543  1.0000
  O   O9        1.0  0.84561  0.05789  0.25242  1.0000
  O   O10       1.0  0.15441  0.94213  0.74759  1.0000
  O   O11       1.0  0.95224  0.94964  0.15436  1.0000
  O   O12       1.0  0.04775  0.05036  0.84563  1.0000
  O   O13       1.0  0.16732  0.14805  0.07762  1.0000
  O   O14       1.0  0.83267  0.85195  0.92238  1.0000
  O   O15       1.0  0.11552  0.25124  0.23273  1.0000
  O   O16       1.0  0.88447  0.74876  0.76726  1.0000
