data_image0
_chemical_formula_structural       Tb4H24C24O36
_chemical_formula_sum              "Tb4 H24 C24 O36"
_cell_length_a       6.56625
_cell_length_b       10.2261
_cell_length_c       13.3724
_cell_angle_alpha    90
_cell_angle_beta     89.9999
_cell_angle_gamma    89.9999

_space_group_name_H-M_alt    "P 1"
_space_group_IT_number       1

loop_
  _space_group_symop_operation_xyz
  'x, y, z'

loop_
  _atom_site_type_symbol
  _atom_site_label
  _atom_site_symmetry_multiplicity
  _atom_site_fract_x
  _atom_site_fract_y
  _atom_site_fract_z
  _atom_site_occupancy
  Tb  Tb1       1.0  0.13564  0.50000  0.69894  1.0000
  Tb  Tb2       1.0  0.86436  0.50000  0.30106  1.0000
  Tb  Tb3       1.0  0.63564  0.00000  0.80106  1.0000
  Tb  Tb4       1.0  0.36437  1.00000  0.19894  1.0000
  H   H1        1.0  0.21687  0.27367  0.84678  1.0000
  H   H2        1.0  0.78313  0.27367  0.15321  1.0000
  H   H3        1.0  0.71687  0.22633  0.65322  1.0000
  H   H4        1.0  0.28313  0.22633  0.34678  1.0000
  H   H5        1.0  0.78314  0.72633  0.15321  1.0000
  H   H6        1.0  0.21687  0.72633  0.84679  1.0000
  H   H7        1.0  0.28314  0.77367  0.34679  1.0000
  H   H8        1.0  0.71687  0.77367  0.65321  1.0000
  H   H9        1.0  0.98164  0.31111  0.85030  1.0000
  H   H10       1.0  0.01836  0.31111  0.14970  1.0000
  H   H11       1.0  0.48165  0.18889  0.64970  1.0000
  H   H12       1.0  0.51836  0.18889  0.35030  1.0000
  H   H13       1.0  0.01836  0.68889  0.14970  1.0000
  H   H14       1.0  0.98164  0.68889  0.85030  1.0000
  H   H15       1.0  0.51836  0.81111  0.35030  1.0000
  H   H16       1.0  0.48164  0.81111  0.64970  1.0000
  H   H17       1.0  0.22615  0.42428  0.48315  1.0000
  H   H18       1.0  0.77385  0.42428  0.51685  1.0000
  H   H19       1.0  0.72615  0.07572  0.01685  1.0000
  H   H20       1.0  0.27385  0.07572  0.98315  1.0000
  H   H21       1.0  0.77385  0.57572  0.51685  1.0000
  H   H22       1.0  0.22615  0.57572  0.48315  1.0000
  H   H23       1.0  0.27385  0.92428  0.98315  1.0000
  H   H24       1.0  0.72615  0.92428  0.01685  1.0000
  C   C1        1.0  0.07712  0.75447  0.60109  1.0000
  C   C2        1.0  0.92288  0.75447  0.39891  1.0000
  C   C3        1.0  0.57712  0.74553  0.89891  1.0000
  C   C4        1.0  0.42288  0.74553  0.10109  1.0000
  C   C5        1.0  0.92288  0.24553  0.39890  1.0000
  C   C6        1.0  0.07712  0.24553  0.60109  1.0000
  C   C7        1.0  0.42288  0.25447  0.10109  1.0000
  C   C8        1.0  0.57712  0.25447  0.89891  1.0000
  C   C9        1.0  0.03927  0.88163  0.54878  1.0000
  C   C10       1.0  0.96072  0.88163  0.45122  1.0000
  C   C11       1.0  0.53927  0.61837  0.95122  1.0000
  C   C12       1.0  0.46072  0.61837  0.04878  1.0000
  C   C13       1.0  0.96072  0.11837  0.45122  1.0000
  C   C14       1.0  0.03927  0.11837  0.54878  1.0000
  C   C15       1.0  0.46072  0.38163  0.04878  1.0000
  C   C16       1.0  0.53927  0.38163  0.95122  1.0000
  C   C17       1.0  0.07651  0.00000  0.59812  1.0000
  C   C18       1.0  0.92349  0.00000  0.40188  1.0000
  C   C19       1.0  0.57651  0.50000  0.90188  1.0000
  C   C20       1.0  0.42349  0.50000  0.09812  1.0000
  C   C21       1.0  0.12813  0.00000  0.70836  1.0000
  C   C22       1.0  0.87187  0.00000  0.29164  1.0000
  C   C23       1.0  0.62813  0.50000  0.79164  1.0000
  C   C24       1.0  0.37188  0.50000  0.20836  1.0000
  O   O1        1.0  0.11842  0.34354  0.83070  1.0000
  O   O2        1.0  0.88158  0.34354  0.16930  1.0000
  O   O3        1.0  0.61842  0.15646  0.66930  1.0000
  O   O4        1.0  0.38158  0.15646  0.33070  1.0000
  O   O5        1.0  0.88158  0.65646  0.16930  1.0000
  O   O6        1.0  0.11841  0.65646  0.83070  1.0000
  O   O7        1.0  0.38158  0.84354  0.33070  1.0000
  O   O8        1.0  0.61842  0.84354  0.66930  1.0000
  O   O9        1.0  0.25122  0.50000  0.52660  1.0000
  O   O10       1.0  0.74879  0.50000  0.47341  1.0000
  O   O11       1.0  0.75122  1.00000  0.97340  1.0000
  O   O12       1.0  0.24878  1.00000  0.02659  1.0000
  O   O13       1.0  0.92824  0.67362  0.61126  1.0000
  O   O14       1.0  0.07176  0.67362  0.38874  1.0000
  O   O15       1.0  0.42824  0.82638  0.88874  1.0000
  O   O16       1.0  0.57175  0.82638  0.11126  1.0000
  O   O17       1.0  0.07176  0.32638  0.38874  1.0000
  O   O18       1.0  0.92824  0.32638  0.61126  1.0000
  O   O19       1.0  0.57175  0.17361  0.11126  1.0000
  O   O20       1.0  0.42825  0.17361  0.88874  1.0000
  O   O21       1.0  0.25213  0.72698  0.63450  1.0000
  O   O22       1.0  0.74787  0.72698  0.36550  1.0000
  O   O23       1.0  0.75213  0.77301  0.86550  1.0000
  O   O24       1.0  0.24787  0.77302  0.13450  1.0000
  O   O25       1.0  0.74787  0.27302  0.36550  1.0000
  O   O26       1.0  0.25213  0.27302  0.63450  1.0000
  O   O27       1.0  0.24786  0.22698  0.13450  1.0000
  O   O28       1.0  0.75213  0.22698  0.86550  1.0000
  O   O29       1.0  0.97647  1.00000  0.76744  1.0000
  O   O30       1.0  0.02354  1.00000  0.23256  1.0000
  O   O31       1.0  0.47646  0.50000  0.73256  1.0000
  O   O32       1.0  0.52354  0.50000  0.26744  1.0000
  O   O33       1.0  0.31093  0.00000  0.73483  1.0000
  O   O34       1.0  0.68907  1.00000  0.26517  1.0000
  O   O35       1.0  0.81094  0.50000  0.76517  1.0000
  O   O36       1.0  0.18907  0.50000  0.23483  1.0000
