data_image0
_chemical_formula_structural       Cd2H32C24N8O12
_chemical_formula_sum              "Cd2 H32 C24 N8 O12"
_cell_length_a       8.26952
_cell_length_b       8.8645
_cell_length_c       11.0439
_cell_angle_alpha    100.799
_cell_angle_beta     90.0007
_cell_angle_gamma    89.9999

_space_group_name_H-M_alt    "P 1"
_space_group_IT_number       1

loop_
  _space_group_symop_operation_xyz
  'x, y, z'

loop_
  _atom_site_type_symbol
  _atom_site_label
  _atom_site_symmetry_multiplicity
  _atom_site_fract_x
  _atom_site_fract_y
  _atom_site_fract_z
  _atom_site_occupancy
  Cd  Cd1       1.0  0.50000  0.00000  0.50000  1.0000
  Cd  Cd2       1.0  0.00000  0.50000  1.00000  1.0000
  H   H1        1.0  0.33218  0.64432  0.39254  1.0000
  H   H2        1.0  0.83217  0.85568  0.10745  1.0000
  H   H3        1.0  0.66782  0.35568  0.60745  1.0000
  H   H4        1.0  0.16783  0.14432  0.89254  1.0000
  H   H5        1.0  0.40912  0.86155  0.76181  1.0000
  H   H6        1.0  0.90912  0.63845  0.73819  1.0000
  H   H7        1.0  0.59088  0.13845  0.23819  1.0000
  H   H8        1.0  0.09088  0.36154  0.26181  1.0000
  H   H9        1.0  0.17018  0.36853  0.62404  1.0000
  H   H10       1.0  0.67018  0.13148  0.87597  1.0000
  H   H11       1.0  0.82983  0.63147  0.37596  1.0000
  H   H12       1.0  0.32983  0.86853  0.12404  1.0000
  H   H13       1.0  0.28642  0.32441  0.48697  1.0000
  H   H14       1.0  0.78642  0.17559  0.01304  1.0000
  H   H15       1.0  0.71359  0.67559  0.51303  1.0000
  H   H16       1.0  0.21359  0.82441  0.98697  1.0000
  H   H17       1.0  0.09096  0.40657  0.48439  1.0000
  H   H18       1.0  0.59096  0.09343  0.01561  1.0000
  H   H19       1.0  0.90905  0.59343  0.51561  1.0000
  H   H20       1.0  0.40905  0.90657  0.98439  1.0000
  H   H21       1.0  0.28146  0.59596  0.76515  1.0000
  H   H22       1.0  0.78146  0.90404  0.73485  1.0000
  H   H23       1.0  0.71854  0.40403  0.23485  1.0000
  H   H24       1.0  0.21854  0.09596  0.26515  1.0000
  H   H25       1.0  0.30443  0.14432  0.69892  1.0000
  H   H26       1.0  0.80443  0.35569  0.80108  1.0000
  H   H27       1.0  0.69556  0.85569  0.30108  1.0000
  H   H28       1.0  0.19557  0.64431  0.19892  1.0000
  H   H29       1.0  0.47358  0.23643  0.73161  1.0000
  H   H30       1.0  0.97358  0.26357  0.76838  1.0000
  H   H31       1.0  0.52641  0.76356  0.26839  1.0000
  H   H32       1.0  0.02642  0.73643  0.23161  1.0000
  C   C1        1.0  0.33041  0.66189  0.49233  1.0000
  C   C2        1.0  0.83041  0.83811  0.00768  1.0000
  C   C3        1.0  0.66959  0.33811  0.50767  1.0000
  C   C4        1.0  0.16959  0.16189  0.99232  1.0000
  C   C5        1.0  0.27513  0.56445  0.56699  1.0000
  C   C6        1.0  0.77513  0.93555  0.93302  1.0000
  C   C7        1.0  0.72487  0.43555  0.43301  1.0000
  C   C8        1.0  0.22487  0.06445  0.06698  1.0000
  C   C9        1.0  0.37469  0.77714  0.68183  1.0000
  C   C10       1.0  0.87469  0.72286  0.81817  1.0000
  C   C11       1.0  0.62531  0.22286  0.31817  1.0000
  C   C12       1.0  0.12532  0.27714  0.18183  1.0000
  C   C13       1.0  0.20230  0.40826  0.53900  1.0000
  C   C14       1.0  0.70230  0.09175  0.96100  1.0000
  C   C15       1.0  0.79770  0.59174  0.46100  1.0000
  C   C16       1.0  0.29771  0.90825  0.03900  1.0000
  C   C17       1.0  0.11054  0.01368  0.45819  1.0000
  C   C18       1.0  0.61055  0.48633  0.04181  1.0000
  C   C19       1.0  0.88945  0.98633  0.54181  1.0000
  C   C20       1.0  0.38945  0.51367  0.95819  1.0000
  C   C21       1.0  0.04767  0.05116  0.58563  1.0000
  C   C22       1.0  0.54767  0.44885  0.91437  1.0000
  C   C23       1.0  0.95232  0.94885  0.41437  1.0000
  C   C24       1.0  0.45233  0.55115  0.08563  1.0000
  N   N1        1.0  0.39204  0.79356  0.56488  1.0000
  N   N2        1.0  0.89204  0.70644  0.93512  1.0000
  N   N3        1.0  0.60796  0.20644  0.43511  1.0000
  N   N4        1.0  0.10796  0.29355  0.06488  1.0000
  N   N5        1.0  0.30433  0.64040  0.68615  1.0000
  N   N6        1.0  0.80433  0.85961  0.81385  1.0000
  N   N7        1.0  0.69567  0.35960  0.31385  1.0000
  N   N8        1.0  0.19567  0.14039  0.18615  1.0000
  O   O1        1.0  0.24261  0.03086  0.40462  1.0000
  O   O2        1.0  0.74262  0.46914  0.09538  1.0000
  O   O3        1.0  0.75738  0.96914  0.59538  1.0000
  O   O4        1.0  0.25739  0.53086  0.90462  1.0000
  O   O5        1.0  0.10142  0.11541  0.68953  1.0000
  O   O6        1.0  0.60143  0.38460  0.81047  1.0000
  O   O7        1.0  0.89857  0.88459  0.31047  1.0000
  O   O8        1.0  0.39857  0.61540  0.18953  1.0000
  O   O9        1.0  0.42490  0.13534  0.69742  1.0000
  O   O10       1.0  0.92490  0.36467  0.80258  1.0000
  O   O11       1.0  0.57510  0.86467  0.30258  1.0000
  O   O12       1.0  0.07511  0.63533  0.19742  1.0000
