data_image0
_chemical_formula_structural       H32W4C40N8O12
_chemical_formula_sum              "H32 W4 C40 N8 O12"
_cell_length_a       7.32684
_cell_length_b       13.2083
_cell_length_c       13.2083
_cell_angle_alpha    79.3697
_cell_angle_beta     73.895
_cell_angle_gamma    73.8951

_space_group_name_H-M_alt    "P 1"
_space_group_IT_number       1

loop_
  _space_group_symop_operation_xyz
  'x, y, z'

loop_
  _atom_site_type_symbol
  _atom_site_label
  _atom_site_symmetry_multiplicity
  _atom_site_fract_x
  _atom_site_fract_y
  _atom_site_fract_z
  _atom_site_occupancy
  H   H1        1.0  0.79738  0.45838  0.43217  1.0000
  H   H2        1.0  0.68831  0.54158  0.56781  1.0000
  H   H3        1.0  0.18831  0.56781  0.54158  1.0000
  H   H4        1.0  0.29738  0.43217  0.45838  1.0000
  H   H5        1.0  0.69252  0.65809  0.39936  1.0000
  H   H6        1.0  0.75054  0.34185  0.60063  1.0000
  H   H7        1.0  0.25054  0.60063  0.34185  1.0000
  H   H8        1.0  0.19253  0.39936  0.65809  1.0000
  H   H9        1.0  0.75346  0.74217  0.20834  1.0000
  H   H10       1.0  0.70418  0.25782  0.79170  1.0000
  H   H11       1.0  0.20418  0.79170  0.25782  1.0000
  H   H12       1.0  0.25347  0.20834  0.74217  1.0000
  H   H13       1.0  0.91335  0.62766  0.06320  1.0000
  H   H14       1.0  0.60390  0.37238  0.93678  1.0000
  H   H15       1.0  0.10390  0.93678  0.37237  1.0000
  H   H16       1.0  0.41335  0.06320  0.62766  1.0000
  H   H17       1.0  0.05035  0.52215  0.95236  1.0000
  H   H18       1.0  0.52464  0.47788  0.04769  1.0000
  H   H19       1.0  0.02464  0.04769  0.47788  1.0000
  H   H20       1.0  0.55035  0.95236  0.52215  1.0000
  H   H21       1.0  0.20459  0.38725  0.82990  1.0000
  H   H22       1.0  0.42137  0.61279  0.17013  1.0000
  H   H23       1.0  0.92138  0.17012  0.61279  1.0000
  H   H24       1.0  0.70459  0.82990  0.38725  1.0000
  H   H25       1.0  0.26925  0.19121  0.90469  1.0000
  H   H26       1.0  0.36492  0.80883  0.09528  1.0000
  H   H27       1.0  0.86492  0.09528  0.80883  1.0000
  H   H28       1.0  0.76925  0.90469  0.19120  1.0000
  H   H29       1.0  0.16261  0.14640  0.10241  1.0000
  H   H30       1.0  0.41140  0.85359  0.89757  1.0000
  H   H31       1.0  0.91140  0.89757  0.85359  1.0000
  H   H32       1.0  0.66261  0.10241  0.14640  1.0000
  W   W1        1.0  0.97977  0.25297  0.31457  1.0000
  W   W2        1.0  0.54731  0.74705  0.68543  1.0000
  W   W3        1.0  0.04731  0.68543  0.74705  1.0000
  W   W4        1.0  0.47977  0.31457  0.25297  1.0000
  C   C1        1.0  0.81912  0.50088  0.35250  1.0000
  C   C2        1.0  0.67280  0.49909  0.64749  1.0000
  C   C3        1.0  0.17280  0.64749  0.49909  1.0000
  C   C4        1.0  0.31912  0.35249  0.50089  1.0000
  C   C5        1.0  0.76173  0.61090  0.33297  1.0000
  C   C6        1.0  0.70601  0.38907  0.66701  1.0000
  C   C7        1.0  0.20601  0.66702  0.38906  1.0000
  C   C8        1.0  0.26173  0.33296  0.61090  1.0000
  C   C9        1.0  0.79723  0.65644  0.22752  1.0000
  C   C10       1.0  0.68138  0.34355  0.77247  1.0000
  C   C11       1.0  0.18138  0.77247  0.34354  1.0000
  C   C12       1.0  0.29724  0.22752  0.65644  1.0000
  C   C13       1.0  0.88642  0.59246  0.14592  1.0000
  C   C14       1.0  0.62465  0.40757  0.85405  1.0000
  C   C15       1.0  0.12465  0.85405  0.40757  1.0000
  C   C16       1.0  0.38642  0.14592  0.59246  1.0000
  C   C17       1.0  0.93735  0.48229  0.17237  1.0000
  C   C18       1.0  0.59189  0.51775  0.82759  1.0000
  C   C19       1.0  0.09189  0.82759  0.51775  1.0000
  C   C20       1.0  0.43735  0.17237  0.48229  1.0000
  C   C21       1.0  0.02647  0.40647  0.09265  1.0000
  C   C22       1.0  0.52544  0.59354  0.90736  1.0000
  C   C23       1.0  0.02544  0.90736  0.59354  1.0000
  C   C24       1.0  0.52647  0.09265  0.40647  1.0000
  C   C25       1.0  0.07750  0.43834  0.98362  1.0000
  C   C26       1.0  0.49926  0.56169  0.01641  1.0000
  C   C27       1.0  0.99926  0.01640  0.56168  1.0000
  C   C28       1.0  0.57749  0.98362  0.43834  1.0000
  C   C29       1.0  0.16488  0.36112  0.91447  1.0000
  C   C30       1.0  0.44012  0.63891  0.08556  1.0000
  C   C31       1.0  0.94012  0.08556  0.63891  1.0000
  C   C32       1.0  0.66488  0.91446  0.36112  1.0000
  C   C33       1.0  0.19878  0.25435  0.95551  1.0000
  C   C34       1.0  0.40840  0.74567  0.04449  1.0000
  C   C35       1.0  0.90840  0.04449  0.74567  1.0000
  C   C36       1.0  0.69878  0.95551  0.25435  1.0000
  C   C37       1.0  0.14157  0.22821  0.06472  1.0000
  C   C38       1.0  0.43440  0.77178  0.93527  1.0000
  C   C39       1.0  0.93441  0.93527  0.77178  1.0000
  C   C40       1.0  0.64157  0.06472  0.22821  1.0000
  N   N1        1.0  0.90423  0.43880  0.27466  1.0000
  N   N2        1.0  0.61779  0.56121  0.72531  1.0000
  N   N3        1.0  0.11779  0.72531  0.56120  1.0000
  N   N4        1.0  0.40423  0.27466  0.43880  1.0000
  N   N5        1.0  0.05747  0.30244  0.13108  1.0000
  N   N6        1.0  0.49083  0.69756  0.86893  1.0000
  N   N7        1.0  0.99084  0.86893  0.69755  1.0000
  N   N8        1.0  0.55746  0.13108  0.30244  1.0000
  O   O1        1.0  0.73121  0.28559  0.28159  1.0000
  O   O2        1.0  0.29834  0.71449  0.71841  1.0000
  O   O3        1.0  0.79834  0.71841  0.71449  1.0000
  O   O4        1.0  0.23121  0.28159  0.28559  1.0000
  O   O5        1.0  0.05136  0.11534  0.30373  1.0000
  O   O6        1.0  0.47060  0.88473  0.69612  1.0000
  O   O7        1.0  0.97060  0.69612  0.88473  1.0000
  O   O8        1.0  0.55136  0.30373  0.11534  1.0000
  O   O9        1.0  0.90227  0.26565  0.45159  1.0000
  O   O10       1.0  0.61950  0.73427  0.54844  1.0000
  O   O11       1.0  0.11950  0.54844  0.73427  1.0000
  O   O12       1.0  0.40227  0.45159  0.26566  1.0000
