data_image0
_chemical_formula_structural       Zn2H44C44N6Cl2O4
_chemical_formula_sum              "Zn2 H44 C44 N6 Cl2 O4"
_cell_length_a       9.36782
_cell_length_b       10.7572
_cell_length_c       11.297
_cell_angle_alpha    109.241
_cell_angle_beta     102.266
_cell_angle_gamma    98.7674

_space_group_name_H-M_alt    "P 1"
_space_group_IT_number       1

loop_
  _space_group_symop_operation_xyz
  'x, y, z'

loop_
  _atom_site_type_symbol
  _atom_site_label
  _atom_site_symmetry_multiplicity
  _atom_site_fract_x
  _atom_site_fract_y
  _atom_site_fract_z
  _atom_site_occupancy
  Zn  Zn1       1.0  0.05930  0.35275  0.90018  1.0000
  Zn  Zn2       1.0  0.94070  0.64725  0.09983  1.0000
  H   H1        1.0  0.62263  0.23438  0.08005  1.0000
  H   H2        1.0  0.37737  0.76561  0.91995  1.0000
  H   H3        1.0  0.67030  0.18984  0.93080  1.0000
  H   H4        1.0  0.32970  0.81015  0.06920  1.0000
  H   H5        1.0  0.07434  0.23387  0.62453  1.0000
  H   H6        1.0  0.92566  0.76613  0.37547  1.0000
  H   H7        1.0  0.21516  0.78965  0.47340  1.0000
  H   H8        1.0  0.78484  0.21035  0.52660  1.0000
  H   H9        1.0  0.44052  0.27488  0.16838  1.0000
  H   H10       1.0  0.55948  0.72512  0.83162  1.0000
  H   H11       1.0  0.27468  0.33340  0.14071  1.0000
  H   H12       1.0  0.72533  0.66660  0.85929  1.0000
  H   H13       1.0  0.17847  0.57013  0.66569  1.0000
  H   H14       1.0  0.82153  0.42987  0.33431  1.0000
  H   H15       1.0  0.54682  0.06387  0.69309  1.0000
  H   H16       1.0  0.45318  0.93613  0.30691  1.0000
  H   H17       1.0  0.39091  0.02513  0.46788  1.0000
  H   H18       1.0  0.60909  0.97487  0.53212  1.0000
  H   H19       1.0  0.97552  0.83988  0.91495  1.0000
  H   H20       1.0  0.02448  0.16012  0.08505  1.0000
  H   H21       1.0  0.13435  0.94825  0.62227  1.0000
  H   H22       1.0  0.86565  0.05175  0.37773  1.0000
  H   H23       1.0  0.20015  0.58241  0.34202  1.0000
  H   H24       1.0  0.79985  0.41759  0.65799  1.0000
  H   H25       1.0  0.12646  0.51509  0.44558  1.0000
  H   H26       1.0  0.87354  0.48491  0.55443  1.0000
  H   H27       1.0  0.25383  0.33123  0.39351  1.0000
  H   H28       1.0  0.74617  0.66877  0.60650  1.0000
  H   H29       1.0  0.50756  0.95289  0.85776  1.0000
  H   H30       1.0  0.49243  0.04711  0.14223  1.0000
  H   H31       1.0  0.66353  0.99877  0.99688  1.0000
  H   H32       1.0  0.33646  0.00122  0.00312  1.0000
  H   H33       1.0  0.02141  0.00567  0.80547  1.0000
  H   H34       1.0  0.97859  0.99433  0.19453  1.0000
  H   H35       1.0  0.16224  0.10922  0.43506  1.0000
  H   H36       1.0  0.83776  0.89078  0.56494  1.0000
  H   H37       1.0  0.50917  0.74598  0.56788  1.0000
  H   H38       1.0  0.49083  0.25402  0.43212  1.0000
  H   H39       1.0  0.49888  0.52686  0.27694  1.0000
  H   H40       1.0  0.50112  0.47314  0.72306  1.0000
  H   H41       1.0  0.41859  0.54130  0.12604  1.0000
  H   H42       1.0  0.58141  0.45869  0.87396  1.0000
  H   H43       1.0  0.58784  0.48435  0.14963  1.0000
  H   H44       1.0  0.41216  0.51566  0.85036  1.0000
  C   C1        1.0  0.39235  0.16654  0.78173  1.0000
  C   C2        1.0  0.60765  0.83346  0.21827  1.0000
  C   C3        1.0  0.58251  0.16704  0.97673  1.0000
  C   C4        1.0  0.41748  0.83295  0.02327  1.0000
  C   C5        1.0  0.17600  0.19667  0.63894  1.0000
  C   C6        1.0  0.82400  0.80333  0.36106  1.0000
  C   C7        1.0  0.07402  0.69633  0.79467  1.0000
  C   C8        1.0  0.92598  0.30367  0.20534  1.0000
  C   C9        1.0  0.38350  0.33368  0.11905  1.0000
  C   C10       1.0  0.61650  0.66632  0.88095  1.0000
  C   C11       1.0  0.14335  0.66515  0.69345  1.0000
  C   C12       1.0  0.85665  0.33485  0.30656  1.0000
  C   C13       1.0  0.44358  0.09829  0.67723  1.0000
  C   C14       1.0  0.55642  0.90171  0.32277  1.0000
  C   C15       1.0  0.26061  0.21465  0.76395  1.0000
  C   C16       1.0  0.73940  0.78535  0.23605  1.0000
  C   C17       1.0  0.35741  0.07933  0.55315  1.0000
  C   C18       1.0  0.64259  0.92067  0.44685  1.0000
  C   C19       1.0  0.16310  0.75460  0.62770  1.0000
  C   C20       1.0  0.83690  0.24540  0.37230  1.0000
  C   C21       1.0  0.02886  0.81813  0.83606  1.0000
  C   C22       1.0  0.97114  0.18187  0.16394  1.0000
  C   C23       1.0  0.36580  0.54426  0.47850  1.0000
  C   C24       1.0  0.63420  0.45574  0.52150  1.0000
  C   C25       1.0  0.04544  0.59764  0.85821  1.0000
  C   C26       1.0  0.95456  0.40236  0.14179  1.0000
  C   C27       1.0  0.11994  0.87847  0.67249  1.0000
  C   C28       1.0  0.88006  0.12153  0.32752  1.0000
  C   C29       1.0  0.35407  0.26806  0.97517  1.0000
  C   C30       1.0  0.64593  0.73194  0.02482  1.0000
  C   C31       1.0  0.22144  0.58828  0.44372  1.0000
  C   C32       1.0  0.77856  0.41172  0.55628  1.0000
  C   C33       1.0  0.36202  0.40566  0.44026  1.0000
  C   C34       1.0  0.63798  0.59434  0.55974  1.0000
  C   C35       1.0  0.55319  0.01807  0.96220  1.0000
  C   C36       1.0  0.44681  0.98192  0.03780  1.0000
  C   C37       1.0  0.05532  0.90993  0.77526  1.0000
  C   C38       1.0  0.94468  0.09007  0.22474  1.0000
  C   C39       1.0  0.22625  0.12761  0.53415  1.0000
  C   C40       1.0  0.77375  0.87239  0.46585  1.0000
  C   C41       1.0  0.50537  0.63802  0.53886  1.0000
  C   C42       1.0  0.49463  0.36198  0.46114  1.0000
  C   C43       1.0  0.47846  0.48054  0.17082  1.0000
  C   C44       1.0  0.52154  0.51946  0.82918  1.0000
  N   N1        1.0  0.44866  0.20201  0.91559  1.0000
  N   N2        1.0  0.55134  0.79799  0.08441  1.0000
  N   N3        1.0  0.23948  0.27605  0.88605  1.0000
  N   N4        1.0  0.76052  0.72395  0.11395  1.0000
  N   N5        1.0  0.22080  0.72531  0.52210  1.0000
  N   N6        1.0  0.77920  0.27469  0.47790  1.0000
  Cl  Cl1       1.0  0.84210  0.20944  0.76767  1.0000
  Cl  Cl2       1.0  0.15791  0.79056  0.23233  1.0000
  O   O1        1.0  0.12207  0.50812  0.84830  1.0000
  O   O2        1.0  0.87793  0.49188  0.15171  1.0000
  O   O3        1.0  0.94208  0.60469  0.91648  1.0000
  O   O4        1.0  0.05792  0.39531  0.08353  1.0000
