data_image0
_chemical_formula_structural       Cd2H54C54N8O10
_chemical_formula_sum              "Cd2 H54 C54 N8 O10"
_cell_length_a       8.51692
_cell_length_b       10.5624
_cell_length_c       14.482
_cell_angle_alpha    82.2153
_cell_angle_beta     77.6751
_cell_angle_gamma    85.7375

_space_group_name_H-M_alt    "P 1"
_space_group_IT_number       1

loop_
  _space_group_symop_operation_xyz
  'x, y, z'

loop_
  _atom_site_type_symbol
  _atom_site_label
  _atom_site_symmetry_multiplicity
  _atom_site_fract_x
  _atom_site_fract_y
  _atom_site_fract_z
  _atom_site_occupancy
  Cd  Cd1       1.0  0.23738  0.09316  0.44739  1.0000
  Cd  Cd2       1.0  0.76262  0.90684  0.55261  1.0000
  H   H1        1.0  0.14230  0.10859  0.20616  1.0000
  H   H2        1.0  0.85770  0.89140  0.79384  1.0000
  H   H3        1.0  0.12518  0.26575  0.06247  1.0000
  H   H4        1.0  0.87482  0.73425  0.93753  1.0000
  H   H5        1.0  0.88100  0.40466  0.05551  1.0000
  H   H6        1.0  0.11900  0.59534  0.94449  1.0000
  H   H7        1.0  0.66512  0.23567  0.33715  1.0000
  H   H8        1.0  0.33488  0.76433  0.66285  1.0000
  H   H9        1.0  0.68342  0.56468  0.10197  1.0000
  H   H10       1.0  0.31658  0.43532  0.89803  1.0000
  H   H11       1.0  0.59009  0.44714  0.05777  1.0000
  H   H12       1.0  0.40991  0.55285  0.94223  1.0000
  H   H13       1.0  0.52200  0.72548  0.19418  1.0000
  H   H14       1.0  0.47800  0.27453  0.80582  1.0000
  H   H15       1.0  0.25651  0.83834  0.23913  1.0000
  H   H16       1.0  0.74349  0.16166  0.76087  1.0000
  H   H17       1.0  0.02752  0.53397  0.15552  1.0000
  H   H18       1.0  0.97248  0.46603  0.84448  1.0000
  H   H19       1.0  0.29268  0.42072  0.11164  1.0000
  H   H20       1.0  0.70733  0.57929  0.88835  1.0000
  H   H21       1.0  0.96981  0.84724  0.25754  1.0000
  H   H22       1.0  0.03019  0.15276  0.74246  1.0000
  H   H23       1.0  0.86902  0.70624  0.25563  1.0000
  H   H24       1.0  0.13098  0.29376  0.74437  1.0000
  H   H25       1.0  0.87513  0.95939  0.96415  1.0000
  H   H26       1.0  0.12487  0.04061  0.03585  1.0000
  H   H27       1.0  0.65642  0.12510  0.95296  1.0000
  H   H28       1.0  0.34358  0.87490  0.04704  1.0000
  H   H29       1.0  0.46105  0.17784  0.09984  1.0000
  H   H30       1.0  0.53895  0.82215  0.90016  1.0000
  H   H31       1.0  0.69281  0.88622  0.26786  1.0000
  H   H32       1.0  0.30719  0.11378  0.73214  1.0000
  H   H33       1.0  0.88991  0.20358  0.57742  1.0000
  H   H34       1.0  0.11009  0.79642  0.42258  1.0000
  H   H35       1.0  0.17842  0.38196  0.32688  1.0000
  H   H36       1.0  0.82158  0.61804  0.67312  1.0000
  H   H37       1.0  0.89675  0.53149  0.37248  1.0000
  H   H38       1.0  0.10325  0.46851  0.62752  1.0000
  H   H39       1.0  0.70071  0.48253  0.59312  1.0000
  H   H40       1.0  0.29929  0.51747  0.40688  1.0000
  H   H41       1.0  0.63130  0.33276  0.57953  1.0000
  H   H42       1.0  0.36870  0.66724  0.42047  1.0000
  H   H43       1.0  0.58517  0.42806  0.41614  1.0000
  H   H44       1.0  0.41482  0.57194  0.58386  1.0000
  H   H45       1.0  0.63649  0.57920  0.43927  1.0000
  H   H46       1.0  0.36351  0.42080  0.56073  1.0000
  H   H47       1.0  0.51574  0.35867  0.23807  1.0000
  H   H48       1.0  0.48426  0.64133  0.76193  1.0000
  H   H49       1.0  0.02042  0.82432  0.06696  1.0000
  H   H50       1.0  0.97958  0.17568  0.93304  1.0000
  H   H51       1.0  0.47609  0.12132  0.56461  1.0000
  H   H52       1.0  0.52391  0.87868  0.43539  1.0000
  H   H53       1.0  0.56801  0.13548  0.46098  1.0000
  H   H54       1.0  0.43199  0.86452  0.53902  1.0000
  C   C1        1.0  0.90301  0.06580  0.36640  1.0000
  C   C2        1.0  0.09699  0.93419  0.63360  1.0000
  C   C3        1.0  0.90268  0.16126  0.28024  1.0000
  C   C4        1.0  0.09732  0.83874  0.71976  1.0000
  C   C5        1.0  0.03486  0.17020  0.20302  1.0000
  C   C6        1.0  0.96514  0.82980  0.79698  1.0000
  C   C7        1.0  0.02489  0.25915  0.12384  1.0000
  C   C8        1.0  0.97511  0.74085  0.87616  1.0000
  C   C9        1.0  0.88711  0.33919  0.11983  1.0000
  C   C10       1.0  0.11289  0.66081  0.88017  1.0000
  C   C11       1.0  0.75550  0.33140  0.19772  1.0000
  C   C12       1.0  0.24450  0.66860  0.80228  1.0000
  C   C13       1.0  0.76685  0.24180  0.27717  1.0000
  C   C14       1.0  0.23315  0.75820  0.72283  1.0000
  C   C15       1.0  0.58660  0.49621  0.12117  1.0000
  C   C16       1.0  0.41340  0.50379  0.87883  1.0000
  C   C17       1.0  0.42618  0.56671  0.14773  1.0000
  C   C18       1.0  0.57382  0.43329  0.85227  1.0000
  C   C19       1.0  0.41368  0.68289  0.18578  1.0000
  C   C20       1.0  0.58632  0.31712  0.81422  1.0000
  C   C21       1.0  0.26404  0.74677  0.21087  1.0000
  C   C22       1.0  0.73596  0.25323  0.78913  1.0000
  C   C23       1.0  0.12423  0.69514  0.19832  1.0000
  C   C24       1.0  0.87578  0.30486  0.80167  1.0000
  C   C25       1.0  0.13601  0.57672  0.16339  1.0000
  C   C26       1.0  0.86399  0.42328  0.83660  1.0000
  C   C27       1.0  0.28537  0.51322  0.13842  1.0000
  C   C28       1.0  0.71463  0.48678  0.86158  1.0000
  C   C29       1.0  0.96480  0.76907  0.21486  1.0000
  C   C30       1.0  0.03520  0.23093  0.78514  1.0000
  C   C31       1.0  0.80254  0.91114  0.11702  1.0000
  C   C32       1.0  0.19747  0.08886  0.88298  1.0000
  C   C33       1.0  0.78859  0.98036  0.02820  1.0000
  C   C34       1.0  0.21141  0.01964  0.97180  1.0000
  C   C35       1.0  0.66602  0.07392  0.02221  1.0000
  C   C36       1.0  0.33398  0.92608  0.97779  1.0000
  C   C37       1.0  0.55577  0.10333  0.10360  1.0000
  C   C38       1.0  0.44423  0.89668  0.89640  1.0000
  C   C39       1.0  0.56699  0.03371  0.19138  1.0000
  C   C40       1.0  0.43301  0.96629  0.80862  1.0000
  C   C41       1.0  0.68752  0.93739  0.19808  1.0000
  C   C42       1.0  0.31248  0.06261  0.80192  1.0000
  C   C43       1.0  0.45204  0.06232  0.27980  1.0000
  C   C44       1.0  0.54796  0.93768  0.72020  1.0000
  C   C45       1.0  0.93270  0.27385  0.51701  1.0000
  C   C46       1.0  0.06730  0.72615  0.48299  1.0000
  C   C47       1.0  0.07888  0.36991  0.38749  1.0000
  C   C48       1.0  0.92112  0.63009  0.61251  1.0000
  C   C49       1.0  0.93898  0.44328  0.40847  1.0000
  C   C50       1.0  0.06102  0.55671  0.59153  1.0000
  C   C51       1.0  0.68779  0.41994  0.54061  1.0000
  C   C52       1.0  0.31221  0.58006  0.45939  1.0000
  C   C53       1.0  0.58552  0.48731  0.47302  1.0000
  C   C54       1.0  0.41448  0.51269  0.52698  1.0000
  N   N1        1.0  0.61467  0.40707  0.20229  1.0000
  N   N2        1.0  0.38533  0.59293  0.79771  1.0000
  N   N3        1.0  0.92500  0.81870  0.12296  1.0000
  N   N4        1.0  0.07500  0.18130  0.87705  1.0000
  N   N5        1.0  0.84783  0.38071  0.49021  1.0000
  N   N6        1.0  0.15217  0.61929  0.50979  1.0000
  N   N7        1.0  0.07371  0.26524  0.45618  1.0000
  N   N8        1.0  0.92629  0.73475  0.54382  1.0000
  O   O1        1.0  0.02943  0.99972  0.37725  1.0000
  O   O2        1.0  0.97057  0.00027  0.62275  1.0000
  O   O3        1.0  0.76764  0.05485  0.42703  1.0000
  O   O4        1.0  0.23236  0.94514  0.57297  1.0000
  O   O5        1.0  0.46626  0.16543  0.50103  1.0000
  O   O6        1.0  0.53374  0.83457  0.49897  1.0000
  O   O7        1.0  0.42335  0.97140  0.34957  1.0000
  O   O8        1.0  0.57665  0.02860  0.65043  1.0000
  O   O9        1.0  0.38417  0.17321  0.28511  1.0000
  O   O10       1.0  0.61583  0.82679  0.71489  1.0000
