data_image0
_chemical_formula_structural       Co2H44C44N6Cl2O4
_chemical_formula_sum              "Co2 H44 C44 N6 Cl2 O4"
_cell_length_a       9.33901
_cell_length_b       10.7172
_cell_length_c       11.361
_cell_angle_alpha    109.624
_cell_angle_beta     102.442
_cell_angle_gamma    98.5026

_space_group_name_H-M_alt    "P 1"
_space_group_IT_number       1

loop_
  _space_group_symop_operation_xyz
  'x, y, z'

loop_
  _atom_site_type_symbol
  _atom_site_label
  _atom_site_symmetry_multiplicity
  _atom_site_fract_x
  _atom_site_fract_y
  _atom_site_fract_z
  _atom_site_occupancy
  Co  Co1       1.0  0.06577  0.36462  0.90542  1.0000
  Co  Co2       1.0  0.93423  0.63538  0.09458  1.0000
  H   H1        1.0  0.17645  0.57249  0.66541  1.0000
  H   H2        1.0  0.82355  0.42751  0.33459  1.0000
  H   H3        1.0  0.07628  0.24088  0.62612  1.0000
  H   H4        1.0  0.92372  0.75912  0.37388  1.0000
  H   H5        1.0  0.21122  0.78761  0.47002  1.0000
  H   H6        1.0  0.78878  0.21239  0.52998  1.0000
  H   H7        1.0  0.62320  0.23533  0.07897  1.0000
  H   H8        1.0  0.37680  0.76467  0.92102  1.0000
  H   H9        1.0  0.66924  0.18869  0.92959  1.0000
  H   H10       1.0  0.33076  0.81131  0.07041  1.0000
  H   H11       1.0  0.97888  0.85113  0.91476  1.0000
  H   H12       1.0  0.02111  0.14887  0.08524  1.0000
  H   H13       1.0  0.54472  0.06104  0.69354  1.0000
  H   H14       1.0  0.45528  0.93896  0.30646  1.0000
  H   H15       1.0  0.02242  0.01339  0.80199  1.0000
  H   H16       1.0  0.97758  0.98661  0.19801  1.0000
  H   H17       1.0  0.44183  0.27479  0.16626  1.0000
  H   H18       1.0  0.55817  0.72521  0.83374  1.0000
  H   H19       1.0  0.27514  0.33351  0.14080  1.0000
  H   H20       1.0  0.72486  0.66648  0.85920  1.0000
  H   H21       1.0  0.19639  0.57867  0.34096  1.0000
  H   H22       1.0  0.80362  0.42133  0.65904  1.0000
  H   H23       1.0  0.12447  0.51291  0.44526  1.0000
  H   H24       1.0  0.87553  0.48709  0.55474  1.0000
  H   H25       1.0  0.25477  0.32827  0.39016  1.0000
  H   H26       1.0  0.74523  0.67173  0.60984  1.0000
  H   H27       1.0  0.13201  0.95000  0.61766  1.0000
  H   H28       1.0  0.86798  0.05000  0.38234  1.0000
  H   H29       1.0  0.50676  0.95106  0.85807  1.0000
  H   H30       1.0  0.49325  0.04894  0.14194  1.0000
  H   H31       1.0  0.66388  0.99838  0.99683  1.0000
  H   H32       1.0  0.33613  0.00162  0.00317  1.0000
  H   H33       1.0  0.39040  0.02509  0.46922  1.0000
  H   H34       1.0  0.60960  0.97492  0.53078  1.0000
  H   H35       1.0  0.16396  0.11435  0.43713  1.0000
  H   H36       1.0  0.83604  0.88565  0.56287  1.0000
  H   H37       1.0  0.50575  0.74687  0.56913  1.0000
  H   H38       1.0  0.49426  0.25313  0.43087  1.0000
  H   H39       1.0  0.49989  0.52775  0.27962  1.0000
  H   H40       1.0  0.50011  0.47225  0.72038  1.0000
  H   H41       1.0  0.41923  0.54497  0.13088  1.0000
  H   H42       1.0  0.58077  0.45503  0.86912  1.0000
  H   H43       1.0  0.58872  0.48708  0.15258  1.0000
  H   H44       1.0  0.41128  0.51292  0.84742  1.0000
  C   C1        1.0  0.14201  0.66863  0.69272  1.0000
  C   C2        1.0  0.85799  0.33137  0.30728  1.0000
  C   C3        1.0  0.26124  0.21908  0.76497  1.0000
  C   C4        1.0  0.73876  0.78093  0.23503  1.0000
  C   C5        1.0  0.17738  0.20206  0.64038  1.0000
  C   C6        1.0  0.82263  0.79795  0.35962  1.0000
  C   C7        1.0  0.07445  0.70339  0.79463  1.0000
  C   C8        1.0  0.92556  0.29661  0.20537  1.0000
  C   C9        1.0  0.39174  0.16786  0.78222  1.0000
  C   C10       1.0  0.60826  0.83214  0.21779  1.0000
  C   C11       1.0  0.35409  0.27089  0.97536  1.0000
  C   C12       1.0  0.64591  0.72911  0.02464  1.0000
  C   C13       1.0  0.16103  0.75632  0.62552  1.0000
  C   C14       1.0  0.83897  0.24368  0.37448  1.0000
  C   C15       1.0  0.58191  0.16690  0.97599  1.0000
  C   C16       1.0  0.41809  0.83310  0.02401  1.0000
  C   C17       1.0  0.03055  0.82697  0.83518  1.0000
  C   C18       1.0  0.96945  0.17303  0.16482  1.0000
  C   C19       1.0  0.04626  0.60850  0.86111  1.0000
  C   C20       1.0  0.95374  0.39150  0.13889  1.0000
  C   C21       1.0  0.44262  0.09809  0.67797  1.0000
  C   C22       1.0  0.55738  0.90191  0.32203  1.0000
  C   C23       1.0  0.05556  0.91654  0.77243  1.0000
  C   C24       1.0  0.94443  0.08346  0.22757  1.0000
  C   C25       1.0  0.38408  0.33496  0.11906  1.0000
  C   C26       1.0  0.61592  0.66504  0.88094  1.0000
  C   C27       1.0  0.21883  0.58611  0.44266  1.0000
  C   C28       1.0  0.78117  0.41389  0.55734  1.0000
  C   C29       1.0  0.36250  0.40406  0.43853  1.0000
  C   C30       1.0  0.63750  0.59594  0.56148  1.0000
  C   C31       1.0  0.36450  0.54316  0.47766  1.0000
  C   C32       1.0  0.63550  0.45684  0.52234  1.0000
  C   C33       1.0  0.11849  0.88169  0.66913  1.0000
  C   C34       1.0  0.88150  0.11831  0.33087  1.0000
  C   C35       1.0  0.55296  0.01753  0.96211  1.0000
  C   C36       1.0  0.44705  0.98247  0.03790  1.0000
  C   C37       1.0  0.35738  0.08067  0.55435  1.0000
  C   C38       1.0  0.64262  0.91934  0.44565  1.0000
  C   C39       1.0  0.22738  0.13167  0.53580  1.0000
  C   C40       1.0  0.77263  0.86833  0.46420  1.0000
  C   C41       1.0  0.50354  0.63854  0.53975  1.0000
  C   C42       1.0  0.49646  0.36146  0.46025  1.0000
  C   C43       1.0  0.47917  0.48268  0.17364  1.0000
  C   C44       1.0  0.52083  0.51732  0.82636  1.0000
  N   N1        1.0  0.44767  0.20246  0.91545  1.0000
  N   N2        1.0  0.55232  0.79754  0.08455  1.0000
  N   N3        1.0  0.24035  0.28176  0.88699  1.0000
  N   N4        1.0  0.75965  0.71824  0.11301  1.0000
  N   N5        1.0  0.21741  0.72430  0.51960  1.0000
  N   N6        1.0  0.78259  0.27570  0.48040  1.0000
  Cl  Cl1       1.0  0.84700  0.22266  0.77173  1.0000
  Cl  Cl2       1.0  0.15301  0.77734  0.22827  1.0000
  O   O1        1.0  0.11777  0.51387  0.85013  1.0000
  O   O2        1.0  0.88223  0.48613  0.14987  1.0000
  O   O3        1.0  0.94864  0.62560  0.92499  1.0000
  O   O4        1.0  0.05136  0.37441  0.07502  1.0000
