data_image0
_chemical_formula_structural       Zn4H40C40N4O20
_chemical_formula_sum              "Zn4 H40 C40 N4 O20"
_cell_length_a       5.7617
_cell_length_b       12.3235
_cell_length_c       15.288
_cell_angle_alpha    90
_cell_angle_beta     100.119
_cell_angle_gamma    90

_space_group_name_H-M_alt    "P 1"
_space_group_IT_number       1

loop_
  _space_group_symop_operation_xyz
  'x, y, z'

loop_
  _atom_site_type_symbol
  _atom_site_label
  _atom_site_symmetry_multiplicity
  _atom_site_fract_x
  _atom_site_fract_y
  _atom_site_fract_z
  _atom_site_occupancy
  Zn  Zn1       1.0  0.66181  0.34081  0.47031  1.0000
  Zn  Zn2       1.0  0.33820  0.34082  0.02969  1.0000
  Zn  Zn3       1.0  0.33821  0.65919  0.52969  1.0000
  Zn  Zn4       1.0  0.66181  0.65919  0.97031  1.0000
  H   H1        1.0  0.93091  0.13575  0.46928  1.0000
  H   H2        1.0  0.06906  0.13578  0.03072  1.0000
  H   H3        1.0  0.06910  0.86423  0.53073  1.0000
  H   H4        1.0  0.93093  0.86424  0.96927  1.0000
  H   H5        1.0  0.85700  0.94946  0.40032  1.0000
  H   H6        1.0  0.14295  0.94949  0.09968  1.0000
  H   H7        1.0  0.14299  0.05053  0.59969  1.0000
  H   H8        1.0  0.85700  0.05053  0.90031  1.0000
  H   H9        1.0  0.14740  0.05399  0.29886  1.0000
  H   H10       1.0  0.85258  0.05397  0.20112  1.0000
  H   H11       1.0  0.85262  0.94602  0.70114  1.0000
  H   H12       1.0  0.14739  0.94601  0.79886  1.0000
  H   H13       1.0  0.25033  0.23540  0.36527  1.0000
  H   H14       1.0  0.74967  0.23538  0.13472  1.0000
  H   H15       1.0  0.74970  0.76461  0.63472  1.0000
  H   H16       1.0  0.25034  0.76461  0.86528  1.0000
  H   H17       1.0  0.25474  0.86967  0.27630  1.0000
  H   H18       1.0  0.74521  0.86966  0.22368  1.0000
  H   H19       1.0  0.74524  0.13033  0.72370  1.0000
  H   H20       1.0  0.25475  0.13034  0.77630  1.0000
  H   H21       1.0  0.52319  0.81408  0.33492  1.0000
  H   H22       1.0  0.47673  0.81408  0.16507  1.0000
  H   H23       1.0  0.47679  0.18591  0.66507  1.0000
  H   H24       1.0  0.52322  0.18591  0.83493  1.0000
  H   H25       1.0  0.25526  0.31392  0.74473  1.0000
  H   H26       1.0  0.74473  0.31393  0.75527  1.0000
  H   H27       1.0  0.74474  0.68608  0.25528  1.0000
  H   H28       1.0  0.25526  0.68608  0.24474  1.0000
  H   H29       1.0  0.26533  0.50295  0.78718  1.0000
  H   H30       1.0  0.73470  0.50296  0.71282  1.0000
  H   H31       1.0  0.73468  0.49705  0.21283  1.0000
  H   H32       1.0  0.26529  0.49704  0.28717  1.0000
  H   H33       1.0  0.34410  0.42994  0.55331  1.0000
  H   H34       1.0  0.65591  0.42995  0.94670  1.0000
  H   H35       1.0  0.65591  0.57005  0.44670  1.0000
  H   H36       1.0  0.34409  0.57006  0.05330  1.0000
  H   H37       1.0  0.20686  0.37743  0.46243  1.0000
  H   H38       1.0  0.79314  0.37744  0.03758  1.0000
  H   H39       1.0  0.79316  0.62256  0.53758  1.0000
  H   H40       1.0  0.20686  0.62257  0.96242  1.0000
  C   C1        1.0  0.76184  0.11337  0.42949  1.0000
  C   C2        1.0  0.23816  0.11339  0.07051  1.0000
  C   C3        1.0  0.23820  0.88663  0.57052  1.0000
  C   C4        1.0  0.76182  0.88662  0.92949  1.0000
  C   C5        1.0  0.71851  0.01085  0.39243  1.0000
  C   C6        1.0  0.28145  0.01087  0.10756  1.0000
  C   C7        1.0  0.28151  0.98912  0.60757  1.0000
  C   C8        1.0  0.71852  0.98915  0.89243  1.0000
  C   C9        1.0  0.49553  0.98684  0.34305  1.0000
  C   C10       1.0  0.50447  0.98685  0.15695  1.0000
  C   C11       1.0  0.50448  0.01316  0.65695  1.0000
  C   C12       1.0  0.49549  0.01314  0.84304  1.0000
  C   C13       1.0  0.32442  0.06858  0.33543  1.0000
  C   C14       1.0  0.67555  0.06857  0.16455  1.0000
  C   C15       1.0  0.67561  0.93142  0.66457  1.0000
  C   C16       1.0  0.32443  0.93143  0.83544  1.0000
  C   C17       1.0  0.37976  0.16980  0.37296  1.0000
  C   C18       1.0  0.62026  0.16980  0.12704  1.0000
  C   C19       1.0  0.62028  0.83020  0.62704  1.0000
  C   C20       1.0  0.37974  0.83019  0.87296  1.0000
  C   C21       1.0  0.44596  0.88221  0.29328  1.0000
  C   C22       1.0  0.55399  0.88221  0.20671  1.0000
  C   C23       1.0  0.55403  0.11778  0.70671  1.0000
  C   C24       1.0  0.44598  0.11779  0.79329  1.0000
  C   C25       1.0  0.09692  0.36101  0.71910  1.0000
  C   C26       1.0  0.90307  0.36102  0.78090  1.0000
  C   C27       1.0  0.90307  0.63899  0.28091  1.0000
  C   C28       1.0  0.09692  0.63899  0.21911  1.0000
  C   C29       1.0  0.11725  0.48603  0.73280  1.0000
  C   C30       1.0  0.88277  0.48603  0.76720  1.0000
  C   C31       1.0  0.88275  0.51398  0.26720  1.0000
  C   C32       1.0  0.11722  0.51397  0.23280  1.0000
  C   C33       1.0  0.14736  0.55791  0.65619  1.0000
  C   C34       1.0  0.85268  0.55792  0.84381  1.0000
  C   C35       1.0  0.85267  0.44209  0.34381  1.0000
  C   C36       1.0  0.14732  0.44210  0.15619  1.0000
  C   C37       1.0  0.98451  0.31836  0.62861  1.0000
  C   C38       1.0  0.01549  0.31835  0.87139  1.0000
  C   C39       1.0  0.01550  0.68165  0.37140  1.0000
  C   C40       1.0  0.98451  0.68164  0.12862  1.0000
  N   N1        1.0  0.59614  0.19206  0.41929  1.0000
  N   N2        1.0  0.40384  0.19206  0.08070  1.0000
  N   N3        1.0  0.40388  0.80793  0.58071  1.0000
  N   N4        1.0  0.59615  0.80795  0.91929  1.0000
  O   O1        1.0  0.33371  0.53999  0.62063  1.0000
  O   O2        1.0  0.66633  0.54000  0.87938  1.0000
  O   O3        1.0  0.66632  0.46000  0.37938  1.0000
  O   O4        1.0  0.33367  0.46000  0.12062  1.0000
  O   O5        1.0  0.00817  0.63479  0.63081  1.0000
  O   O6        1.0  0.99188  0.63479  0.86918  1.0000
  O   O7        1.0  0.99185  0.36521  0.36918  1.0000
  O   O8        1.0  0.00812  0.36521  0.13082  1.0000
  O   O9        1.0  0.99475  0.21960  0.61188  1.0000
  O   O10       1.0  0.00527  0.21962  0.88813  1.0000
  O   O11       1.0  0.00526  0.78038  0.38815  1.0000
  O   O12       1.0  0.99475  0.78042  0.11188  1.0000
  O   O13       1.0  0.86892  0.39073  0.57626  1.0000
  O   O14       1.0  0.13107  0.39074  0.92374  1.0000
  O   O15       1.0  0.13110  0.60926  0.42375  1.0000
  O   O16       1.0  0.86893  0.60928  0.07626  1.0000
  O   O17       1.0  0.34809  0.37013  0.50984  1.0000
  O   O18       1.0  0.65191  0.37014  0.99016  1.0000
  O   O19       1.0  0.65192  0.62986  0.49016  1.0000
  O   O20       1.0  0.34810  0.62987  0.00984  1.0000
