data_image0
_chemical_formula_structural       Zn2CoH32C32N4O20
_chemical_formula_sum              "Zn2 Co1 H32 C32 N4 O20"
_cell_length_a       6.87005
_cell_length_b       10.0674
_cell_length_c       13.3108
_cell_angle_alpha    84.1039
_cell_angle_beta     79.6767
_cell_angle_gamma    78.7266

_space_group_name_H-M_alt    "P 1"
_space_group_IT_number       1

loop_
  _space_group_symop_operation_xyz
  'x, y, z'

loop_
  _atom_site_type_symbol
  _atom_site_label
  _atom_site_symmetry_multiplicity
  _atom_site_fract_x
  _atom_site_fract_y
  _atom_site_fract_z
  _atom_site_occupancy
  Zn  Zn1       1.0  0.66924  0.53119  0.61439  1.0000
  Zn  Zn2       1.0  0.33076  0.46881  0.38562  1.0000
  Co  Co1       1.0  0.50001  0.50000  1.00000  1.0000
  H   H1        1.0  0.94339  0.54687  0.72759  1.0000
  H   H2        1.0  0.05662  0.45313  0.27241  1.0000
  H   H3        1.0  0.72225  0.62560  0.77303  1.0000
  H   H4        1.0  0.27775  0.37440  0.22697  1.0000
  H   H5        1.0  0.56559  0.72765  0.91773  1.0000
  H   H6        1.0  0.43442  0.27236  0.08227  1.0000
  H   H7        1.0  0.42119  0.68990  0.84017  1.0000
  H   H8        1.0  0.57882  0.31010  0.15983  1.0000
  H   H9        1.0  0.15058  0.64656  0.04892  1.0000
  H   H10       1.0  0.84943  0.35344  0.95107  1.0000
  H   H11       1.0  0.14514  0.55683  0.95681  1.0000
  H   H12       1.0  0.85487  0.44317  0.04319  1.0000
  H   H13       1.0  0.12739  0.96804  0.75562  1.0000
  H   H14       1.0  0.87260  0.03196  0.24438  1.0000
  H   H15       1.0  0.56719  0.01149  0.56867  1.0000
  H   H16       1.0  0.43280  0.98851  0.43133  1.0000
  H   H17       1.0  0.61896  0.88129  0.73317  1.0000
  H   H18       1.0  0.38104  0.11871  0.26683  1.0000
  H   H19       1.0  0.54486  0.00599  0.89428  1.0000
  H   H20       1.0  0.45514  0.99401  0.10572  1.0000
  H   H21       1.0  0.82212  0.31670  0.75380  1.0000
  H   H22       1.0  0.17789  0.68330  0.24620  1.0000
  H   H23       1.0  0.18169  0.99186  0.57763  1.0000
  H   H24       1.0  0.81831  0.00813  0.42237  1.0000
  H   H25       1.0  0.10410  0.13459  0.41957  1.0000
  H   H26       1.0  0.89588  0.86541  0.58043  1.0000
  H   H27       1.0  0.87463  0.36087  0.43707  1.0000
  H   H28       1.0  0.12536  0.63913  0.56293  1.0000
  H   H29       1.0  0.19261  0.93459  0.93134  1.0000
  H   H30       1.0  0.80738  0.06541  0.06867  1.0000
  H   H31       1.0  0.94995  0.89550  0.93678  1.0000
  H   H32       1.0  0.05002  0.10451  0.06322  1.0000
  C   C1        1.0  0.41422  0.27423  0.72395  1.0000
  C   C2        1.0  0.58577  0.72577  0.27605  1.0000
  C   C3        1.0  0.46124  0.20377  0.63389  1.0000
  C   C4        1.0  0.53876  0.79623  0.36611  1.0000
  C   C5        1.0  0.53600  0.06360  0.63900  1.0000
  C   C6        1.0  0.46400  0.93640  0.36100  1.0000
  C   C7        1.0  0.56314  0.99049  0.73144  1.0000
  C   C8        1.0  0.43685  0.00951  0.26857  1.0000
  C   C9        1.0  0.52062  0.05919  0.82069  1.0000
  C   C10       1.0  0.47938  0.94082  0.17931  1.0000
  C   C11       1.0  0.44966  0.19951  0.81702  1.0000
  C   C12       1.0  0.55035  0.80049  0.18298  1.0000
  C   C13       1.0  0.31100  0.42277  0.72750  1.0000
  C   C14       1.0  0.68900  0.57724  0.27250  1.0000
  C   C15       1.0  0.43261  0.26665  0.91386  1.0000
  C   C16       1.0  0.56740  0.73335  0.08614  1.0000
  C   C17       1.0  0.43669  0.27039  0.52928  1.0000
  C   C18       1.0  0.56330  0.72961  0.47072  1.0000
  C   C19       1.0  0.88449  0.27186  0.68176  1.0000
  C   C20       1.0  0.11552  0.72815  0.31824  1.0000
  C   C21       1.0  0.00226  0.14194  0.67889  1.0000
  C   C22       1.0  0.99773  0.85806  0.32111  1.0000
  C   C23       1.0  0.08345  0.09125  0.58302  1.0000
  C   C24       1.0  0.91654  0.90875  0.41698  1.0000
  C   C25       1.0  0.04038  0.16997  0.49499  1.0000
  C   C26       1.0  0.95962  0.83002  0.50501  1.0000
  C   C27       1.0  0.91718  0.29677  0.50344  1.0000
  C   C28       1.0  0.08282  0.70322  0.49655  1.0000
  C   C29       1.0  0.98156  0.09266  0.86746  1.0000
  C   C30       1.0  0.01842  0.90734  0.13254  1.0000
  C   C31       1.0  0.03063  0.97690  0.94590  1.0000
  C   C32       1.0  0.96936  0.02311  0.05410  1.0000
  N   N1        1.0  0.84363  0.34541  0.59556  1.0000
  N   N2        1.0  0.15637  0.65458  0.40443  1.0000
  N   N3        1.0  0.04123  0.06109  0.76772  1.0000
  N   N4        1.0  0.95876  0.93891  0.23228  1.0000
  O   O1        1.0  0.40491  0.52141  0.69687  1.0000
  O   O2        1.0  0.59509  0.47859  0.30312  1.0000
  O   O3        1.0  0.12783  0.43983  0.76715  1.0000
  O   O4        1.0  0.87217  0.56017  0.23285  1.0000
  O   O5        1.0  0.47649  0.38634  0.90078  1.0000
  O   O6        1.0  0.52352  0.61366  0.09922  1.0000
  O   O7        1.0  0.38981  0.20162  0.99950  1.0000
  O   O8        1.0  0.61020  0.79839  0.00050  1.0000
  O   O9        1.0  0.32877  0.39163  0.52720  1.0000
  O   O10       1.0  0.67122  0.60837  0.47279  1.0000
  O   O11       1.0  0.51762  0.20944  0.45078  1.0000
  O   O12       1.0  0.48240  0.79056  0.54922  1.0000
  O   O13       1.0  0.81821  0.60699  0.70727  1.0000
  O   O14       1.0  0.18179  0.39301  0.29273  1.0000
  O   O15       1.0  0.54397  0.65862  0.86909  1.0000
  O   O16       1.0  0.45604  0.34139  0.13091  1.0000
  O   O17       1.0  0.19920  0.55648  0.01986  1.0000
  O   O18       1.0  0.80081  0.44352  0.98014  1.0000
  O   O19       1.0  0.88843  0.20600  0.89219  1.0000
  O   O20       1.0  0.11156  0.79400  0.10781  1.0000
