data_image0
_chemical_formula_structural       Tb4H22C18O32
_chemical_formula_sum              "Tb4 H22 C18 O32"
_cell_length_a       5.99651
_cell_length_b       10.8367
_cell_length_c       12.9777
_cell_angle_alpha    68.3524
_cell_angle_beta     81.3477
_cell_angle_gamma    84.3045

_space_group_name_H-M_alt    "P 1"
_space_group_IT_number       1

loop_
  _space_group_symop_operation_xyz
  'x, y, z'

loop_
  _atom_site_type_symbol
  _atom_site_label
  _atom_site_symmetry_multiplicity
  _atom_site_fract_x
  _atom_site_fract_y
  _atom_site_fract_z
  _atom_site_occupancy
  Tb  Tb1       1.0  0.56394  0.90397  0.16919  1.0000
  Tb  Tb2       1.0  0.43608  0.09603  0.83081  1.0000
  Tb  Tb3       1.0  0.07891  0.32206  0.35814  1.0000
  Tb  Tb4       1.0  0.92109  0.67793  0.64186  1.0000
  H   H1        1.0  0.22508  0.94086  0.33544  1.0000
  H   H2        1.0  0.77492  0.05913  0.66456  1.0000
  H   H3        1.0  0.10090  0.91260  0.24690  1.0000
  H   H4        1.0  0.89912  0.08740  0.75310  1.0000
  H   H5        1.0  0.82400  0.04435  0.45311  1.0000
  H   H6        1.0  0.17599  0.95565  0.54689  1.0000
  H   H7        1.0  0.69975  0.15700  0.36628  1.0000
  H   H8        1.0  0.30024  0.84300  0.63372  1.0000
  H   H9        1.0  0.76473  0.47122  0.47443  1.0000
  H   H10       1.0  0.23526  0.52878  0.52557  1.0000
  H   H11       1.0  0.62213  0.39402  0.42155  1.0000
  H   H12       1.0  0.37786  0.60598  0.57845  1.0000
  H   H13       1.0  0.94613  0.61091  0.27675  1.0000
  H   H14       1.0  0.05386  0.38908  0.72325  1.0000
  H   H15       1.0  0.21164  0.61281  0.23320  1.0000
  H   H16       1.0  0.78835  0.38719  0.76680  1.0000
  H   H17       1.0  0.79147  0.56295  0.01870  1.0000
  H   H18       1.0  0.20852  0.43705  0.98130  1.0000
  H   H19       1.0  0.31762  0.48848  0.13991  1.0000
  H   H20       1.0  0.68237  0.51152  0.86009  1.0000
  H   H21       1.0  0.31972  0.67360  0.95453  1.0000
  H   H22       1.0  0.68027  0.32641  0.04547  1.0000
  C   C1        1.0  0.61216  0.58688  0.04025  1.0000
  C   C2        1.0  0.38784  0.41312  0.95976  1.0000
  C   C3        1.0  0.49593  0.46111  0.12051  1.0000
  C   C4        1.0  0.50407  0.53890  0.87949  1.0000
  C   C5        1.0  0.49645  0.64491  0.93219  1.0000
  C   C6        1.0  0.50354  0.35509  0.06781  1.0000
  C   C7        1.0  0.60352  0.68944  0.09514  1.0000
  C   C8        1.0  0.39649  0.31056  0.90486  1.0000
  C   C9        1.0  0.60166  0.40351  0.22944  1.0000
  C   C10       1.0  0.39834  0.59649  0.77056  1.0000
  C   C11       1.0  0.60629  0.77241  0.85081  1.0000
  C   C12       1.0  0.39371  0.22759  0.14919  1.0000
  C   C13       1.0  0.71359  0.86035  0.41311  1.0000
  C   C14       1.0  0.28640  0.13964  0.58689  1.0000
  C   C15       1.0  0.74398  0.72081  0.40540  1.0000
  C   C16       1.0  0.25602  0.27920  0.59460  1.0000
  C   C17       1.0  0.06577  0.97875  0.05086  1.0000
  C   C18       1.0  0.93425  0.02126  0.94914  1.0000
  O   O1        1.0  0.42201  0.70874  0.15560  1.0000
  O   O2        1.0  0.57799  0.29126  0.84440  1.0000
  O   O3        1.0  0.77355  0.75757  0.07910  1.0000
  O   O4        1.0  0.22645  0.24243  0.92089  1.0000
  O   O5        1.0  0.81441  0.39080  0.22442  1.0000
  O   O6        1.0  0.18559  0.60920  0.77558  1.0000
  O   O7        1.0  0.46919  0.36847  0.32177  1.0000
  O   O8        1.0  0.53081  0.63153  0.67823  1.0000
  O   O9        1.0  0.53180  0.87793  0.86665  1.0000
  O   O10       1.0  0.46821  0.12207  0.13335  1.0000
  O   O11       1.0  0.76157  0.76758  0.77394  1.0000
  O   O12       1.0  0.23843  0.23242  0.22606  1.0000
  O   O13       1.0  0.63183  0.95202  0.33405  1.0000
  O   O14       1.0  0.36817  0.04798  0.66595  1.0000
  O   O15       1.0  0.78076  0.87251  0.49775  1.0000
  O   O16       1.0  0.21923  0.12749  0.50226  1.0000
  O   O17       1.0  0.70986  0.71348  0.31378  1.0000
  O   O18       1.0  0.29014  0.28652  0.68622  1.0000
  O   O19       1.0  0.80380  0.62517  0.48928  1.0000
  O   O20       1.0  0.19620  0.37483  0.51072  1.0000
  O   O21       1.0  0.94860  0.95253  0.14564  1.0000
  O   O22       1.0  0.05142  0.04748  0.85435  1.0000
  O   O23       1.0  0.27857  0.97304  0.03262  1.0000
  O   O24       1.0  0.72145  0.02696  0.96738  1.0000
  O   O25       1.0  0.22280  0.87864  0.29730  1.0000
  O   O26       1.0  0.77720  0.12135  0.70270  1.0000
  O   O27       1.0  0.82142  0.14214  0.41222  1.0000
  O   O28       1.0  0.17857  0.85786  0.58778  1.0000
  O   O29       1.0  0.75747  0.38891  0.45854  1.0000
  O   O30       1.0  0.24252  0.61109  0.54145  1.0000
  O   O31       1.0  0.08602  0.55441  0.27818  1.0000
  O   O32       1.0  0.91397  0.44558  0.72182  1.0000
