data_image0
_chemical_formula_structural       Cd4H56C32Br8N16O8
_chemical_formula_sum              "Cd4 H56 C32 Br8 N16 O8"
_cell_length_a       9.40201
_cell_length_b       9.48865
_cell_length_c       14.4935
_cell_angle_alpha    90
_cell_angle_beta     98.772
_cell_angle_gamma    90

_space_group_name_H-M_alt    "P 1"
_space_group_IT_number       1

loop_
  _space_group_symop_operation_xyz
  'x, y, z'

loop_
  _atom_site_type_symbol
  _atom_site_label
  _atom_site_symmetry_multiplicity
  _atom_site_fract_x
  _atom_site_fract_y
  _atom_site_fract_z
  _atom_site_occupancy
  Cd  Cd1       1.0  0.67761  0.27006  0.03008  1.0000
  Cd  Cd2       1.0  0.82239  0.77006  0.46992  1.0000
  Cd  Cd3       1.0  0.32239  0.72994  0.96992  1.0000
  Cd  Cd4       1.0  0.17761  0.22994  0.53008  1.0000
  H   H1        1.0  0.66940  0.29926  0.26269  1.0000
  H   H2        1.0  0.83060  0.79926  0.23731  1.0000
  H   H3        1.0  0.33061  0.70075  0.73731  1.0000
  H   H4        1.0  0.16940  0.20074  0.76269  1.0000
  H   H5        1.0  0.68011  0.11400  0.23716  1.0000
  H   H6        1.0  0.81989  0.61401  0.26284  1.0000
  H   H7        1.0  0.31989  0.88600  0.76284  1.0000
  H   H8        1.0  0.18011  0.38599  0.73716  1.0000
  H   H9        1.0  0.48726  0.95421  0.26853  1.0000
  H   H10       1.0  0.01274  0.45421  0.23147  1.0000
  H   H11       1.0  0.51274  0.04579  0.73147  1.0000
  H   H12       1.0  0.98726  0.54578  0.76853  1.0000
  H   H13       1.0  0.34028  0.02262  0.32197  1.0000
  H   H14       1.0  0.15972  0.52262  0.17803  1.0000
  H   H15       1.0  0.65972  0.97738  0.67803  1.0000
  H   H16       1.0  0.84028  0.47738  0.82197  1.0000
  H   H17       1.0  0.37708  0.12095  0.04535  1.0000
  H   H18       1.0  0.12292  0.62095  0.45465  1.0000
  H   H19       1.0  0.62292  0.87905  0.95465  1.0000
  H   H20       1.0  0.87708  0.37905  0.54535  1.0000
  H   H21       1.0  0.50870  0.01083  0.11330  1.0000
  H   H22       1.0  0.99130  0.51083  0.38670  1.0000
  H   H23       1.0  0.49130  0.98917  0.88670  1.0000
  H   H24       1.0  0.00871  0.48917  0.61330  1.0000
  H   H25       1.0  0.48995  0.44449  0.17368  1.0000
  H   H26       1.0  0.01005  0.94449  0.32632  1.0000
  H   H27       1.0  0.51005  0.55551  0.82632  1.0000
  H   H28       1.0  0.98995  0.05551  0.67368  1.0000
  H   H29       1.0  0.36634  0.37026  0.08069  1.0000
  H   H30       1.0  0.13365  0.87026  0.41931  1.0000
  H   H31       1.0  0.63366  0.62974  0.91931  1.0000
  H   H32       1.0  0.86634  0.12974  0.58069  1.0000
  H   H33       1.0  0.32634  0.27071  0.35580  1.0000
  H   H34       1.0  0.17366  0.77071  0.14419  1.0000
  H   H35       1.0  0.67366  0.72929  0.64419  1.0000
  H   H36       1.0  0.82634  0.22929  0.85580  1.0000
  H   H37       1.0  0.46569  0.38986  0.33298  1.0000
  H   H38       1.0  0.03430  0.88986  0.16702  1.0000
  H   H39       1.0  0.53431  0.61014  0.66702  1.0000
  H   H40       1.0  0.96569  0.11014  0.83298  1.0000
  H   H41       1.0  0.16325  0.17201  0.23223  1.0000
  H   H42       1.0  0.33675  0.67201  0.26777  1.0000
  H   H43       1.0  0.83675  0.82800  0.76777  1.0000
  H   H44       1.0  0.66325  0.32800  0.73223  1.0000
  H   H45       1.0  0.17914  0.21193  0.11356  1.0000
  H   H46       1.0  0.32086  0.71193  0.38644  1.0000
  H   H47       1.0  0.82086  0.78807  0.88644  1.0000
  H   H48       1.0  0.67914  0.28807  0.61356  1.0000
  H   H49       1.0  0.49946  0.15248  0.45053  1.0000
  H   H50       1.0  0.00054  0.65248  0.04947  1.0000
  H   H51       1.0  0.50054  0.84752  0.54947  1.0000
  H   H52       1.0  0.99946  0.34752  0.95053  1.0000
  H   H53       1.0  0.65432  0.24132  0.42150  1.0000
  H   H54       1.0  0.84568  0.74131  0.07850  1.0000
  H   H55       1.0  0.34568  0.75869  0.57850  1.0000
  H   H56       1.0  0.15432  0.25868  0.92150  1.0000
  C   C1        1.0  0.60798  0.20461  0.23778  1.0000
  C   C2        1.0  0.89202  0.70461  0.26222  1.0000
  C   C3        1.0  0.39202  0.79538  0.76222  1.0000
  C   C4        1.0  0.10798  0.29539  0.73778  1.0000
  C   C5        1.0  0.41257  0.04230  0.27084  1.0000
  C   C6        1.0  0.08743  0.54230  0.22916  1.0000
  C   C7        1.0  0.58744  0.95770  0.72916  1.0000
  C   C8        1.0  0.91257  0.45770  0.77084  1.0000
  C   C9        1.0  0.43636  0.10132  0.11547  1.0000
  C   C10       1.0  0.06364  0.60132  0.38453  1.0000
  C   C11       1.0  0.56364  0.89868  0.88453  1.0000
  C   C12       1.0  0.93636  0.39868  0.61547  1.0000
  C   C13       1.0  0.42590  0.35059  0.15057  1.0000
  C   C14       1.0  0.07410  0.85059  0.34943  1.0000
  C   C15       1.0  0.57411  0.64941  0.84943  1.0000
  C   C16       1.0  0.92589  0.14941  0.65057  1.0000
  C   C17       1.0  0.40028  0.29814  0.30691  1.0000
  C   C18       1.0  0.09972  0.79814  0.19309  1.0000
  C   C19       1.0  0.59972  0.70186  0.69309  1.0000
  C   C20       1.0  0.90028  0.20186  0.80691  1.0000
  C   C21       1.0  0.23947  0.19340  0.18348  1.0000
  C   C22       1.0  0.26053  0.69340  0.31652  1.0000
  C   C23       1.0  0.76053  0.80660  0.81652  1.0000
  C   C24       1.0  0.73947  0.30660  0.68348  1.0000
  C   C25       1.0  0.58164  0.15078  0.40424  1.0000
  C   C26       1.0  0.91836  0.65078  0.09576  1.0000
  C   C27       1.0  0.41836  0.84922  0.59576  1.0000
  C   C28       1.0  0.08164  0.34922  0.90424  1.0000
  C   C29       1.0  0.66797  0.01466  0.42139  1.0000
  C   C30       1.0  0.83203  0.51466  0.07861  1.0000
  C   C31       1.0  0.33203  0.98534  0.57861  1.0000
  C   C32       1.0  0.16797  0.48534  0.92139  1.0000
  Br  Br1       1.0  0.48136  0.27593  0.88358  1.0000
  Br  Br2       1.0  0.01864  0.77593  0.61642  1.0000
  Br  Br3       1.0  0.51864  0.72406  0.11642  1.0000
  Br  Br4       1.0  0.98136  0.22407  0.38358  1.0000
  Br  Br5       1.0  0.84927  0.05960  0.06802  1.0000
  Br  Br6       1.0  0.65073  0.55960  0.43198  1.0000
  Br  Br7       1.0  0.15073  0.94040  0.93200  1.0000
  Br  Br8       1.0  0.34927  0.44040  0.56802  1.0000
  N   N1        1.0  0.52475  0.22901  0.14579  1.0000
  N   N2        1.0  0.97525  0.72901  0.35421  1.0000
  N   N3        1.0  0.47525  0.77099  0.85421  1.0000
  N   N4        1.0  0.02474  0.27099  0.64579  1.0000
  N   N5        1.0  0.50563  0.17182  0.30728  1.0000
  N   N6        1.0  0.99437  0.67182  0.19272  1.0000
  N   N7        1.0  0.49437  0.82818  0.69272  1.0000
  N   N8        1.0  0.00563  0.32818  0.80728  1.0000
  N   N9        1.0  0.33511  0.07171  0.17996  1.0000
  N   N10       1.0  0.16489  0.57171  0.32004  1.0000
  N   N11       1.0  0.66489  0.92829  0.82004  1.0000
  N   N12       1.0  0.83511  0.42828  0.67996  1.0000
  N   N13       1.0  0.32431  0.32022  0.21489  1.0000
  N   N14       1.0  0.17569  0.82022  0.28511  1.0000
  N   N15       1.0  0.67569  0.67978  0.78511  1.0000
  N   N16       1.0  0.82431  0.17978  0.71489  1.0000
  O   O1        1.0  0.69301  0.97560  0.50664  1.0000
  O   O2        1.0  0.80699  0.47560  0.99336  1.0000
  O   O3        1.0  0.30699  0.02440  0.49336  1.0000
  O   O4        1.0  0.19301  0.52440  0.00664  1.0000
  O   O5        1.0  0.71079  0.94857  0.35509  1.0000
  O   O6        1.0  0.78921  0.44857  0.14491  1.0000
  O   O7        1.0  0.28922  0.05143  0.64492  1.0000
  O   O8        1.0  0.21079  0.55143  0.85509  1.0000
