data_image0
_chemical_formula_structural       Ni2H44C44N8O16
_chemical_formula_sum              "Ni2 H44 C44 N8 O16"
_cell_length_a       8.1426
_cell_length_b       13.4292
_cell_length_c       13.646
_cell_angle_alpha    110.921
_cell_angle_beta     96.7041
_cell_angle_gamma    96.3629

_space_group_name_H-M_alt    "P 1"
_space_group_IT_number       1

loop_
  _space_group_symop_operation_xyz
  'x, y, z'

loop_
  _atom_site_type_symbol
  _atom_site_label
  _atom_site_symmetry_multiplicity
  _atom_site_fract_x
  _atom_site_fract_y
  _atom_site_fract_z
  _atom_site_occupancy
  Ni  Ni1       1.0  0.49999  0.00000  0.50000  1.0000
  Ni  Ni2       1.0  0.50000  0.50000  1.00000  1.0000
  H   H1        1.0  0.29489  0.15904  0.47847  1.0000
  H   H2        1.0  0.73711  0.55849  0.85862  1.0000
  H   H3        1.0  0.70509  0.84097  0.52152  1.0000
  H   H4        1.0  0.26290  0.44152  0.14139  1.0000
  H   H5        1.0  0.29001  0.28104  0.38083  1.0000
  H   H6        1.0  0.74377  0.66563  0.74733  1.0000
  H   H7        1.0  0.71000  0.71897  0.61916  1.0000
  H   H8        1.0  0.25624  0.33437  0.25268  1.0000
  H   H9        1.0  0.74761  0.17912  0.27562  1.0000
  H   H10       1.0  0.22222  0.69085  0.77501  1.0000
  H   H11       1.0  0.25240  0.82088  0.72438  1.0000
  H   H12       1.0  0.77779  0.30914  0.22497  1.0000
  H   H13       1.0  0.73440  0.06297  0.37921  1.0000
  H   H14       1.0  0.24121  0.58589  0.88908  1.0000
  H   H15       1.0  0.26559  0.93703  0.62079  1.0000
  H   H16       1.0  0.75880  0.41411  0.11091  1.0000
  H   H17       1.0  0.96165  0.96991  0.41518  1.0000
  H   H18       1.0  0.07519  0.58450  0.03356  1.0000
  H   H19       1.0  0.03834  0.03009  0.58483  1.0000
  H   H20       1.0  0.92481  0.41549  0.96645  1.0000
  H   H21       1.0  0.95194  0.82938  0.34334  1.0000
  H   H22       1.0  0.08275  0.66290  0.16990  1.0000
  H   H23       1.0  0.04806  0.17062  0.65666  1.0000
  H   H24       1.0  0.91725  0.33710  0.83011  1.0000
  H   H25       1.0  0.70450  0.86982  0.07084  1.0000
  H   H26       1.0  0.32176  0.93456  0.11787  1.0000
  H   H27       1.0  0.29549  0.13017  0.92917  1.0000
  H   H28       1.0  0.67823  0.06543  0.88213  1.0000
  H   H29       1.0  0.58212  0.89905  0.91179  1.0000
  H   H30       1.0  0.41786  0.10094  0.08822  1.0000
  H   H31       1.0  0.02402  0.17971  0.17827  1.0000
  H   H32       1.0  0.97598  0.82028  0.82173  1.0000
  H   H33       1.0  0.87669  0.84876  0.18385  1.0000
  H   H34       1.0  0.16485  0.81635  0.14259  1.0000
  H   H35       1.0  0.12330  0.15124  0.81616  1.0000
  H   H36       1.0  0.83515  0.18365  0.85741  1.0000
  H   H37       1.0  0.36466  0.16807  0.71373  1.0000
  H   H38       1.0  0.53698  0.32500  0.82555  1.0000
  H   H39       1.0  0.63533  0.83193  0.28627  1.0000
  H   H40       1.0  0.46302  0.67500  0.17445  1.0000
  H   H41       1.0  0.54953  0.16152  0.69676  1.0000
  H   H42       1.0  0.42416  0.30923  0.90382  1.0000
  H   H43       1.0  0.45047  0.83848  0.30324  1.0000
  H   H44       1.0  0.57585  0.69078  0.09618  1.0000
  C   C1        1.0  0.39283  0.16616  0.43263  1.0000
  C   C2        1.0  0.62412  0.58763  0.83708  1.0000
  C   C3        1.0  0.60717  0.83385  0.56736  1.0000
  C   C4        1.0  0.37589  0.41237  0.16292  1.0000
  C   C5        1.0  0.39226  0.23484  0.37692  1.0000
  C   C6        1.0  0.62601  0.64829  0.77296  1.0000
  C   C7        1.0  0.60774  0.76516  0.62307  1.0000
  C   C8        1.0  0.37400  0.35171  0.22704  1.0000
  C   C9        1.0  0.51836  0.24230  0.31671  1.0000
  C   C10       1.0  0.48214  0.68908  0.74779  1.0000
  C   C11       1.0  0.48165  0.75769  0.68329  1.0000
  C   C12       1.0  0.51788  0.31092  0.25221  1.0000
  C   C13       1.0  0.64393  0.17881  0.31909  1.0000
  C   C14       1.0  0.34065  0.66404  0.79002  1.0000
  C   C15       1.0  0.35608  0.82119  0.68091  1.0000
  C   C16       1.0  0.65936  0.33596  0.20997  1.0000
  C   C17       1.0  0.63730  0.11172  0.37625  1.0000
  C   C18       1.0  0.34917  0.60408  0.85463  1.0000
  C   C19       1.0  0.36270  0.88829  0.62376  1.0000
  C   C20       1.0  0.65083  0.39592  0.14536  1.0000
  C   C21       1.0  0.19119  0.92409  0.36216  1.0000
  C   C22       1.0  0.84252  0.63978  0.07376  1.0000
  C   C23       1.0  0.80881  0.07591  0.63784  1.0000
  C   C24       1.0  0.15749  0.36022  0.92624  1.0000
  C   C25       1.0  0.99899  0.91056  0.34602  1.0000
  C   C26       1.0  0.03468  0.65583  0.08850  1.0000
  C   C27       1.0  0.00101  0.08944  0.65399  1.0000
  C   C28       1.0  0.96533  0.34417  0.91151  1.0000
  C   C29       1.0  0.94990  0.01717  0.23903  1.0000
  C   C30       1.0  0.07468  0.76086  0.97946  1.0000
  C   C31       1.0  0.05010  0.98282  0.76096  1.0000
  C   C32       1.0  0.92532  0.23914  0.02054  1.0000
  C   C33       1.0  0.87411  0.02357  0.13635  1.0000
  C   C34       1.0  0.14019  0.86583  0.97132  1.0000
  C   C35       1.0  0.12588  0.97643  0.86365  1.0000
  C   C36       1.0  0.85982  0.13416  0.02868  1.0000
  C   C37       1.0  0.74934  0.94414  0.06027  1.0000
  C   C38       1.0  0.26482  0.94565  0.04690  1.0000
  C   C39       1.0  0.25066  0.05586  0.93973  1.0000
  C   C40       1.0  0.73517  0.05435  0.95310  1.0000
  C   C41       1.0  0.68096  0.96018  0.96953  1.0000
  C   C42       1.0  0.31903  0.03982  0.03047  1.0000
  C   C43       1.0  0.92760  0.11771  0.11944  1.0000
  C   C44       1.0  0.07240  0.88228  0.88055  1.0000
  N   N1        1.0  0.51237  0.10372  0.43165  1.0000
  N   N2        1.0  0.48888  0.56628  0.87892  1.0000
  N   N3        1.0  0.48762  0.89628  0.56835  1.0000
  N   N4        1.0  0.51113  0.43372  0.12108  1.0000
  N   N5        1.0  0.92476  0.91971  0.24884  1.0000
  N   N6        1.0  0.10498  0.75292  0.07538  1.0000
  N   N7        1.0  0.07523  0.08029  0.75117  1.0000
  N   N8        1.0  0.89503  0.24708  0.92462  1.0000
  O   O1        1.0  0.26237  0.96910  0.46080  1.0000
  O   O2        1.0  0.76486  0.54336  0.03640  1.0000
  O   O3        1.0  0.73763  0.03091  0.53921  1.0000
  O   O4        1.0  0.23515  0.45664  0.96360  1.0000
  O   O5        1.0  0.26579  0.89028  0.28426  1.0000
  O   O6        1.0  0.77289  0.72389  0.10122  1.0000
  O   O7        1.0  0.73421  0.10972  0.71574  1.0000
  O   O8        1.0  0.22711  0.27612  0.89879  1.0000
  O   O9        1.0  0.02882  0.09928  0.31397  1.0000
  O   O10       1.0  0.99393  0.68396  0.89964  1.0000
  O   O11       1.0  0.97118  0.90072  0.68603  1.0000
  O   O12       1.0  0.00607  0.31604  0.10037  1.0000
  O   O13       1.0  0.45621  0.20209  0.69040  1.0000
  O   O14       1.0  0.53941  0.34529  0.90269  1.0000
  O   O15       1.0  0.54379  0.79791  0.30960  1.0000
  O   O16       1.0  0.46060  0.65472  0.09731  1.0000
