data_image0
_chemical_formula_structural       Cd2As4H36C32N4O20
_chemical_formula_sum              "Cd2 As4 H36 C32 N4 O20"
_cell_length_a       4.73963
_cell_length_b       9.73377
_cell_length_c       22.6323
_cell_angle_alpha    90.0002
_cell_angle_beta     92.1148
_cell_angle_gamma    90

_space_group_name_H-M_alt    "P 1"
_space_group_IT_number       1

loop_
  _space_group_symop_operation_xyz
  'x, y, z'

loop_
  _atom_site_type_symbol
  _atom_site_label
  _atom_site_symmetry_multiplicity
  _atom_site_fract_x
  _atom_site_fract_y
  _atom_site_fract_z
  _atom_site_occupancy
  Cd  Cd1       1.0  1.00000  1.00000  0.50000  1.0000
  Cd  Cd2       1.0  1.00000  0.50000  0.00000  1.0000
  As  As1       1.0  0.45965  0.14267  0.40342  1.0000
  As  As2       1.0  0.54034  0.64267  0.09658  1.0000
  As  As3       1.0  0.54035  0.85733  0.59658  1.0000
  As  As4       1.0  0.45965  0.35733  0.90342  1.0000
  H   H1        1.0  0.19156  0.94742  0.12794  1.0000
  H   H2        1.0  0.80844  0.44742  0.37206  1.0000
  H   H3        1.0  0.80844  0.05258  0.87206  1.0000
  H   H4        1.0  0.19156  0.55258  0.62794  1.0000
  H   H5        1.0  0.89620  0.24416  0.42157  1.0000
  H   H6        1.0  0.10380  0.74417  0.07843  1.0000
  H   H7        1.0  0.10380  0.75584  0.57843  1.0000
  H   H8        1.0  0.89619  0.25584  0.92157  1.0000
  H   H9        1.0  0.33270  0.36406  0.09002  1.0000
  H   H10       1.0  0.66730  0.86406  0.40998  1.0000
  H   H11       1.0  0.66731  0.63594  0.90998  1.0000
  H   H12       1.0  0.33271  0.13594  0.59002  1.0000
  H   H13       1.0  0.05157  0.28033  0.31743  1.0000
  H   H14       1.0  0.94843  0.78033  0.18257  1.0000
  H   H15       1.0  0.94843  0.71967  0.68257  1.0000
  H   H16       1.0  0.05157  0.21967  0.81743  1.0000
  H   H17       1.0  0.89856  0.23593  0.21507  1.0000
  H   H18       1.0  0.10143  0.73593  0.28493  1.0000
  H   H19       1.0  0.10143  0.76407  0.78493  1.0000
  H   H20       1.0  0.89857  0.26407  0.71507  1.0000
  H   H21       1.0  0.46867  0.88838  0.21040  1.0000
  H   H22       1.0  0.53132  0.38837  0.28960  1.0000
  H   H23       1.0  0.53133  0.11162  0.78960  1.0000
  H   H24       1.0  0.46868  0.61162  0.71040  1.0000
  H   H25       1.0  0.62780  0.93541  0.31280  1.0000
  H   H26       1.0  0.37220  0.43542  0.18720  1.0000
  H   H27       1.0  0.37219  0.06459  0.68720  1.0000
  H   H28       1.0  0.62780  0.56459  0.81280  1.0000
  H   H29       1.0  0.69775  0.13063  0.13485  1.0000
  H   H30       1.0  0.30225  0.63063  0.36515  1.0000
  H   H31       1.0  0.30225  0.86937  0.86515  1.0000
  H   H32       1.0  0.69776  0.36937  0.63485  1.0000
  H   H33       1.0  0.82214  0.04402  0.07322  1.0000
  H   H34       1.0  0.17786  0.54402  0.42678  1.0000
  H   H35       1.0  0.17786  0.95598  0.92678  1.0000
  H   H36       1.0  0.82215  0.45598  0.57321  1.0000
  C   C1        1.0  0.34717  0.11024  0.32256  1.0000
  C   C2        1.0  0.65282  0.61023  0.17744  1.0000
  C   C3        1.0  0.65283  0.88976  0.67744  1.0000
  C   C4        1.0  0.34717  0.38976  0.82256  1.0000
  C   C5        1.0  0.14345  0.19415  0.29420  1.0000
  C   C6        1.0  0.85655  0.69415  0.20580  1.0000
  C   C7        1.0  0.85654  0.80585  0.70580  1.0000
  C   C8        1.0  0.14345  0.30586  0.79420  1.0000
  C   C9        1.0  0.05673  0.16886  0.23592  1.0000
  C   C10       1.0  0.94327  0.66886  0.26408  1.0000
  C   C11       1.0  0.94327  0.83114  0.76408  1.0000
  C   C12       1.0  0.05673  0.33114  0.73592  1.0000
  C   C13       1.0  0.16932  0.05676  0.20477  1.0000
  C   C14       1.0  0.83067  0.55676  0.29523  1.0000
  C   C15       1.0  0.83067  0.94324  0.79523  1.0000
  C   C16       1.0  0.16933  0.44324  0.70477  1.0000
  C   C17       1.0  0.37789  0.97443  0.23395  1.0000
  C   C18       1.0  0.62211  0.47443  0.26605  1.0000
  C   C19       1.0  0.62212  0.02557  0.76605  1.0000
  C   C20       1.0  0.37789  0.52557  0.73395  1.0000
  C   C21       1.0  0.46644  0.00070  0.29182  1.0000
  C   C22       1.0  0.53355  0.50069  0.20818  1.0000
  C   C23       1.0  0.53355  0.99930  0.70818  1.0000
  C   C24       1.0  0.46645  0.49930  0.79182  1.0000
  C   C25       1.0  0.89195  0.10458  0.11206  1.0000
  C   C26       1.0  0.10805  0.60458  0.38794  1.0000
  C   C27       1.0  0.10805  0.89542  0.88794  1.0000
  C   C28       1.0  0.89196  0.39542  0.61205  1.0000
  C   C29       1.0  0.00954  0.23933  0.08898  1.0000
  C   C30       1.0  0.99046  0.73933  0.41102  1.0000
  C   C31       1.0  0.99047  0.76067  0.91102  1.0000
  C   C32       1.0  0.00954  0.26067  0.58898  1.0000
  N   N1        1.0  0.08221  0.02337  0.14837  1.0000
  N   N2        1.0  0.91779  0.52337  0.35163  1.0000
  N   N3        1.0  0.91779  0.97663  0.85163  1.0000
  N   N4        1.0  0.08221  0.47663  0.64837  1.0000
  O   O1        1.0  0.18008  0.18559  0.44502  1.0000
  O   O2        1.0  0.81991  0.68559  0.05498  1.0000
  O   O3        1.0  0.81992  0.81441  0.55498  1.0000
  O   O4        1.0  0.18008  0.31441  0.94502  1.0000
  O   O5        1.0  0.69969  0.28224  0.40838  1.0000
  O   O6        1.0  0.30030  0.78224  0.09162  1.0000
  O   O7        1.0  0.30031  0.71776  0.59162  1.0000
  O   O8        1.0  0.69969  0.21776  0.90838  1.0000
  O   O9        1.0  0.63672  0.00320  0.43183  1.0000
  O   O10       1.0  0.36328  0.50320  0.06817  1.0000
  O   O11       1.0  0.36329  0.99680  0.56817  1.0000
  O   O12       1.0  0.63672  0.49680  0.93183  1.0000
  O   O13       1.0  0.27182  0.26639  0.10537  1.0000
  O   O14       1.0  0.72818  0.76640  0.39463  1.0000
  O   O15       1.0  0.72819  0.73360  0.89463  1.0000
  O   O16       1.0  0.27182  0.23361  0.60537  1.0000
  O   O17       1.0  0.85389  0.31415  0.05739  1.0000
  O   O18       1.0  0.14611  0.81414  0.44261  1.0000
  O   O19       1.0  0.14612  0.68586  0.94261  1.0000
  O   O20       1.0  0.85389  0.18586  0.55739  1.0000
