data_image0
_chemical_formula_structural       P4H40Pb8C24N4Cl8O20
_chemical_formula_sum              "P4 H40 Pb8 C24 N4 Cl8 O20"
_cell_length_a       9.9827
_cell_length_b       10.4369
_cell_length_c       11.9851
_cell_angle_alpha    90
_cell_angle_beta     98.0584
_cell_angle_gamma    90

_space_group_name_H-M_alt    "P 1"
_space_group_IT_number       1

loop_
  _space_group_symop_operation_xyz
  'x, y, z'

loop_
  _atom_site_type_symbol
  _atom_site_label
  _atom_site_symmetry_multiplicity
  _atom_site_fract_x
  _atom_site_fract_y
  _atom_site_fract_z
  _atom_site_occupancy
  P   P1        1.0  0.74924  0.62691  0.38176  1.0000
  P   P2        1.0  0.24924  0.87309  0.38176  1.0000
  P   P3        1.0  0.25076  0.37309  0.61824  1.0000
  P   P4        1.0  0.75077  0.12691  0.61824  1.0000
  H   H1        1.0  0.84729  0.48098  0.18549  1.0000
  H   H2        1.0  0.34729  0.01902  0.18549  1.0000
  H   H3        1.0  0.15272  0.51902  0.81451  1.0000
  H   H4        1.0  0.65271  0.98098  0.81451  1.0000
  H   H5        1.0  0.60492  0.54297  0.02741  1.0000
  H   H6        1.0  0.10492  0.95703  0.02741  1.0000
  H   H7        1.0  0.39508  0.45703  0.97259  1.0000
  H   H8        1.0  0.89507  0.04298  0.97259  1.0000
  H   H9        1.0  0.78068  0.55075  0.00893  1.0000
  H   H10       1.0  0.28068  0.94925  0.00892  1.0000
  H   H11       1.0  0.21932  0.44925  0.99107  1.0000
  H   H12       1.0  0.71932  0.05075  0.99107  1.0000
  H   H13       1.0  0.64082  0.33925  0.92948  1.0000
  H   H14       1.0  0.14082  0.16075  0.92948  1.0000
  H   H15       1.0  0.35918  0.66075  0.07052  1.0000
  H   H16       1.0  0.85918  0.83925  0.07052  1.0000
  H   H17       1.0  0.80233  0.32083  0.00944  1.0000
  H   H18       1.0  0.30233  0.17917  0.00944  1.0000
  H   H19       1.0  0.19767  0.67917  0.99056  1.0000
  H   H20       1.0  0.69766  0.82083  0.99056  1.0000
  H   H21       1.0  0.67133  0.19104  0.12433  1.0000
  H   H22       1.0  0.17133  0.30896  0.12434  1.0000
  H   H23       1.0  0.32867  0.80896  0.87567  1.0000
  H   H24       1.0  0.82867  0.69104  0.87567  1.0000
  H   H25       1.0  0.52503  0.28406  0.08810  1.0000
  H   H26       1.0  0.02503  0.21594  0.08810  1.0000
  H   H27       1.0  0.47497  0.71594  0.91190  1.0000
  H   H28       1.0  0.97497  0.78406  0.91190  1.0000
  H   H29       1.0  0.58340  0.40986  0.24594  1.0000
  H   H30       1.0  0.08339  0.09014  0.24594  1.0000
  H   H31       1.0  0.41661  0.59014  0.75406  1.0000
  H   H32       1.0  0.91661  0.90986  0.75406  1.0000
  H   H33       1.0  0.60258  0.63458  0.20555  1.0000
  H   H34       1.0  0.10258  0.86542  0.20555  1.0000
  H   H35       1.0  0.39742  0.36542  0.79445  1.0000
  H   H36       1.0  0.89742  0.13458  0.79445  1.0000
  H   H37       1.0  0.76844  0.69198  0.19215  1.0000
  H   H38       1.0  0.26844  0.80802  0.19215  1.0000
  H   H39       1.0  0.23156  0.30802  0.80785  1.0000
  H   H40       1.0  0.73155  0.19198  0.80784  1.0000
  Pb  Pb1       1.0  0.99752  0.82458  0.52415  1.0000
  Pb  Pb2       1.0  0.49752  0.67542  0.52414  1.0000
  Pb  Pb3       1.0  0.00248  0.17542  0.47585  1.0000
  Pb  Pb4       1.0  0.50248  0.32458  0.47586  1.0000
  Pb  Pb5       1.0  0.12528  0.52515  0.35734  1.0000
  Pb  Pb6       1.0  0.62528  0.97485  0.35734  1.0000
  Pb  Pb7       1.0  0.87472  0.47485  0.64266  1.0000
  Pb  Pb8       1.0  0.37472  0.02515  0.64266  1.0000
  C   C1        1.0  0.70386  0.49556  0.04495  1.0000
  C   C2        1.0  0.20386  0.00444  0.04495  1.0000
  C   C3        1.0  0.29614  0.50444  0.95505  1.0000
  C   C4        1.0  0.79614  0.99556  0.95505  1.0000
  C   C5        1.0  0.69877  0.35466  0.01308  1.0000
  C   C6        1.0  0.19877  0.14534  0.01308  1.0000
  C   C7        1.0  0.30123  0.64534  0.98692  1.0000
  C   C8        1.0  0.80122  0.85466  0.98692  1.0000
  C   C9        1.0  0.63559  0.28956  0.10799  1.0000
  C   C10       1.0  0.13559  0.21044  0.10799  1.0000
  C   C11       1.0  0.36441  0.71044  0.89201  1.0000
  C   C12       1.0  0.86441  0.78957  0.89201  1.0000
  C   C13       1.0  0.67393  0.37599  0.21259  1.0000
  C   C14       1.0  0.17393  0.12401  0.21260  1.0000
  C   C15       1.0  0.32607  0.62401  0.78741  1.0000
  C   C16       1.0  0.82607  0.87599  0.78741  1.0000
  C   C17       1.0  0.71120  0.61548  0.22693  1.0000
  C   C18       1.0  0.21120  0.88452  0.22693  1.0000
  C   C19       1.0  0.28880  0.38452  0.77307  1.0000
  C   C20       1.0  0.78879  0.11548  0.77307  1.0000
  C   C21       1.0  0.76537  0.30742  0.30609  1.0000
  C   C22       1.0  0.26536  0.19259  0.30609  1.0000
  C   C23       1.0  0.23464  0.69259  0.69391  1.0000
  C   C24       1.0  0.73465  0.80740  0.69391  1.0000
  N   N1        1.0  0.74179  0.49298  0.17138  1.0000
  N   N2        1.0  0.24179  0.00702  0.17138  1.0000
  N   N3        1.0  0.25821  0.50702  0.82862  1.0000
  N   N4        1.0  0.75821  0.99298  0.82862  1.0000
  Cl  Cl1       1.0  0.38479  0.53926  0.29306  1.0000
  Cl  Cl2       1.0  0.88479  0.96074  0.29306  1.0000
  Cl  Cl3       1.0  0.61521  0.46073  0.70694  1.0000
  Cl  Cl4       1.0  0.11521  0.03927  0.70694  1.0000
  Cl  Cl5       1.0  0.02963  0.58050  0.13949  1.0000
  Cl  Cl6       1.0  0.52963  0.91950  0.13949  1.0000
  Cl  Cl7       1.0  0.97037  0.41949  0.86051  1.0000
  Cl  Cl8       1.0  0.47037  0.08049  0.86051  1.0000
  O   O1        1.0  0.90392  0.63898  0.41461  1.0000
  O   O2        1.0  0.40392  0.86102  0.41462  1.0000
  O   O3        1.0  0.09608  0.36102  0.58538  1.0000
  O   O4        1.0  0.59608  0.13898  0.58538  1.0000
  O   O5        1.0  0.67284  0.75132  0.40427  1.0000
  O   O6        1.0  0.17284  0.74868  0.40428  1.0000
  O   O7        1.0  0.32716  0.24868  0.59573  1.0000
  O   O8        1.0  0.82716  0.25132  0.59572  1.0000
  O   O9        1.0  0.69168  0.51270  0.43953  1.0000
  O   O10       1.0  0.19167  0.98730  0.43953  1.0000
  O   O11       1.0  0.30833  0.48731  0.56047  1.0000
  O   O12       1.0  0.80833  0.01269  0.56047  1.0000
  O   O13       1.0  0.89164  0.33127  0.31982  1.0000
  O   O14       1.0  0.39165  0.16874  0.31983  1.0000
  O   O15       1.0  0.10835  0.66873  0.68018  1.0000
  O   O16       1.0  0.60835  0.83127  0.68018  1.0000
  O   O17       1.0  0.70728  0.22564  0.36086  1.0000
  O   O18       1.0  0.20727  0.27436  0.36086  1.0000
  O   O19       1.0  0.29272  0.77436  0.63914  1.0000
  O   O20       1.0  0.79272  0.72564  0.63914  1.0000
