data_image0
_chemical_formula_structural       Cu4H8C8Br4N4
_chemical_formula_sum              "Cu4 H8 C8 Br4 N4"
_cell_length_a       3.84987
_cell_length_b       7.30776
_cell_length_c       13.4346
_cell_angle_alpha    89.9973
_cell_angle_beta     89.9998
_cell_angle_gamma    91.5066

_space_group_name_H-M_alt    "P 1"
_space_group_IT_number       1

loop_
  _space_group_symop_operation_xyz
  'x, y, z'

loop_
  _atom_site_type_symbol
  _atom_site_label
  _atom_site_symmetry_multiplicity
  _atom_site_fract_x
  _atom_site_fract_y
  _atom_site_fract_z
  _atom_site_occupancy
  Cu  Cu1       1.0  0.69621  0.87092  0.96591  1.0000
  Cu  Cu2       1.0  0.69635  0.87090  0.53407  1.0000
  Cu  Cu3       1.0  0.30373  0.12908  0.03410  1.0000
  Cu  Cu4       1.0  0.30375  0.12908  0.46592  1.0000
  H   H1        1.0  0.81031  0.95061  0.75001  1.0000
  H   H2        1.0  0.18969  0.04940  0.25001  1.0000
  H   H3        1.0  0.31816  0.53127  0.91074  1.0000
  H   H4        1.0  0.31827  0.53126  0.58926  1.0000
  H   H5        1.0  0.68178  0.46872  0.08926  1.0000
  H   H6        1.0  0.68177  0.46875  0.41073  1.0000
  H   H7        1.0  0.14510  0.37439  0.75000  1.0000
  H   H8        1.0  0.85491  0.62560  0.24999  1.0000
  C   C1        1.0  0.66300  0.82087  0.74999  1.0000
  C   C2        1.0  0.33697  0.17912  0.25000  1.0000
  C   C3        1.0  0.39070  0.58812  0.83851  1.0000
  C   C4        1.0  0.39075  0.58810  0.66150  1.0000
  C   C5        1.0  0.60926  0.41189  0.16149  1.0000
  C   C6        1.0  0.60926  0.41189  0.33851  1.0000
  C   C7        1.0  0.29411  0.50314  0.75000  1.0000
  C   C8        1.0  0.70589  0.49687  0.24999  1.0000
  Br  Br1       1.0  0.82215  0.20533  0.92416  1.0000
  Br  Br2       1.0  0.82211  0.20528  0.57584  1.0000
  Br  Br3       1.0  0.17786  0.79469  0.07583  1.0000
  Br  Br4       1.0  0.17795  0.79469  0.42414  1.0000
  N   N1        1.0  0.57696  0.74805  0.83875  1.0000
  N   N2        1.0  0.57706  0.74806  0.66125  1.0000
  N   N3        1.0  0.42297  0.25195  0.16126  1.0000
  N   N4        1.0  0.42299  0.25196  0.33876  1.0000
