data_image0
_chemical_formula_structural       Co4H24C24N16
_chemical_formula_sum              "Co4 H24 C24 N16"
_cell_length_a       8.85671
_cell_length_b       9.89056
_cell_length_c       14.4503
_cell_angle_alpha    82.1122
_cell_angle_beta     72.1601
_cell_angle_gamma    63.4151

_space_group_name_H-M_alt    "P 1"
_space_group_IT_number       1

loop_
  _space_group_symop_operation_xyz
  'x, y, z'

loop_
  _atom_site_type_symbol
  _atom_site_label
  _atom_site_symmetry_multiplicity
  _atom_site_fract_x
  _atom_site_fract_y
  _atom_site_fract_z
  _atom_site_occupancy
  Co  Co1       1.0  0.60497  0.42000  0.87217  1.0000
  Co  Co2       1.0  0.89732  0.57984  0.12774  1.0000
  Co  Co3       1.0  0.22705  0.92002  0.62795  1.0000
  Co  Co4       1.0  0.77505  0.07982  0.37219  1.0000
  H   H1        1.0  0.19913  0.54263  0.93886  1.0000
  H   H2        1.0  0.68063  0.45728  0.06108  1.0000
  H   H3        1.0  0.88795  0.04254  0.56119  1.0000
  H   H4        1.0  0.49142  0.95738  0.43887  1.0000
  H   H5        1.0  0.56712  0.27197  0.09281  1.0000
  H   H6        1.0  0.93183  0.72805  0.90715  1.0000
  H   H7        1.0  0.40997  0.77256  0.40709  1.0000
  H   H8        1.0  0.58957  0.22739  0.59289  1.0000
  H   H9        1.0  0.23020  0.35813  0.21700  1.0000
  H   H10       1.0  0.80520  0.64188  0.78297  1.0000
  H   H11       1.0  0.19690  0.85811  0.28304  1.0000
  H   H12       1.0  0.33804  0.14188  0.71700  1.0000
  H   H13       1.0  0.47051  0.75600  0.77320  1.0000
  H   H14       1.0  0.99952  0.24403  0.22670  1.0000
  H   H15       1.0  0.99367  0.25614  0.72684  1.0000
  H   H16       1.0  0.97631  0.74396  0.27327  1.0000
  H   H17       1.0  0.41724  0.36452  0.73936  1.0000
  H   H18       1.0  0.52124  0.63577  0.26094  1.0000
  H   H19       1.0  0.90673  0.86456  0.76064  1.0000
  H   H20       1.0  0.53228  0.13574  0.23903  1.0000
  H   H21       1.0  0.24997  0.59188  0.62029  1.0000
  H   H22       1.0  0.46205  0.40794  0.37949  1.0000
  H   H23       1.0  0.62038  0.09187  0.87966  1.0000
  H   H24       1.0  0.59156  0.90793  0.12047  1.0000
  C   C1        1.0  0.25298  0.48179  0.99820  1.0000
  C   C2        1.0  0.73303  0.51810  0.00174  1.0000
  C   C3        1.0  0.00113  0.98194  0.50180  1.0000
  C   C4        1.0  0.48463  0.01799  0.49825  1.0000
  C   C5        1.0  0.44065  0.34252  0.07932  1.0000
  C   C6        1.0  0.86236  0.65752  0.92065  1.0000
  C   C7        1.0  0.27001  0.84302  0.42056  1.0000
  C   C8        1.0  0.53346  0.15695  0.57945  1.0000
  C   C9        1.0  0.27335  0.38442  0.14083  1.0000
  C   C10       1.0  0.79842  0.61563  0.85914  1.0000
  C   C11       1.0  0.16409  0.88440  0.35918  1.0000
  C   C12       1.0  0.40756  0.11557  0.64086  1.0000
  C   C13       1.0  0.43327  0.68020  0.74762  1.0000
  C   C14       1.0  0.86097  0.31978  0.25229  1.0000
  C   C15       1.0  0.93093  0.18029  0.75243  1.0000
  C   C16       1.0  0.86328  0.81971  0.24772  1.0000
  C   C17       1.0  0.40319  0.47971  0.72872  1.0000
  C   C18       1.0  0.61162  0.52053  0.27156  1.0000
  C   C19       1.0  0.88205  0.97977  0.77131  1.0000
  C   C20       1.0  0.63323  0.02048  0.22842  1.0000
  C   C21       1.0  0.31955  0.59262  0.67017  1.0000
  C   C22       1.0  0.58221  0.40739  0.32973  1.0000
  C   C23       1.0  0.73987  0.09261  0.82986  1.0000
  C   C24       1.0  0.66196  0.90739  0.17024  1.0000
  N   N1        1.0  0.42668  0.40522  0.98901  1.0000
  N   N2        1.0  0.82094  0.59472  0.01095  1.0000
  N   N3        1.0  0.16576  0.90585  0.51087  1.0000
  N   N4        1.0  0.58232  0.09408  0.48913  1.0000
  N   N5        1.0  0.15466  0.47276  0.08879  1.0000
  N   N6        1.0  0.71615  0.52718  0.91117  1.0000
  N   N7        1.0  0.99326  0.97246  0.41133  1.0000
  N   N8        1.0  0.37690  0.02747  0.58874  1.0000
  N   N9        1.0  0.47524  0.53588  0.77753  1.0000
  N   N10       1.0  0.78870  0.46435  0.22277  1.0000
  N   N11       1.0  0.00284  0.03597  0.72252  1.0000
  N   N12       1.0  0.76153  0.96428  0.27722  1.0000
  N   N13       1.0  0.33919  0.71956  0.68245  1.0000
  N   N14       1.0  0.74101  0.28024  0.31722  1.0000
  N   N15       1.0  0.77172  0.21959  0.81759  1.0000
  N   N16       1.0  0.80824  0.78023  0.18277  1.0000
