data_image0
_chemical_formula_structural       Li4H24C12O20
_chemical_formula_sum              "Li4 H24 C12 O20"
_cell_length_a       4.62536
_cell_length_b       5.24644
_cell_length_c       19.9191
_cell_angle_alpha    89.999
_cell_angle_beta     89.9991
_cell_angle_gamma    96.573

_space_group_name_H-M_alt    "P 1"
_space_group_IT_number       1

loop_
  _space_group_symop_operation_xyz
  'x, y, z'

loop_
  _atom_site_type_symbol
  _atom_site_label
  _atom_site_symmetry_multiplicity
  _atom_site_fract_x
  _atom_site_fract_y
  _atom_site_fract_z
  _atom_site_occupancy
  Li  Li1       1.0  0.34971  0.66973  0.78286  1.0000
  Li  Li2       1.0  0.65029  0.83027  0.28286  1.0000
  Li  Li3       1.0  0.65030  0.33027  0.21714  1.0000
  Li  Li4       1.0  0.34971  0.16973  0.71714  1.0000
  H   H1        1.0  0.98499  0.01190  0.81804  1.0000
  H   H2        1.0  0.01500  0.48810  0.31805  1.0000
  H   H3        1.0  0.01500  0.98810  0.18196  1.0000
  H   H4        1.0  0.98501  0.51190  0.68195  1.0000
  H   H5        1.0  0.92901  0.89378  0.74779  1.0000
  H   H6        1.0  0.07098  0.60622  0.24780  1.0000
  H   H7        1.0  0.07098  0.10621  0.25221  1.0000
  H   H8        1.0  0.92902  0.39379  0.75220  1.0000
  H   H9        1.0  0.09883  0.61479  0.90711  1.0000
  H   H10       1.0  0.90118  0.88523  0.40711  1.0000
  H   H11       1.0  0.90116  0.38520  0.09289  1.0000
  H   H12       1.0  0.09883  0.11478  0.59289  1.0000
  H   H13       1.0  0.71470  0.81497  0.92860  1.0000
  H   H14       1.0  0.28530  0.68505  0.42860  1.0000
  H   H15       1.0  0.28527  0.18502  0.07141  1.0000
  H   H16       1.0  0.71472  0.31497  0.57141  1.0000
  H   H17       1.0  0.24331  0.22119  0.92412  1.0000
  H   H18       1.0  0.75670  0.27884  0.42411  1.0000
  H   H19       1.0  0.75667  0.77881  0.07588  1.0000
  H   H20       1.0  0.24332  0.72117  0.57588  1.0000
  H   H21       1.0  0.71914  0.30895  0.98465  1.0000
  H   H22       1.0  0.28086  0.19105  0.48465  1.0000
  H   H23       1.0  0.28084  0.69103  0.01535  1.0000
  H   H24       1.0  0.71916  0.80896  0.51535  1.0000
  C   C1        1.0  0.60241  0.27296  0.85574  1.0000
  C   C2        1.0  0.39760  0.22705  0.35574  1.0000
  C   C3        1.0  0.39756  0.72706  0.14425  1.0000
  C   C4        1.0  0.60242  0.77293  0.64426  1.0000
  C   C5        1.0  0.40867  0.37865  0.90876  1.0000
  C   C6        1.0  0.59135  0.12137  0.40876  1.0000
  C   C7        1.0  0.59131  0.62134  0.09124  1.0000
  C   C8        1.0  0.40868  0.87865  0.59124  1.0000
  C   C9        1.0  0.59384  0.46626  0.97022  1.0000
  C   C10       1.0  0.40617  0.03375  0.47022  1.0000
  C   C11       1.0  0.40614  0.53372  0.02979  1.0000
  C   C12       1.0  0.59386  0.96627  0.52978  1.0000
  O   O1        1.0  0.60940  0.37403  0.79744  1.0000
  O   O2        1.0  0.39059  0.12598  0.29745  1.0000
  O   O3        1.0  0.39059  0.62598  0.20256  1.0000
  O   O4        1.0  0.60940  0.87401  0.70255  1.0000
  O   O5        1.0  0.09277  0.94561  0.77928  1.0000
  O   O6        1.0  0.90722  0.55439  0.27929  1.0000
  O   O7        1.0  0.90722  0.05439  0.22072  1.0000
  O   O8        1.0  0.09279  0.44561  0.72071  1.0000
  O   O9        1.0  0.74644  0.09336  0.87397  1.0000
  O   O10       1.0  0.25357  0.40666  0.37397  1.0000
  O   O11       1.0  0.25355  0.90663  0.12603  1.0000
  O   O12       1.0  0.74645  0.59335  0.62603  1.0000
  O   O13       1.0  0.27544  0.58567  0.88057  1.0000
  O   O14       1.0  0.72457  0.91436  0.38058  1.0000
  O   O15       1.0  0.72455  0.41434  0.11943  1.0000
  O   O16       1.0  0.27543  0.08564  0.61943  1.0000
  O   O17       1.0  0.80462  0.67958  0.95349  1.0000
  O   O18       1.0  0.19538  0.82044  0.45349  1.0000
  O   O19       1.0  0.19536  0.32041  0.04651  1.0000
  O   O20       1.0  0.80464  0.17958  0.54651  1.0000
