data_image0
_chemical_formula_structural       Tb2H22C30O18
_chemical_formula_sum              "Tb2 H22 C30 O18"
_cell_length_a       9.01872
_cell_length_b       9.76884
_cell_length_c       12.8855
_cell_angle_alpha    69.2918
_cell_angle_beta     86.1285
_cell_angle_gamma    61.121

_space_group_name_H-M_alt    "P 1"
_space_group_IT_number       1

loop_
  _space_group_symop_operation_xyz
  'x, y, z'

loop_
  _atom_site_type_symbol
  _atom_site_label
  _atom_site_symmetry_multiplicity
  _atom_site_fract_x
  _atom_site_fract_y
  _atom_site_fract_z
  _atom_site_occupancy
  Tb  Tb1       1.0  0.75289  0.94972  0.51887  1.0000
  Tb  Tb2       1.0  0.24710  0.05028  0.48113  1.0000
  H   H1        1.0  0.12810  0.74077  0.49538  1.0000
  H   H2        1.0  0.87190  0.25923  0.50462  1.0000
  H   H3        1.0  0.06048  0.63539  0.59014  1.0000
  H   H4        1.0  0.93952  0.36462  0.40986  1.0000
  H   H5        1.0  0.62246  0.85528  0.36194  1.0000
  H   H6        1.0  0.37754  0.14472  0.63806  1.0000
  H   H7        1.0  0.82690  0.73170  0.39515  1.0000
  H   H8        1.0  0.17310  0.26830  0.60485  1.0000
  H   H9        1.0  0.53066  0.33429  0.00118  1.0000
  H   H10       1.0  0.46935  0.66569  0.99882  1.0000
  H   H11       1.0  0.75165  0.27612  0.87045  1.0000
  H   H12       1.0  0.24836  0.72386  0.12955  1.0000
  H   H13       1.0  0.05593  0.16140  0.93894  1.0000
  H   H14       1.0  0.94407  0.83860  0.06107  1.0000
  H   H15       1.0  0.13739  0.09893  0.13897  1.0000
  H   H16       1.0  0.86261  0.90107  0.86103  1.0000
  H   H17       1.0  0.26722  0.56097  0.42369  1.0000
  H   H18       1.0  0.73278  0.43904  0.57631  1.0000
  H   H19       1.0  0.60515  0.72447  0.23817  1.0000
  H   H20       1.0  0.39485  0.27553  0.76183  1.0000
  H   H21       1.0  0.70652  0.49828  0.16209  1.0000
  H   H22       1.0  0.29349  0.50172  0.83790  1.0000
  C   C1        1.0  0.94278  0.12592  0.30227  1.0000
  C   C2        1.0  0.05722  0.87409  0.69773  1.0000
  C   C3        1.0  0.88357  0.17541  0.18210  1.0000
  C   C4        1.0  0.11643  0.82459  0.81790  1.0000
  C   C5        1.0  0.71260  0.24498  0.14063  1.0000
  C   C6        1.0  0.28740  0.75501  0.85937  1.0000
  C   C7        1.0  0.66498  0.28044  0.02963  1.0000
  C   C8        1.0  0.33503  0.71955  0.97038  1.0000
  C   C9        1.0  0.78877  0.24918  0.95711  1.0000
  C   C10       1.0  0.21124  0.75081  0.04289  1.0000
  C   C11       1.0  0.95902  0.18541  0.99551  1.0000
  C   C12       1.0  0.04098  0.81458  0.00449  1.0000
  C   C13       1.0  0.00525  0.14956  0.10683  1.0000
  C   C14       1.0  0.99475  0.85045  0.89317  1.0000
  C   C15       1.0  0.54402  0.40179  0.25091  1.0000
  C   C16       1.0  0.45598  0.59821  0.74909  1.0000
  C   C17       1.0  0.42069  0.41930  0.32567  1.0000
  C   C18       1.0  0.57931  0.58070  0.67433  1.0000
  C   C19       1.0  0.36385  0.54784  0.36676  1.0000
  C   C20       1.0  0.63615  0.45217  0.63324  1.0000
  C   C21       1.0  0.43122  0.65729  0.33762  1.0000
  C   C22       1.0  0.56877  0.34271  0.66238  1.0000
  C   C23       1.0  0.55479  0.63766  0.26350  1.0000
  C   C24       1.0  0.44522  0.36234  0.73651  1.0000
  C   C25       1.0  0.61161  0.51118  0.22027  1.0000
  C   C26       1.0  0.38840  0.48882  0.77973  1.0000
  C   C27       1.0  0.36028  0.29399  0.36864  1.0000
  C   C28       1.0  0.63972  0.70601  0.63136  1.0000
  C   C29       1.0  0.37491  0.78883  0.38611  1.0000
  C   C30       1.0  0.62509  0.21117  0.61389  1.0000
  O   O1        1.0  0.86852  0.06843  0.37824  1.0000
  O   O2        1.0  0.13149  0.93157  0.62177  1.0000
  O   O3        1.0  0.06917  0.14202  0.32038  1.0000
  O   O4        1.0  0.93083  0.85800  0.67962  1.0000
  O   O5        1.0  0.58256  0.28086  0.20816  1.0000
  O   O6        1.0  0.41744  0.71915  0.79184  1.0000
  O   O7        1.0  0.47330  0.13798  0.41629  1.0000
  O   O8        1.0  0.52669  0.86202  0.58371  1.0000
  O   O9        1.0  0.20349  0.33910  0.36483  1.0000
  O   O10       1.0  0.79652  0.66090  0.63517  1.0000
  O   O11       1.0  0.27277  0.79718  0.46068  1.0000
  O   O12       1.0  0.72722  0.20283  0.53932  1.0000
  O   O13       1.0  0.42804  0.89555  0.35526  1.0000
  O   O14       1.0  0.57196  0.10445  0.64475  1.0000
  O   O15       1.0  0.03328  0.71265  0.51266  1.0000
  O   O16       1.0  0.96671  0.28737  0.48734  1.0000
  O   O17       1.0  0.73475  0.84607  0.37894  1.0000
  O   O18       1.0  0.26525  0.15393  0.62106  1.0000
