data_image0
_chemical_formula_structural       Dy2H22C30O18
_chemical_formula_sum              "Dy2 H22 C30 O18"
_cell_length_a       8.99226
_cell_length_b       9.74038
_cell_length_c       12.8642
_cell_angle_alpha    68.4415
_cell_angle_beta     85.2181
_cell_angle_gamma    60.7353

_space_group_name_H-M_alt    "P 1"
_space_group_IT_number       1

loop_
  _space_group_symop_operation_xyz
  'x, y, z'

loop_
  _atom_site_type_symbol
  _atom_site_label
  _atom_site_symmetry_multiplicity
  _atom_site_fract_x
  _atom_site_fract_y
  _atom_site_fract_z
  _atom_site_occupancy
  Dy  Dy1       1.0  0.74618  0.55164  0.48087  1.0000
  Dy  Dy2       1.0  0.25383  0.44835  0.51913  1.0000
  H   H1        1.0  0.37000  0.76011  0.50320  1.0000
  H   H2        1.0  0.63000  0.23989  0.49679  1.0000
  H   H3        1.0  0.43614  0.86682  0.40587  1.0000
  H   H4        1.0  0.56386  0.13319  0.59412  1.0000
  H   H5        1.0  0.87180  0.64676  0.63700  1.0000
  H   H6        1.0  0.12819  0.35326  0.36300  1.0000
  H   H7        1.0  0.66679  0.77284  0.60074  1.0000
  H   H8        1.0  0.33320  0.22718  0.39925  1.0000
  H   H9        1.0  0.35335  0.40223  0.86207  1.0000
  H   H10       1.0  0.64667  0.59775  0.13793  1.0000
  H   H11       1.0  0.43112  0.34128  0.06287  1.0000
  H   H12       1.0  0.56889  0.65866  0.93714  1.0000
  H   H13       1.0  0.73557  0.22587  0.13195  1.0000
  H   H14       1.0  0.26444  0.77409  0.86806  1.0000
  H   H15       1.0  0.96075  0.16526  0.00160  1.0000
  H   H16       1.0  0.03925  0.83473  0.99840  1.0000
  H   H17       1.0  0.23113  0.93859  0.57586  1.0000
  H   H18       1.0  0.76886  0.06141  0.42414  1.0000
  H   H19       1.0  0.89096  0.77214  0.76352  1.0000
  H   H20       1.0  0.10903  0.22789  0.23647  1.0000
  H   H21       1.0  0.78922  0.99754  0.84157  1.0000
  H   H22       1.0  0.21077  0.00247  0.15844  1.0000
  C   C1        1.0  0.55349  0.37330  0.69845  1.0000
  C   C2        1.0  0.44652  0.62671  0.30153  1.0000
  C   C3        1.0  0.60995  0.32381  0.81937  1.0000
  C   C4        1.0  0.39004  0.67620  0.18063  1.0000
  C   C5        1.0  0.48570  0.35093  0.89455  1.0000
  C   C6        1.0  0.51431  0.64905  0.10545  1.0000
  C   C7        1.0  0.52968  0.31588  0.00627  1.0000
  C   C8        1.0  0.47032  0.68408  0.99375  1.0000
  C   C9        1.0  0.70011  0.25168  0.04515  1.0000
  C   C10       1.0  0.29990  0.74827  0.95486  1.0000
  C   C11       1.0  0.82629  0.21924  0.97279  1.0000
  C   C12       1.0  0.17371  0.78075  0.02722  1.0000
  C   C13       1.0  0.78110  0.25364  0.86150  1.0000
  C   C14       1.0  0.21890  0.74638  0.13850  1.0000
  C   C15       1.0  0.95265  0.09565  0.75120  1.0000
  C   C16       1.0  0.04734  0.90438  0.24879  1.0000
  C   C17       1.0  0.07692  0.07866  0.67544  1.0000
  C   C18       1.0  0.92310  0.92133  0.32457  1.0000
  C   C19       1.0  0.13390  0.95067  0.63358  1.0000
  C   C20       1.0  0.86609  0.04934  0.36642  1.0000
  C   C21       1.0  0.06624  0.84056  0.66319  1.0000
  C   C22       1.0  0.93375  0.15945  0.33681  1.0000
  C   C23       1.0  0.94196  0.85927  0.73849  1.0000
  C   C24       1.0  0.05803  0.14075  0.26151  1.0000
  C   C25       1.0  0.88497  0.98525  0.78263  1.0000
  C   C26       1.0  0.11504  0.01474  0.21739  1.0000
  C   C27       1.0  0.13836  0.20433  0.63201  1.0000
  C   C28       1.0  0.86165  0.79567  0.36799  1.0000
  C   C29       1.0  0.12269  0.70954  0.61396  1.0000
  C   C30       1.0  0.87729  0.29047  0.38603  1.0000
  O   O1        1.0  0.62873  0.43244  0.62210  1.0000
  O   O2        1.0  0.37129  0.56757  0.37789  1.0000
  O   O3        1.0  0.42821  0.35590  0.68015  1.0000
  O   O4        1.0  0.57179  0.64411  0.31985  1.0000
  O   O5        1.0  0.91387  0.21633  0.79441  1.0000
  O   O6        1.0  0.08614  0.78368  0.20559  1.0000
  O   O7        1.0  0.02508  0.36200  0.58344  1.0000
  O   O8        1.0  0.97493  0.63800  0.41656  1.0000
  O   O9        1.0  0.29607  0.15820  0.63640  1.0000
  O   O10       1.0  0.70393  0.84179  0.36361  1.0000
  O   O11       1.0  0.22539  0.70224  0.53826  1.0000
  O   O12       1.0  0.77459  0.29777  0.46174  1.0000
  O   O13       1.0  0.06917  0.60223  0.64528  1.0000
  O   O14       1.0  0.93084  0.39778  0.35471  1.0000
  O   O15       1.0  0.46351  0.79089  0.48469  1.0000
  O   O16       1.0  0.53649  0.20912  0.51531  1.0000
  O   O17       1.0  0.75941  0.65655  0.61956  1.0000
  O   O18       1.0  0.24059  0.34347  0.38043  1.0000
