data_image0
_chemical_formula_structural       Gd2H22C30O18
_chemical_formula_sum              "Gd2 H22 C30 O18"
_cell_length_a       9.03425
_cell_length_b       9.79179
_cell_length_c       12.8536
_cell_angle_alpha    68.9353
_cell_angle_beta     85.7167
_cell_angle_gamma    61.0615

_space_group_name_H-M_alt    "P 1"
_space_group_IT_number       1

loop_
  _space_group_symop_operation_xyz
  'x, y, z'

loop_
  _atom_site_type_symbol
  _atom_site_label
  _atom_site_symmetry_multiplicity
  _atom_site_fract_x
  _atom_site_fract_y
  _atom_site_fract_z
  _atom_site_occupancy
  Gd  Gd1       1.0  0.25306  0.44994  0.01925  1.0000
  Gd  Gd2       1.0  0.74695  0.55006  0.98075  1.0000
  H   H1        1.0  0.12497  0.35498  0.86065  1.0000
  H   H2        1.0  0.87502  0.64502  0.13934  1.0000
  H   H3        1.0  0.32880  0.23225  0.89376  1.0000
  H   H4        1.0  0.67119  0.76775  0.10624  1.0000
  H   H5        1.0  0.62919  0.24068  0.99577  1.0000
  H   H6        1.0  0.37081  0.75933  0.00423  1.0000
  H   H7        1.0  0.56173  0.13464  0.09105  1.0000
  H   H8        1.0  0.43828  0.86536  0.90895  1.0000
  H   H9        1.0  0.03153  0.83332  0.50135  1.0000
  H   H10       1.0  0.96847  0.16669  0.49865  1.0000
  H   H11       1.0  0.25087  0.77596  0.36842  1.0000
  H   H12       1.0  0.74913  0.22403  0.63159  1.0000
  H   H13       1.0  0.55455  0.66277  0.43461  1.0000
  H   H14       1.0  0.44545  0.33721  0.56539  1.0000
  H   H15       1.0  0.63772  0.60073  0.63462  1.0000
  H   H16       1.0  0.36228  0.39926  0.36538  1.0000
  H   H17       1.0  0.76804  0.06094  0.92374  1.0000
  H   H18       1.0  0.23196  0.93907  0.07627  1.0000
  H   H19       1.0  0.10851  0.22260  0.73809  1.0000
  H   H20       1.0  0.89148  0.77740  0.26191  1.0000
  H   H21       1.0  0.20951  0.99685  0.66166  1.0000
  H   H22       1.0  0.79048  0.00316  0.33834  1.0000
  C   C1        1.0  0.44468  0.62690  0.80026  1.0000
  C   C2        1.0  0.55532  0.37310  0.19974  1.0000
  C   C3        1.0  0.38484  0.67624  0.68007  1.0000
  C   C4        1.0  0.61516  0.32376  0.31993  1.0000
  C   C5        1.0  0.21395  0.74519  0.63970  1.0000
  C   C6        1.0  0.78606  0.25480  0.36031  1.0000
  C   C7        1.0  0.16570  0.78029  0.52870  1.0000
  C   C8        1.0  0.83430  0.21971  0.47131  1.0000
  C   C9        1.0  0.28850  0.74953  0.45501  1.0000
  C   C10       1.0  0.71150  0.25047  0.54500  1.0000
  C   C11       1.0  0.45860  0.68646  0.49221  1.0000
  C   C12       1.0  0.54140  0.31353  0.50779  1.0000
  C   C13       1.0  0.50560  0.65090  0.60353  1.0000
  C   C14       1.0  0.49440  0.34909  0.39647  1.0000
  C   C15       1.0  0.04602  0.90121  0.75087  1.0000
  C   C16       1.0  0.95398  0.09879  0.24913  1.0000
  C   C17       1.0  0.92185  0.91946  0.82568  1.0000
  C   C18       1.0  0.07815  0.08054  0.17433  1.0000
  C   C19       1.0  0.86537  0.04754  0.86686  1.0000
  C   C20       1.0  0.13463  0.95247  0.13314  1.0000
  C   C21       1.0  0.93336  0.15644  0.83751  1.0000
  C   C22       1.0  0.06663  0.84357  0.16249  1.0000
  C   C23       1.0  0.05762  0.13623  0.76328  1.0000
  C   C24       1.0  0.94237  0.86378  0.23671  1.0000
  C   C25       1.0  0.11422  0.01007  0.71999  1.0000
  C   C26       1.0  0.88577  0.98993  0.28001  1.0000
  C   C27       1.0  0.85957  0.79562  0.86848  1.0000
  C   C28       1.0  0.14043  0.20438  0.13152  1.0000
  C   C29       1.0  0.87688  0.28803  0.88571  1.0000
  C   C30       1.0  0.12311  0.71198  0.11428  1.0000
  O   O1        1.0  0.37057  0.56963  0.87737  1.0000
  O   O2        1.0  0.62943  0.43037  0.12263  1.0000
  O   O3        1.0  0.57113  0.64283  0.81744  1.0000
  O   O4        1.0  0.42887  0.35717  0.18257  1.0000
  O   O5        1.0  0.08443  0.78051  0.70819  1.0000
  O   O6        1.0  0.91557  0.21949  0.29181  1.0000
  O   O7        1.0  0.97163  0.63931  0.91622  1.0000
  O   O8        1.0  0.02837  0.36069  0.08378  1.0000
  O   O9        1.0  0.70280  0.84176  0.86410  1.0000
  O   O10       1.0  0.29720  0.15824  0.13589  1.0000
  O   O11       1.0  0.77425  0.29639  0.96063  1.0000
  O   O12       1.0  0.22575  0.70362  0.03938  1.0000
  O   O13       1.0  0.93030  0.39448  0.85424  1.0000
  O   O14       1.0  0.06970  0.60552  0.14576  1.0000
  O   O15       1.0  0.23662  0.34650  0.87729  1.0000
  O   O16       1.0  0.76338  0.65350  0.12272  1.0000
  O   O17       1.0  0.53440  0.21265  0.01334  1.0000
  O   O18       1.0  0.46560  0.78736  0.98666  1.0000
