data_image0
_chemical_formula_structural       Cd2H36C48N4O10
_chemical_formula_sum              "Cd2 H36 C48 N4 O10"
_cell_length_a       8.75332
_cell_length_b       10.1573
_cell_length_c       13.2942
_cell_angle_alpha    112.536
_cell_angle_beta     89.023
_cell_angle_gamma    92.5115

_space_group_name_H-M_alt    "P 1"
_space_group_IT_number       1

loop_
  _space_group_symop_operation_xyz
  'x, y, z'

loop_
  _atom_site_type_symbol
  _atom_site_label
  _atom_site_symmetry_multiplicity
  _atom_site_fract_x
  _atom_site_fract_y
  _atom_site_fract_z
  _atom_site_occupancy
  Cd  Cd1       1.0  0.47624  0.18532  0.32629  1.0000
  Cd  Cd2       1.0  0.52376  0.81469  0.67371  1.0000
  H   H1        1.0  0.54263  0.20241  0.55045  1.0000
  H   H2        1.0  0.45737  0.79760  0.44954  1.0000
  H   H3        1.0  0.53579  0.36208  0.55191  1.0000
  H   H4        1.0  0.46419  0.63794  0.44809  1.0000
  H   H5        1.0  0.86907  0.86703  0.22695  1.0000
  H   H6        1.0  0.13091  0.13298  0.77304  1.0000
  H   H7        1.0  0.48620  0.63630  0.29321  1.0000
  H   H8        1.0  0.51381  0.36370  0.70679  1.0000
  H   H9        1.0  0.91674  0.43633  0.20853  1.0000
  H   H10       1.0  0.08326  0.56366  0.79146  1.0000
  H   H11       1.0  0.11290  0.87916  0.24444  1.0000
  H   H12       1.0  0.88708  0.12084  0.75556  1.0000
  H   H13       1.0  0.27325  0.15327  0.51897  1.0000
  H   H14       1.0  0.72676  0.84671  0.48103  1.0000
  H   H15       1.0  0.93837  0.17781  0.13225  1.0000
  H   H16       1.0  0.06163  0.82218  0.86775  1.0000
  H   H17       1.0  0.45989  0.65470  0.01867  1.0000
  H   H18       1.0  0.54011  0.34532  0.98132  1.0000
  H   H19       1.0  0.03682  0.14695  0.94922  1.0000
  H   H20       1.0  0.96320  0.85303  0.05078  1.0000
  H   H21       1.0  0.00089  0.16737  0.58315  1.0000
  H   H22       1.0  0.99912  0.83263  0.41685  1.0000
  H   H23       1.0  0.49200  0.13643  0.06604  1.0000
  H   H24       1.0  0.50801  0.86355  0.93396  1.0000
  H   H25       1.0  0.35878  0.88114  0.15209  1.0000
  H   H26       1.0  0.64120  0.11887  0.84791  1.0000
  H   H27       1.0  0.79613  0.19077  0.46039  1.0000
  H   H28       1.0  0.20388  0.80923  0.53961  1.0000
  H   H29       1.0  0.06442  0.42382  0.07163  1.0000
  H   H30       1.0  0.93557  0.57620  0.92837  1.0000
  H   H31       1.0  0.31862  0.11433  0.90968  1.0000
  H   H32       1.0  0.68139  0.88565  0.09032  1.0000
  H   H33       1.0  0.31261  0.42538  0.98203  1.0000
  H   H34       1.0  0.68738  0.57463  0.01796  1.0000
  H   H35       1.0  0.86885  0.19054  0.28029  1.0000
  H   H36       1.0  0.13116  0.80946  0.71971  1.0000
  C   C1        1.0  0.82223  0.76938  0.23336  1.0000
  C   C2        1.0  0.17775  0.23062  0.76664  1.0000
  C   C3        1.0  0.67065  0.76657  0.26739  1.0000
  C   C4        1.0  0.32932  0.23343  0.73262  1.0000
  C   C5        1.0  0.69630  0.52509  0.25572  1.0000
  C   C6        1.0  0.30369  0.47492  0.74429  1.0000
  C   C7        1.0  0.57735  0.89712  0.30509  1.0000
  C   C8        1.0  0.42265  0.10288  0.69492  1.0000
  C   C9        1.0  0.62708  0.40267  0.27937  1.0000
  C   C10       1.0  0.37294  0.59733  0.72063  1.0000
  C   C11       1.0  0.60668  0.64205  0.27374  1.0000
  C   C12       1.0  0.39331  0.35796  0.72627  1.0000
  C   C13       1.0  0.11183  0.17416  0.30417  1.0000
  C   C14       1.0  0.88817  0.82583  0.69584  1.0000
  C   C15       1.0  0.84819  0.52863  0.22218  1.0000
  C   C16       1.0  0.15180  0.47138  0.77782  1.0000
  C   C17       1.0  0.91250  0.64965  0.20791  1.0000
  C   C18       1.0  0.08750  0.35035  0.79209  1.0000
  C   C19       1.0  0.15445  0.77926  0.18561  1.0000
  C   C20       1.0  0.84553  0.22074  0.81439  1.0000
  C   C21       1.0  0.06838  0.65114  0.16365  1.0000
  C   C22       1.0  0.93162  0.34886  0.83634  1.0000
  C   C23       1.0  0.16349  0.16756  0.19520  1.0000
  C   C24       1.0  0.83652  0.83244  0.80480  1.0000
  C   C25       1.0  0.18018  0.16275  0.46909  1.0000
  C   C26       1.0  0.81983  0.83724  0.53091  1.0000
  C   C27       1.0  0.06046  0.16664  0.11523  1.0000
  C   C28       1.0  0.93954  0.83335  0.88477  1.0000
  C   C29       1.0  0.35204  0.65362  0.06055  1.0000
  C   C30       1.0  0.64794  0.34640  0.93945  1.0000
  C   C31       1.0  0.11616  0.14909  0.01226  1.0000
  C   C32       1.0  0.88385  0.85091  0.98774  1.0000
  C   C33       1.0  0.02862  0.16977  0.50383  1.0000
  C   C34       1.0  0.97138  0.83022  0.49617  1.0000
  C   C35       1.0  0.36799  0.14194  0.07579  1.0000
  C   C36       1.0  0.63202  0.85805  0.92421  1.0000
  C   C37       1.0  0.29419  0.78059  0.13405  1.0000
  C   C38       1.0  0.70579  0.21943  0.86596  1.0000
  C   C39       1.0  0.91576  0.18130  0.43540  1.0000
  C   C40       1.0  0.08424  0.81870  0.56460  1.0000
  C   C41       1.0  0.13009  0.52397  0.09150  1.0000
  C   C42       1.0  0.86990  0.47604  0.90850  1.0000
  C   C43       1.0  0.27234  0.13404  0.99069  1.0000
  C   C44       1.0  0.72768  0.86595  0.00930  1.0000
  C   C45       1.0  0.27005  0.52502  0.04046  1.0000
  C   C46       1.0  0.72993  0.47498  0.95954  1.0000
  C   C47       1.0  0.95729  0.18213  0.33394  1.0000
  C   C48       1.0  0.04271  0.81787  0.66605  1.0000
  N   N1        1.0  0.22057  0.16683  0.37268  1.0000
  N   N2        1.0  0.77944  0.83315  0.62732  1.0000
  N   N3        1.0  0.31499  0.15737  0.17462  1.0000
  N   N4        1.0  0.68502  0.84262  0.82538  1.0000
  O   O1        1.0  0.47537  0.91001  0.37602  1.0000
  O   O2        1.0  0.52463  0.09001  0.62398  1.0000
  O   O3        1.0  0.61124  0.98928  0.26254  1.0000
  O   O4        1.0  0.38875  0.01072  0.73746  1.0000
  O   O5        1.0  0.56103  0.26310  0.50665  1.0000
  O   O6        1.0  0.43896  0.73691  0.49335  1.0000
  O   O7        1.0  0.51745  0.43046  0.34909  1.0000
  O   O8        1.0  0.48256  0.56951  0.65089  1.0000
  O   O9        1.0  0.67733  0.27835  0.23155  1.0000
  O   O10       1.0  0.32271  0.72165  0.76845  1.0000
