data_image0
_chemical_formula_structural       Cd6H56C24N16Cl12O4
_chemical_formula_sum              "Cd6 H56 C24 N16 Cl12 O4"
_cell_length_a       9.07253
_cell_length_b       9.88277
_cell_length_c       15.656
_cell_angle_alpha    90
_cell_angle_beta     90
_cell_angle_gamma    109.433

_space_group_name_H-M_alt    "P 1"
_space_group_IT_number       1

loop_
  _space_group_symop_operation_xyz
  'x, y, z'

loop_
  _atom_site_type_symbol
  _atom_site_label
  _atom_site_symmetry_multiplicity
  _atom_site_fract_x
  _atom_site_fract_y
  _atom_site_fract_z
  _atom_site_occupancy
  Cd  Cd1       1.0  0.08747  0.68900  0.95993  1.0000
  Cd  Cd2       1.0  0.58746  0.18900  0.54007  1.0000
  Cd  Cd3       1.0  0.91253  0.31100  0.04007  1.0000
  Cd  Cd4       1.0  0.41253  0.81100  0.45993  1.0000
  Cd  Cd5       1.0  0.00000  1.00000  1.00000  1.0000
  Cd  Cd6       1.0  0.50000  0.50000  0.50000  1.0000
  H   H1        1.0  0.37754  0.63539  0.00414  1.0000
  H   H2        1.0  0.87754  0.13539  0.49587  1.0000
  H   H3        1.0  0.62246  0.36461  0.99587  1.0000
  H   H4        1.0  0.12246  0.86461  0.50413  1.0000
  H   H5        1.0  0.26457  0.50298  0.95767  1.0000
  H   H6        1.0  0.76457  0.00298  0.54233  1.0000
  H   H7        1.0  0.73543  0.49702  0.04233  1.0000
  H   H8        1.0  0.23543  0.99702  0.45767  1.0000
  H   H9        1.0  0.99269  0.00664  0.61364  1.0000
  H   H10       1.0  0.49269  0.50664  0.88636  1.0000
  H   H11       1.0  0.00730  0.99335  0.38636  1.0000
  H   H12       1.0  0.50731  0.49335  0.11365  1.0000
  H   H13       1.0  0.18486  0.04385  0.61460  1.0000
  H   H14       1.0  0.68485  0.54385  0.88539  1.0000
  H   H15       1.0  0.81514  0.95615  0.38539  1.0000
  H   H16       1.0  0.31514  0.45614  0.11461  1.0000
  H   H17       1.0  0.15354  0.63538  0.75626  1.0000
  H   H18       1.0  0.65352  0.13539  0.74374  1.0000
  H   H19       1.0  0.84647  0.36461  0.24374  1.0000
  H   H20       1.0  0.34647  0.86461  0.25627  1.0000
  H   H21       1.0  0.20278  0.73633  0.66082  1.0000
  H   H22       1.0  0.70276  0.23633  0.83918  1.0000
  H   H23       1.0  0.79723  0.26366  0.33918  1.0000
  H   H24       1.0  0.29723  0.76366  0.16083  1.0000
  H   H25       1.0  0.98369  0.51042  0.63326  1.0000
  H   H26       1.0  0.48367  0.01041  0.86673  1.0000
  H   H27       1.0  0.01632  0.48959  0.36673  1.0000
  H   H28       1.0  0.51631  0.98957  0.13326  1.0000
  H   H29       1.0  0.91358  0.65602  0.62062  1.0000
  H   H30       1.0  0.41356  0.15601  0.87938  1.0000
  H   H31       1.0  0.08643  0.34398  0.37938  1.0000
  H   H32       1.0  0.58643  0.84398  0.12062  1.0000
  H   H33       1.0  0.87105  0.55120  0.71610  1.0000
  H   H34       1.0  0.37104  0.05120  0.78390  1.0000
  H   H35       1.0  0.12896  0.44880  0.28390  1.0000
  H   H36       1.0  0.62895  0.94879  0.21609  1.0000
  H   H37       1.0  0.96769  0.18876  0.82408  1.0000
  H   H38       1.0  0.46769  0.68878  0.67592  1.0000
  H   H39       1.0  0.03231  0.81123  0.17591  1.0000
  H   H40       1.0  0.53233  0.31125  0.32409  1.0000
  H   H41       1.0  0.94660  0.15593  0.71291  1.0000
  H   H42       1.0  0.44658  0.65594  0.78709  1.0000
  H   H43       1.0  0.05341  0.84406  0.28709  1.0000
  H   H44       1.0  0.55340  0.34407  0.21292  1.0000
  H   H45       1.0  0.15580  0.38858  0.74222  1.0000
  H   H46       1.0  0.65580  0.88859  0.75779  1.0000
  H   H47       1.0  0.84420  0.61141  0.25777  1.0000
  H   H48       1.0  0.34421  0.11142  0.24223  1.0000
  H   H49       1.0  0.24147  0.26985  0.69452  1.0000
  H   H50       1.0  0.74146  0.76984  0.80549  1.0000
  H   H51       1.0  0.75853  0.73014  0.30547  1.0000
  H   H52       1.0  0.25853  0.23014  0.19453  1.0000
  H   H53       1.0  0.25665  0.30062  0.80739  1.0000
  H   H54       1.0  0.75664  0.80063  0.69261  1.0000
  H   H55       1.0  0.74335  0.69937  0.19259  1.0000
  H   H56       1.0  0.24336  0.19938  0.30741  1.0000
  C   C1        1.0  0.08935  0.81936  0.75465  1.0000
  C   C2        1.0  0.58933  0.31937  0.74535  1.0000
  C   C3        1.0  0.91067  0.18063  0.24535  1.0000
  C   C4        1.0  0.41066  0.68064  0.25465  1.0000
  C   C5        1.0  0.04872  0.02489  0.78129  1.0000
  C   C6        1.0  0.54870  0.52489  0.71871  1.0000
  C   C7        1.0  0.95129  0.97512  0.21871  1.0000
  C   C8        1.0  0.45129  0.47512  0.28129  1.0000
  C   C9        1.0  0.11098  0.69600  0.70913  1.0000
  C   C10       1.0  0.61096  0.19600  0.79087  1.0000
  C   C11       1.0  0.88903  0.30399  0.29087  1.0000
  C   C12       1.0  0.38903  0.80400  0.20913  1.0000
  C   C13       1.0  0.96023  0.59801  0.66736  1.0000
  C   C14       1.0  0.46021  0.09801  0.83264  1.0000
  C   C15       1.0  0.03978  0.40200  0.33264  1.0000
  C   C16       1.0  0.53978  0.90199  0.16735  1.0000
  C   C17       1.0  0.02627  0.16538  0.76742  1.0000
  C   C18       1.0  0.52626  0.66539  0.73258  1.0000
  C   C19       1.0  0.97374  0.83462  0.23258  1.0000
  C   C20       1.0  0.47374  0.33462  0.26743  1.0000
  C   C21       1.0  0.18028  0.28820  0.75156  1.0000
  C   C22       1.0  0.68028  0.78820  0.74844  1.0000
  C   C23       1.0  0.81972  0.71180  0.24842  1.0000
  C   C24       1.0  0.31972  0.21181  0.25158  1.0000
  N   N1        1.0  0.07995  0.96605  0.62884  1.0000
  N   N2        1.0  0.57994  0.46605  0.87116  1.0000
  N   N3        1.0  0.92005  0.03394  0.37116  1.0000
  N   N4        1.0  0.42006  0.53395  0.12884  1.0000
  N   N5        1.0  0.07377  0.93952  0.71707  1.0000
  N   N6        1.0  0.57376  0.43952  0.78293  1.0000
  N   N7        1.0  0.92623  0.06048  0.28293  1.0000
  N   N8        1.0  0.42623  0.56048  0.21707  1.0000
  N   N9        1.0  0.07667  0.83229  0.83823  1.0000
  N   N10       1.0  0.57666  0.33229  0.66176  1.0000
  N   N11       1.0  0.92333  0.16771  0.16176  1.0000
  N   N12       1.0  0.42333  0.66772  0.33824  1.0000
  N   N13       1.0  0.04992  0.95921  0.85469  1.0000
  N   N14       1.0  0.54991  0.45921  0.64531  1.0000
  N   N15       1.0  0.95008  0.04079  0.14531  1.0000
  N   N16       1.0  0.45008  0.54080  0.35469  1.0000
  Cl  Cl1       1.0  0.24142  0.92264  0.03297  1.0000
  Cl  Cl2       1.0  0.74142  0.42264  0.46703  1.0000
  Cl  Cl3       1.0  0.75858  0.07736  0.96702  1.0000
  Cl  Cl4       1.0  0.25858  0.57736  0.53297  1.0000
  Cl  Cl5       1.0  0.80728  0.72199  0.00066  1.0000
  Cl  Cl6       1.0  0.30728  0.22199  0.49933  1.0000
  Cl  Cl7       1.0  0.19272  0.27801  0.99933  1.0000
  Cl  Cl8       1.0  0.69272  0.77801  0.50067  1.0000
  Cl  Cl9       1.0  0.95075  0.45193  0.88661  1.0000
  Cl  Cl10      1.0  0.45075  0.95194  0.61339  1.0000
  Cl  Cl11      1.0  0.04925  0.54806  0.11339  1.0000
  Cl  Cl12      1.0  0.54926  0.04807  0.38661  1.0000
  O   O1        1.0  0.32144  0.60698  0.94974  1.0000
  O   O2        1.0  0.82144  0.10699  0.55026  1.0000
  O   O3        1.0  0.67856  0.39301  0.05026  1.0000
  O   O4        1.0  0.17856  0.89302  0.44974  1.0000
