data_image0
_chemical_formula_structural       Cd3H48C28S4N20Cl2
_chemical_formula_sum              "Cd3 H48 C28 S4 N20 Cl2"
_cell_length_a       8.54694
_cell_length_b       11.2253
_cell_length_c       13.068
_cell_angle_alpha    73.8196
_cell_angle_beta     86.4498
_cell_angle_gamma    77.6685

_space_group_name_H-M_alt    "P 1"
_space_group_IT_number       1

loop_
  _space_group_symop_operation_xyz
  'x, y, z'

loop_
  _atom_site_type_symbol
  _atom_site_label
  _atom_site_symmetry_multiplicity
  _atom_site_fract_x
  _atom_site_fract_y
  _atom_site_fract_z
  _atom_site_occupancy
  Cd  Cd1       1.0  0.96267  0.57928  0.77068  1.0000
  Cd  Cd2       1.0  0.03732  0.42072  0.22932  1.0000
  Cd  Cd3       1.0  0.00000  0.50000  0.49999  1.0000
  H   H1        1.0  0.42605  0.87903  0.43620  1.0000
  H   H2        1.0  0.57396  0.12097  0.56381  1.0000
  H   H3        1.0  0.55525  0.77403  0.52841  1.0000
  H   H4        1.0  0.44475  0.22596  0.47159  1.0000
  H   H5        1.0  0.35268  0.00800  0.82656  1.0000
  H   H6        1.0  0.64731  0.99201  0.17344  1.0000
  H   H7        1.0  0.21286  0.02456  0.91917  1.0000
  H   H8        1.0  0.78713  0.97545  0.08082  1.0000
  H   H9        1.0  0.23912  0.64223  0.33891  1.0000
  H   H10       1.0  0.76090  0.35776  0.66109  1.0000
  H   H11       1.0  0.31015  0.78350  0.32170  1.0000
  H   H12       1.0  0.68988  0.21649  0.67830  1.0000
  H   H13       1.0  0.52445  0.62510  0.27348  1.0000
  H   H14       1.0  0.47556  0.37489  0.72653  1.0000
  H   H15       1.0  0.50556  0.51113  0.39585  1.0000
  H   H16       1.0  0.49444  0.48886  0.60416  1.0000
  H   H17       1.0  0.58471  0.64575  0.39414  1.0000
  H   H18       1.0  0.41530  0.35423  0.60587  1.0000
  H   H19       1.0  0.17689  0.77870  0.77747  1.0000
  H   H20       1.0  0.82311  0.22129  0.22253  1.0000
  H   H21       1.0  0.30730  0.86963  0.69505  1.0000
  H   H22       1.0  0.69270  0.13037  0.30496  1.0000
  H   H23       1.0  0.44070  0.72250  0.86443  1.0000
  H   H24       1.0  0.55930  0.27749  0.13557  1.0000
  H   H25       1.0  0.54121  0.69216  0.74843  1.0000
  H   H26       1.0  0.45879  0.30784  0.25157  1.0000
  H   H27       1.0  0.41523  0.59111  0.82265  1.0000
  H   H28       1.0  0.58478  0.40889  0.17735  1.0000
  H   H29       1.0  0.26968  0.07104  0.61196  1.0000
  H   H30       1.0  0.73032  0.92896  0.38804  1.0000
  H   H31       1.0  0.13584  0.19456  0.52572  1.0000
  H   H32       1.0  0.86417  0.80544  0.47428  1.0000
  H   H33       1.0  0.04454  0.98207  0.58008  1.0000
  H   H34       1.0  0.95547  0.01793  0.41992  1.0000
  H   H35       1.0  0.90220  0.10483  0.61456  1.0000
  H   H36       1.0  0.09780  0.89517  0.38543  1.0000
  H   H37       1.0  0.02785  0.99089  0.71368  1.0000
  H   H38       1.0  0.97215  0.00911  0.28632  1.0000
  H   H39       1.0  0.15202  0.17012  0.99650  1.0000
  H   H40       1.0  0.84797  0.82988  0.00349  1.0000
  H   H41       1.0  0.11897  0.33594  0.96514  1.0000
  H   H42       1.0  0.88102  0.66407  0.03486  1.0000
  H   H43       1.0  0.39111  0.23128  0.04484  1.0000
  H   H44       1.0  0.60888  0.76873  0.95516  1.0000
  H   H45       1.0  0.40512  0.33449  0.91570  1.0000
  H   H46       1.0  0.59487  0.66552  0.08429  1.0000
  H   H47       1.0  0.44610  0.16738  0.93439  1.0000
  H   H48       1.0  0.55389  0.83263  0.06561  1.0000
  C   C1        1.0  0.17559  0.56098  0.99033  1.0000
  C   C2        1.0  0.82439  0.43903  0.00966  1.0000
  C   C3        1.0  0.73656  0.87492  0.76434  1.0000
  C   C4        1.0  0.26342  0.12509  0.23567  1.0000
  C   C5        1.0  0.27457  0.68362  0.48110  1.0000
  C   C6        1.0  0.72543  0.31638  0.51890  1.0000
  C   C7        1.0  0.32398  0.68425  0.36993  1.0000
  C   C8        1.0  0.67604  0.31575  0.63007  1.0000
  C   C9        1.0  0.49529  0.61267  0.35826  1.0000
  C   C10       1.0  0.50472  0.38731  0.64175  1.0000
  C   C11       1.0  0.25309  0.72589  0.63801  1.0000
  C   C12       1.0  0.74691  0.27412  0.36199  1.0000
  C   C13       1.0  0.28499  0.77355  0.72779  1.0000
  C   C14       1.0  0.71501  0.22645  0.27221  1.0000
  C   C15       1.0  0.42955  0.68962  0.79419  1.0000
  C   C16       1.0  0.57045  0.31038  0.20581  1.0000
  C   C17       1.0  0.13874  0.21068  0.68182  1.0000
  C   C18       1.0  0.86126  0.78933  0.31818  1.0000
  C   C19       1.0  0.14865  0.13115  0.60685  1.0000
  C   C20       1.0  0.85135  0.86885  0.39315  1.0000
  C   C21       1.0  0.02335  0.04744  0.63042  1.0000
  C   C22       1.0  0.97666  0.95256  0.36957  1.0000
  C   C23       1.0  0.15419  0.26485  0.83091  1.0000
  C   C24       1.0  0.84581  0.73515  0.16908  1.0000
  C   C25       1.0  0.19096  0.25362  0.94315  1.0000
  C   C26       1.0  0.80904  0.74639  0.05685  1.0000
  C   C27       1.0  0.36949  0.24588  0.96005  1.0000
  C   C28       1.0  0.63050  0.75413  0.03994  1.0000
  S   S1        1.0  0.24675  0.55499  0.10482  1.0000
  S   S2        1.0  0.75324  0.44502  0.89517  1.0000
  S   S3        1.0  0.60631  0.00664  0.75590  1.0000
  S   S4        1.0  0.39369  0.99337  0.24411  1.0000
  N   N1        1.0  0.12533  0.56420  0.90708  1.0000
  N   N2        1.0  0.87466  0.43582  0.09291  1.0000
  N   N3        1.0  0.83477  0.78104  0.77193  1.0000
  N   N4        1.0  0.16521  0.21896  0.22806  1.0000
  N   N5        1.0  0.15216  0.65199  0.63643  1.0000
  N   N6        1.0  0.84784  0.34801  0.36357  1.0000
  N   N7        1.0  0.16469  0.62663  0.53857  1.0000
  N   N8        1.0  0.83532  0.37337  0.46143  1.0000
  N   N9        1.0  0.33192  0.74755  0.54188  1.0000
  N   N10       1.0  0.66809  0.25245  0.45812  1.0000
  N   N11       1.0  0.44113  0.82806  0.51492  1.0000
  N   N12       1.0  0.55888  0.17194  0.48508  1.0000
  N   N13       1.0  0.09642  0.36869  0.75513  1.0000
  N   N14       1.0  0.90357  0.63131  0.24487  1.0000
  N   N15       1.0  0.08869  0.33526  0.66206  1.0000
  N   N16       1.0  0.91131  0.66474  0.33794  1.0000
  N   N17       1.0  0.18117  0.16410  0.78724  1.0000
  N   N18       1.0  0.81882  0.83590  0.21276  1.0000
  N   N19       1.0  0.23098  0.03504  0.83940  1.0000
  N   N20       1.0  0.76902  0.96496  0.16060  1.0000
  Cl  Cl1       1.0  0.76928  0.60585  0.60738  1.0000
  Cl  Cl2       1.0  0.23072  0.39414  0.39261  1.0000
