data_image0
_chemical_formula_structural       Cd4H28C16N12Cl8
_chemical_formula_sum              "Cd4 H28 C16 N12 Cl8"
_cell_length_a       8.368
_cell_length_b       8.84928
_cell_length_c       10.8507
_cell_angle_alpha    89.9735
_cell_angle_beta     87.3713
_cell_angle_gamma    80.2271

_space_group_name_H-M_alt    "P 1"
_space_group_IT_number       1

loop_
  _space_group_symop_operation_xyz
  'x, y, z'

loop_
  _atom_site_type_symbol
  _atom_site_label
  _atom_site_symmetry_multiplicity
  _atom_site_fract_x
  _atom_site_fract_y
  _atom_site_fract_z
  _atom_site_occupancy
  Cd  Cd1       1.0  0.21472  0.75307  0.24240  1.0000
  Cd  Cd2       1.0  0.78527  0.24693  0.75761  1.0000
  Cd  Cd3       1.0  1.00000  0.00000  0.50000  1.0000
  Cd  Cd4       1.0  0.00000  0.00001  1.00000  1.0000
  H   H1        1.0  0.58528  0.17972  0.34686  1.0000
  H   H2        1.0  0.41472  0.82027  0.65314  1.0000
  H   H3        1.0  0.70294  0.50910  0.06368  1.0000
  H   H4        1.0  0.29707  0.49091  0.93631  1.0000
  H   H5        1.0  0.41409  0.31028  0.57297  1.0000
  H   H6        1.0  0.58590  0.68972  0.42703  1.0000
  H   H7        1.0  0.20125  0.31115  0.55534  1.0000
  H   H8        1.0  0.79873  0.68884  0.44466  1.0000
  H   H9        1.0  0.31743  0.40259  0.44517  1.0000
  H   H10       1.0  0.68258  0.59740  0.55481  1.0000
  H   H11       1.0  0.72551  0.88820  0.24912  1.0000
  H   H12       1.0  0.27450  0.11179  0.75089  1.0000
  H   H13       1.0  0.60368  0.95852  0.12638  1.0000
  H   H14       1.0  0.39633  0.04147  0.87362  1.0000
  H   H15       1.0  0.57258  0.78392  0.19995  1.0000
  H   H16       1.0  0.42742  0.21607  0.80006  1.0000
  H   H17       1.0  0.69275  0.66181  0.83284  1.0000
  H   H18       1.0  0.30726  0.33818  0.16716  1.0000
  H   H19       1.0  0.77153  0.83884  0.84137  1.0000
  H   H20       1.0  0.22849  0.16118  0.15863  1.0000
  H   H21       1.0  0.59084  0.81303  0.92794  1.0000
  H   H22       1.0  0.40916  0.18698  0.07206  1.0000
  H   H23       1.0  0.94570  0.32902  0.21780  1.0000
  H   H24       1.0  0.05430  0.67097  0.78218  1.0000
  H   H25       1.0  0.80595  0.45673  0.31072  1.0000
  H   H26       1.0  0.19403  0.54327  0.68928  1.0000
  H   H27       1.0  0.01668  0.46348  0.31605  1.0000
  H   H28       1.0  0.98334  0.53653  0.68395  1.0000
  C   C1        1.0  0.35561  0.15993  0.43367  1.0000
  C   C2        1.0  0.64440  0.84006  0.56634  1.0000
  C   C3        1.0  0.31987  0.30340  0.50678  1.0000
  C   C4        1.0  0.68013  0.69660  0.49322  1.0000
  C   C5        1.0  0.48225  0.98319  0.30304  1.0000
  C   C6        1.0  0.51776  0.01680  0.69695  1.0000
  C   C7        1.0  0.60306  0.89782  0.21466  1.0000
  C   C8        1.0  0.39695  0.10217  0.78533  1.0000
  C   C9        1.0  0.81085  0.69779  0.99719  1.0000
  C   C10       1.0  0.18914  0.30222  0.00282  1.0000
  C   C11       1.0  0.71172  0.75623  0.89318  1.0000
  C   C12       1.0  0.28829  0.24378  0.10682  1.0000
  C   C13       1.0  0.90510  0.56216  0.15686  1.0000
  C   C14       1.0  0.09490  0.43784  0.84315  1.0000
  C   C15       1.0  0.92046  0.44635  0.25527  1.0000
  C   C16       1.0  0.07954  0.55363  0.74473  1.0000
  N   N1        1.0  0.34412  0.94173  0.34204  1.0000
  N   N2        1.0  0.65588  0.05827  0.65797  1.0000
  N   N3        1.0  0.26504  0.05130  0.42447  1.0000
  N   N4        1.0  0.73495  0.94870  0.57554  1.0000
  N   N5        1.0  0.49269  0.11917  0.35899  1.0000
  N   N6        1.0  0.50731  0.88081  0.64101  1.0000
  N   N7        1.0  0.99158  0.67347  0.13955  1.0000
  N   N8        1.0  0.00842  0.32654  0.86045  1.0000
  N   N9        1.0  0.93185  0.75817  0.03986  1.0000
  N   N10       1.0  0.06814  0.24184  0.96014  1.0000
  N   N11       1.0  0.79260  0.57393  0.06820  1.0000
  N   N12       1.0  0.20741  0.42607  0.93180  1.0000
  Cl  Cl1       1.0  0.10719  0.71153  0.46566  1.0000
  Cl  Cl2       1.0  0.89280  0.28848  0.53434  1.0000
  Cl  Cl3       1.0  0.29297  0.84637  0.02100  1.0000
  Cl  Cl4       1.0  0.70703  0.15363  0.97901  1.0000
  Cl  Cl5       1.0  0.45439  0.53224  0.23823  1.0000
  Cl  Cl6       1.0  0.54561  0.46776  0.76177  1.0000
  Cl  Cl7       1.0  0.03711  0.96907  0.74800  1.0000
  Cl  Cl8       1.0  0.96288  0.03094  0.25200  1.0000
