data_image0
_chemical_formula_structural       Sn4P4H8C4O12
_chemical_formula_sum              "Sn4 P4 H8 C4 O12"
_cell_length_a       4.65311
_cell_length_b       6.30172
_cell_length_c       13.3757
_cell_angle_alpha    90.0019
_cell_angle_beta     90.0018
_cell_angle_gamma    98.9822

_space_group_name_H-M_alt    "P 1"
_space_group_IT_number       1

loop_
  _space_group_symop_operation_xyz
  'x, y, z'

loop_
  _atom_site_type_symbol
  _atom_site_label
  _atom_site_symmetry_multiplicity
  _atom_site_fract_x
  _atom_site_fract_y
  _atom_site_fract_z
  _atom_site_occupancy
  Sn  Sn1       1.0  0.86522  0.49858  0.34342  1.0000
  Sn  Sn2       1.0  0.86513  0.99859  0.15658  1.0000
  Sn  Sn3       1.0  0.13480  0.50142  0.65659  1.0000
  Sn  Sn4       1.0  0.13486  0.00139  0.84341  1.0000
  P   P1        1.0  0.31076  0.10618  0.35894  1.0000
  P   P2        1.0  0.31075  0.60617  0.14107  1.0000
  P   P3        1.0  0.68924  0.89382  0.64106  1.0000
  P   P4        1.0  0.68925  0.39383  0.85894  1.0000
  H   H1        1.0  0.52065  0.81529  0.42544  1.0000
  H   H2        1.0  0.52066  0.31529  0.07456  1.0000
  H   H3        1.0  0.47935  0.18471  0.57456  1.0000
  H   H4        1.0  0.47934  0.68471  0.92544  1.0000
  H   H5        1.0  0.19980  0.85593  0.49049  1.0000
  H   H6        1.0  0.19982  0.35593  0.00950  1.0000
  H   H7        1.0  0.80020  0.14407  0.50951  1.0000
  H   H8        1.0  0.80019  0.64406  0.99049  1.0000
  C   C1        1.0  0.40675  0.93797  0.45937  1.0000
  C   C2        1.0  0.40675  0.43796  0.04064  1.0000
  C   C3        1.0  0.59325  0.06204  0.54064  1.0000
  C   C4        1.0  0.59325  0.56204  0.95936  1.0000
  O   O1        1.0  0.59056  0.19404  0.29794  1.0000
  O   O2        1.0  0.59055  0.69402  0.20208  1.0000
  O   O3        1.0  0.40945  0.80597  0.70207  1.0000
  O   O4        1.0  0.40945  0.30596  0.79793  1.0000
  O   O5        1.0  0.17970  0.29238  0.40642  1.0000
  O   O6        1.0  0.17966  0.79236  0.09359  1.0000
  O   O7        1.0  0.82030  0.70763  0.59358  1.0000
  O   O8        1.0  0.82034  0.20763  0.90641  1.0000
  O   O9        1.0  0.09663  0.95377  0.29310  1.0000
  O   O10       1.0  0.09666  0.45372  0.20690  1.0000
  O   O11       1.0  0.90338  0.04624  0.70689  1.0000
  O   O12       1.0  0.90333  0.54627  0.79310  1.0000
