data_image0
_chemical_formula_structural       Cu3H22C48N6Cl6O12
_chemical_formula_sum              "Cu3 H22 C48 N6 Cl6 O12"
_cell_length_a       9.14412
_cell_length_b       10.3039
_cell_length_c       13.089
_cell_angle_alpha    91.6313
_cell_angle_beta     96.6063
_cell_angle_gamma    111.327

_space_group_name_H-M_alt    "P 1"
_space_group_IT_number       1

loop_
  _space_group_symop_operation_xyz
  'x, y, z'

loop_
  _atom_site_type_symbol
  _atom_site_label
  _atom_site_symmetry_multiplicity
  _atom_site_fract_x
  _atom_site_fract_y
  _atom_site_fract_z
  _atom_site_occupancy
  Cu  Cu1       1.0  0.99999  0.99999  0.00000  1.0000
  Cu  Cu2       1.0  0.71812  0.74092  0.79050  1.0000
  Cu  Cu3       1.0  0.28191  0.25911  0.20949  1.0000
  H   H1        1.0  0.55110  0.88267  0.92591  1.0000
  H   H2        1.0  0.44889  0.11734  0.07409  1.0000
  H   H3        1.0  0.33655  0.98029  0.88809  1.0000
  H   H4        1.0  0.66343  0.01972  0.11191  1.0000
  H   H5        1.0  0.23525  0.99041  0.70343  1.0000
  H   H6        1.0  0.76473  0.00960  0.29657  1.0000
  H   H7        1.0  0.33843  0.89134  0.56380  1.0000
  H   H8        1.0  0.66157  0.10867  0.43620  1.0000
  H   H9        1.0  0.42674  0.76927  0.45301  1.0000
  H   H10       1.0  0.57325  0.23073  0.54698  1.0000
  H   H11       1.0  0.57917  0.66984  0.35155  1.0000
  H   H12       1.0  0.42083  0.33016  0.64844  1.0000
  H   H13       1.0  0.80933  0.62042  0.43994  1.0000
  H   H14       1.0  0.19068  0.37958  0.56005  1.0000
  H   H15       1.0  0.02404  0.60798  0.54277  1.0000
  H   H16       1.0  0.97597  0.39202  0.45723  1.0000
  H   H17       1.0  0.20214  0.53875  0.67307  1.0000
  H   H18       1.0  0.79788  0.46125  0.32693  1.0000
  H   H19       1.0  0.17076  0.55490  0.85965  1.0000
  H   H20       1.0  0.82927  0.44510  0.14035  1.0000
  H   H21       1.0  0.97121  0.64998  0.91123  1.0000
  H   H22       1.0  0.02881  0.35002  0.08877  1.0000
  C   C1        1.0  0.84964  0.14280  0.88725  1.0000
  C   C2        1.0  0.15035  0.85720  0.11275  1.0000
  C   C3        1.0  0.91340  0.07331  0.81037  1.0000
  C   C4        1.0  0.08660  0.92671  0.18963  1.0000
  C   C5        1.0  0.90407  0.10360  0.70755  1.0000
  C   C6        1.0  0.09594  0.89641  0.29245  1.0000
  C   C7        1.0  0.83021  0.19681  0.67081  1.0000
  C   C8        1.0  0.16978  0.80319  0.32918  1.0000
  C   C9        1.0  0.75729  0.26391  0.74948  1.0000
  C   C10       1.0  0.24270  0.73608  0.25052  1.0000
  C   C11       1.0  0.77541  0.23279  0.85509  1.0000
  C   C12       1.0  0.22459  0.76721  0.14491  1.0000
  C   C13       1.0  0.49888  0.48093  0.10847  1.0000
  C   C14       1.0  0.50111  0.51905  0.89156  1.0000
  C   C15       1.0  0.62609  0.62272  0.97269  1.0000
  C   C16       1.0  0.37391  0.37726  0.02733  1.0000
  C   C17       1.0  0.61844  0.59855  0.07603  1.0000
  C   C18       1.0  0.38156  0.40143  0.92399  1.0000
  C   C19       1.0  0.50130  0.88820  0.84711  1.0000
  C   C20       1.0  0.49869  0.11181  0.15290  1.0000
  C   C21       1.0  0.38376  0.94352  0.82544  1.0000
  C   C22       1.0  0.61623  0.05650  0.17456  1.0000
  C   C23       1.0  0.32698  0.94770  0.72266  1.0000
  C   C24       1.0  0.67301  0.05231  0.27733  1.0000
  C   C25       1.0  0.38584  0.89409  0.64454  1.0000
  C   C26       1.0  0.61416  0.10592  0.35546  1.0000
  C   C27       1.0  0.50249  0.83919  0.67169  1.0000
  C   C28       1.0  0.49751  0.16082  0.32831  1.0000
  C   C29       1.0  0.57461  0.77812  0.59769  1.0000
  C   C30       1.0  0.42539  0.22189  0.40231  1.0000
  C   C31       1.0  0.52959  0.75152  0.49114  1.0000
  C   C32       1.0  0.47040  0.24848  0.50885  1.0000
  C   C33       1.0  0.61453  0.69346  0.43449  1.0000
  C   C34       1.0  0.38546  0.30654  0.56550  1.0000
  C   C35       1.0  0.74097  0.66322  0.48372  1.0000
  C   C36       1.0  0.25902  0.33678  0.51626  1.0000
  C   C37       1.0  0.77688  0.68732  0.59090  1.0000
  C   C38       1.0  0.22313  0.31267  0.40909  1.0000
  C   C39       1.0  0.89619  0.65315  0.65868  1.0000
  C   C40       1.0  0.10381  0.34684  0.34132  1.0000
  C   C41       1.0  0.01074  0.60937  0.62436  1.0000
  C   C42       1.0  0.98927  0.39062  0.37564  1.0000
  C   C43       1.0  0.11087  0.57313  0.69684  1.0000
  C   C44       1.0  0.88914  0.42686  0.30316  1.0000
  C   C45       1.0  0.09566  0.58327  0.80107  1.0000
  C   C46       1.0  0.90435  0.41673  0.19894  1.0000
  C   C47       1.0  0.98337  0.63396  0.83054  1.0000
  C   C48       1.0  0.01664  0.36604  0.16946  1.0000
  N   N1        1.0  0.55965  0.83862  0.77239  1.0000
  N   N2        1.0  0.44034  0.16138  0.22761  1.0000
  N   N3        1.0  0.69344  0.74349  0.64302  1.0000
  N   N4        1.0  0.30656  0.25651  0.35697  1.0000
  N   N5        1.0  0.88653  0.66752  0.76107  1.0000
  N   N6        1.0  0.11348  0.33248  0.23893  1.0000
  Cl  Cl1       1.0  0.69770  0.30816  0.94332  1.0000
  Cl  Cl2       1.0  0.30230  0.69184  0.05669  1.0000
  Cl  Cl3       1.0  0.98963  0.03394  0.62067  1.0000
  Cl  Cl4       1.0  0.01039  0.96610  0.37932  1.0000
  Cl  Cl5       1.0  0.75086  0.71533  0.17034  1.0000
  Cl  Cl6       1.0  0.24914  0.28465  0.82968  1.0000
  O   O1        1.0  0.86757  0.10998  0.98157  1.0000
  O   O2        1.0  0.13244  0.89003  0.01843  1.0000
  O   O3        1.0  0.97521  0.98711  0.84800  1.0000
  O   O4        1.0  0.02482  0.01292  0.15200  1.0000
  O   O5        1.0  0.68877  0.34147  0.71667  1.0000
  O   O6        1.0  0.31121  0.65852  0.28332  1.0000
  O   O7        1.0  0.82015  0.22855  0.57967  1.0000
  O   O8        1.0  0.17984  0.77145  0.42034  1.0000
  O   O9        1.0  0.73125  0.72912  0.94042  1.0000
  O   O10       1.0  0.26875  0.27087  0.05960  1.0000
  O   O11       1.0  0.49098  0.45660  0.20134  1.0000
  O   O12       1.0  0.50898  0.54335  0.79865  1.0000
