data_image0
_chemical_formula_structural       Ag4H16C24N12O12
_chemical_formula_sum              "Ag4 H16 C24 N12 O12"
_cell_length_a       7.18045
_cell_length_b       7.46653
_cell_length_c       14.8901
_cell_angle_alpha    98.8871
_cell_angle_beta     89.9998
_cell_angle_gamma    89.9998

_space_group_name_H-M_alt    "P 1"
_space_group_IT_number       1

loop_
  _space_group_symop_operation_xyz
  'x, y, z'

loop_
  _atom_site_type_symbol
  _atom_site_label
  _atom_site_symmetry_multiplicity
  _atom_site_fract_x
  _atom_site_fract_y
  _atom_site_fract_z
  _atom_site_occupancy
  Ag  Ag1       1.0  0.82152  0.38972  0.61873  1.0000
  Ag  Ag2       1.0  0.67848  0.88972  0.11874  1.0000
  Ag  Ag3       1.0  0.17847  0.61029  0.38126  1.0000
  Ag  Ag4       1.0  0.32151  0.11027  0.88126  1.0000
  H   H1        1.0  0.54335  0.21920  0.28638  1.0000
  H   H2        1.0  0.95664  0.71918  0.78638  1.0000
  H   H3        1.0  0.45665  0.78080  0.71362  1.0000
  H   H4        1.0  0.04336  0.28081  0.21362  1.0000
  H   H5        1.0  0.23508  0.10091  0.33295  1.0000
  H   H6        1.0  0.26491  0.60089  0.83295  1.0000
  H   H7        1.0  0.76492  0.89910  0.66705  1.0000
  H   H8        1.0  0.73508  0.39910  0.16705  1.0000
  H   H9        1.0  0.16913  0.11122  0.49873  1.0000
  H   H10       1.0  0.33089  0.61121  0.99873  1.0000
  H   H11       1.0  0.83088  0.88879  0.50127  1.0000
  H   H12       1.0  0.66912  0.38877  0.00128  1.0000
  H   H13       1.0  0.41446  0.23061  0.61209  1.0000
  H   H14       1.0  0.08556  0.73061  0.11210  1.0000
  H   H15       1.0  0.58556  0.76939  0.38790  1.0000
  H   H16       1.0  0.91444  0.26939  0.88791  1.0000
  C   C1        1.0  0.80895  0.36014  0.40294  1.0000
  C   C2        1.0  0.69104  0.86012  0.90295  1.0000
  C   C3        1.0  0.19105  0.63987  0.59705  1.0000
  C   C4        1.0  0.30895  0.13987  0.09705  1.0000
  C   C5        1.0  0.63443  0.28734  0.42578  1.0000
  C   C6        1.0  0.86557  0.78732  0.92578  1.0000
  C   C7        1.0  0.36557  0.71268  0.57422  1.0000
  C   C8        1.0  0.13443  0.21267  0.07422  1.0000
  C   C9        1.0  0.50812  0.22043  0.35744  1.0000
  C   C10       1.0  0.99187  0.72041  0.85744  1.0000
  C   C11       1.0  0.49188  0.77958  0.64256  1.0000
  C   C12       1.0  0.00813  0.27959  0.14256  1.0000
  C   C13       1.0  0.33743  0.15630  0.38349  1.0000
  C   C14       1.0  0.16258  0.65629  0.88349  1.0000
  C   C15       1.0  0.66258  0.84371  0.61651  1.0000
  C   C16       1.0  0.83743  0.34370  0.11652  1.0000
  C   C17       1.0  0.30040  0.16073  0.47557  1.0000
  C   C18       1.0  0.19960  0.66073  0.97557  1.0000
  C   C19       1.0  0.69960  0.83928  0.52443  1.0000
  C   C20       1.0  0.80040  0.33926  0.02443  1.0000
  C   C21       1.0  0.43545  0.22832  0.53939  1.0000
  C   C22       1.0  0.06457  0.72831  0.03939  1.0000
  C   C23       1.0  0.56456  0.77169  0.46061  1.0000
  C   C24       1.0  0.93544  0.27168  0.96061  1.0000
  N   N1        1.0  0.60070  0.29135  0.51583  1.0000
  N   N2        1.0  0.89931  0.79134  0.01583  1.0000
  N   N3        1.0  0.39931  0.70866  0.48417  1.0000
  N   N4        1.0  0.10069  0.20866  0.98417  1.0000
  N   N5        1.0  0.94842  0.42431  0.38363  1.0000
  N   N6        1.0  0.55156  0.92429  0.88364  1.0000
  N   N7        1.0  0.05158  0.57570  0.61637  1.0000
  N   N8        1.0  0.44843  0.07569  0.11637  1.0000
  N   N9        1.0  0.58147  0.37246  0.79065  1.0000
  N   N10       1.0  0.91853  0.87249  0.29065  1.0000
  N   N11       1.0  0.41853  0.62753  0.20935  1.0000
  N   N12       1.0  0.08146  0.12752  0.70935  1.0000
  O   O1        1.0  0.65289  0.51013  0.76288  1.0000
  O   O2        1.0  0.84712  0.01017  0.26287  1.0000
  O   O3        1.0  0.34711  0.48985  0.23712  1.0000
  O   O4        1.0  0.15288  0.98984  0.73712  1.0000
  O   O5        1.0  0.58751  0.21865  0.74166  1.0000
  O   O6        1.0  0.91247  0.71868  0.24166  1.0000
  O   O7        1.0  0.41248  0.78133  0.25834  1.0000
  O   O8        1.0  0.08751  0.28133  0.75834  1.0000
  O   O9        1.0  0.50323  0.39273  0.86840  1.0000
  O   O10       1.0  0.99677  0.89276  0.36840  1.0000
  O   O11       1.0  0.49677  0.60726  0.13160  1.0000
  O   O12       1.0  0.00323  0.10725  0.63160  1.0000
