data_image0
_chemical_formula_structural       AgH6C14N7O3
_chemical_formula_sum              "Ag1 H6 C14 N7 O3"
_cell_length_a       5.24958
_cell_length_b       5.67502
_cell_length_c       13.2684
_cell_angle_alpha    99.63
_cell_angle_beta     98.0953
_cell_angle_gamma    98.7255

_space_group_name_H-M_alt    "P 1"
_space_group_IT_number       1

loop_
  _space_group_symop_operation_xyz
  'x, y, z'

loop_
  _atom_site_type_symbol
  _atom_site_label
  _atom_site_symmetry_multiplicity
  _atom_site_fract_x
  _atom_site_fract_y
  _atom_site_fract_z
  _atom_site_occupancy
  Ag  Ag1       1.0  0.53980  0.39168  0.00815  1.0000
  H   H1        1.0  0.67331  0.82648  0.20050  1.0000
  H   H2        1.0  0.43562  0.59155  0.79930  1.0000
  H   H3        1.0  0.98534  0.96690  0.36691  1.0000
  H   H4        1.0  0.60102  0.58029  0.63213  1.0000
  H   H5        1.0  0.00310  0.21433  0.12220  1.0000
  H   H6        1.0  0.84904  0.06198  0.88009  1.0000
  C   C1        1.0  0.82091  0.72012  0.22236  1.0000
  C   C2        1.0  0.56838  0.46858  0.77823  1.0000
  C   C3        1.0  0.99697  0.80004  0.31494  1.0000
  C   C4        1.0  0.66073  0.46281  0.68468  1.0000
  C   C5        1.0  0.18991  0.66366  0.33877  1.0000
  C   C6        1.0  0.83474  0.30646  0.66097  1.0000
  C   C7        1.0  0.19375  0.44789  0.26837  1.0000
  C   C8        1.0  0.90275  0.15636  0.73180  1.0000
  C   C9        1.0  0.00481  0.37966  0.17791  1.0000
  C   C10       1.0  0.79679  0.17331  0.82350  1.0000
  C   C11       1.0  0.38345  0.74111  0.42985  1.0000
  C   C12       1.0  0.94822  0.30146  0.56944  1.0000
  C   C13       1.0  0.38367  0.29939  0.28687  1.0000
  C   C14       1.0  0.07648  0.99088  0.71318  1.0000
  N   N1        1.0  0.82309  0.51394  0.15551  1.0000
  N   N2        1.0  0.63524  0.32816  0.84631  1.0000
  N   N3        1.0  0.54824  0.80306  0.50249  1.0000
  N   N4        1.0  0.04898  0.29835  0.49643  1.0000
  N   N5        1.0  0.53734  0.17398  0.29978  1.0000
  N   N6        1.0  0.21864  0.85330  0.70066  1.0000
  N   N7        1.0  0.31028  0.85805  0.99731  1.0000
  O   O1        1.0  0.18665  0.03478  0.99401  1.0000
  O   O2        1.0  0.55785  0.89945  0.01808  1.0000
  O   O3        1.0  0.18340  0.64240  0.97928  1.0000
