data_image0
_chemical_formula_structural       Ni2H28C32N4O8
_chemical_formula_sum              "Ni2 H28 C32 N4 O8"
_cell_length_a       8.18647
_cell_length_b       8.80788
_cell_length_c       11.2532
_cell_angle_alpha    93.0941
_cell_angle_beta     109.714
_cell_angle_gamma    94.6595

_space_group_name_H-M_alt    "P 1"
_space_group_IT_number       1

loop_
  _space_group_symop_operation_xyz
  'x, y, z'

loop_
  _atom_site_type_symbol
  _atom_site_label
  _atom_site_symmetry_multiplicity
  _atom_site_fract_x
  _atom_site_fract_y
  _atom_site_fract_z
  _atom_site_occupancy
  Ni  Ni1       1.0  0.51877  0.64742  0.75726  1.0000
  Ni  Ni2       1.0  0.48123  0.35257  0.24274  1.0000
  H   H1        1.0  0.14443  0.70223  0.67465  1.0000
  H   H2        1.0  0.85557  0.29777  0.32535  1.0000
  H   H3        1.0  0.94186  0.80572  0.77742  1.0000
  H   H4        1.0  0.05814  0.19428  0.22258  1.0000
  H   H5        1.0  0.38359  0.90456  0.12182  1.0000
  H   H6        1.0  0.61640  0.09544  0.87818  1.0000
  H   H7        1.0  0.56750  0.79625  0.00569  1.0000
  H   H8        1.0  0.43250  0.20375  0.99431  1.0000
  H   H9        1.0  0.91018  0.84018  0.99901  1.0000
  H   H10       1.0  0.08982  0.15982  0.00098  1.0000
  H   H11       1.0  0.09489  0.93372  0.12531  1.0000
  H   H12       1.0  0.90510  0.06629  0.87468  1.0000
  H   H13       1.0  0.36098  0.47090  0.51170  1.0000
  H   H14       1.0  0.63902  0.52910  0.48830  1.0000
  H   H15       1.0  0.15262  0.24328  0.41895  1.0000
  H   H16       1.0  0.84738  0.75672  0.58105  1.0000
  H   H17       1.0  0.13236  0.18055  0.79216  1.0000
  H   H18       1.0  0.86764  0.81945  0.20784  1.0000
  H   H19       1.0  0.34641  0.41258  0.87195  1.0000
  H   H20       1.0  0.65359  0.58742  0.12805  1.0000
  H   H21       1.0  0.95631  0.00445  0.62315  1.0000
  H   H22       1.0  0.04369  0.99556  0.37685  1.0000
  H   H23       1.0  0.85668  0.10600  0.49191  1.0000
  H   H24       1.0  0.14332  0.89400  0.50810  1.0000
  H   H25       1.0  0.03729  0.44335  0.88033  1.0000
  H   H26       1.0  0.96271  0.55665  0.11966  1.0000
  H   H27       1.0  0.62440  0.10730  0.61262  1.0000
  H   H28       1.0  0.37560  0.89270  0.38738  1.0000
  C   C1        1.0  0.19158  0.74948  0.77324  1.0000
  C   C2        1.0  0.80842  0.25052  0.22675  1.0000
  C   C3        1.0  0.08092  0.80747  0.83016  1.0000
  C   C4        1.0  0.91908  0.19253  0.16984  1.0000
  C   C5        1.0  0.14680  0.86240  0.95839  1.0000
  C   C6        1.0  0.85320  0.13760  0.04160  1.0000
  C   C7        1.0  0.32537  0.85976  0.02280  1.0000
  C   C8        1.0  0.67463  0.14024  0.97720  1.0000
  C   C9        1.0  0.42823  0.80105  0.95900  1.0000
  C   C10       1.0  0.57177  0.19895  0.04100  1.0000
  C   C11       1.0  0.02795  0.92180  0.02223  1.0000
  C   C12       1.0  0.97205  0.07821  0.97777  1.0000
  C   C13       1.0  0.30921  0.40272  0.57142  1.0000
  C   C14       1.0  0.69079  0.59727  0.42859  1.0000
  C   C15       1.0  0.18989  0.27484  0.52005  1.0000
  C   C16       1.0  0.81010  0.72516  0.47995  1.0000
  C   C17       1.0  0.11949  0.19143  0.59724  1.0000
  C   C18       1.0  0.88051  0.80857  0.40276  1.0000
  C   C19       1.0  0.18050  0.24114  0.72657  1.0000
  C   C20       1.0  0.81951  0.75886  0.27343  1.0000
  C   C21       1.0  0.30058  0.37016  0.77209  1.0000
  C   C22       1.0  0.69942  0.62984  0.22791  1.0000
  C   C23       1.0  0.97947  0.05946  0.54414  1.0000
  C   C24       1.0  0.02053  0.94054  0.45587  1.0000
  C   C25       1.0  0.79271  0.53881  0.86524  1.0000
  C   C26       1.0  0.20730  0.46119  0.13476  1.0000
  C   C27       1.0  0.96497  0.49069  0.93651  1.0000
  C   C28       1.0  0.03503  0.50932  0.06349  1.0000
  C   C29       1.0  0.54357  0.00308  0.56256  1.0000
  C   C30       1.0  0.45643  0.99692  0.43744  1.0000
  C   C31       1.0  0.53880  0.87082  0.63703  1.0000
  C   C32       1.0  0.46120  0.12918  0.36297  1.0000
  N   N1        1.0  0.36302  0.74525  0.83671  1.0000
  N   N2        1.0  0.63698  0.25475  0.16329  1.0000
  N   N3        1.0  0.36304  0.45103  0.69555  1.0000
  N   N4        1.0  0.63696  0.54897  0.30445  1.0000
  O   O1        1.0  0.69260  0.58343  0.92431  1.0000
  O   O2        1.0  0.30741  0.41657  0.07569  1.0000
  O   O3        1.0  0.74615  0.54146  0.74511  1.0000
  O   O4        1.0  0.25385  0.45854  0.25489  1.0000
  O   O5        1.0  0.42551  0.75465  0.58993  1.0000
  O   O6        1.0  0.57449  0.24535  0.41007  1.0000
  O   O7        1.0  0.64992  0.87335  0.74923  1.0000
  O   O8        1.0  0.35008  0.12665  0.25077  1.0000
