data_image0
_chemical_formula_structural       Ni2H36C34N4O10
_chemical_formula_sum              "Ni2 H36 C34 N4 O10"
_cell_length_a       8.51271
_cell_length_b       9.31242
_cell_length_c       11.6195
_cell_angle_alpha    91.6011
_cell_angle_beta     101.73
_cell_angle_gamma    109.781

_space_group_name_H-M_alt    "P 1"
_space_group_IT_number       1

loop_
  _space_group_symop_operation_xyz
  'x, y, z'

loop_
  _atom_site_type_symbol
  _atom_site_label
  _atom_site_symmetry_multiplicity
  _atom_site_fract_x
  _atom_site_fract_y
  _atom_site_fract_z
  _atom_site_occupancy
  Ni  Ni1       1.0  0.74531  0.67585  0.41895  1.0000
  Ni  Ni2       1.0  0.25469  0.32415  0.58105  1.0000
  H   H1        1.0  0.67953  0.41781  0.32860  1.0000
  H   H2        1.0  0.32047  0.58219  0.67140  1.0000
  H   H3        1.0  0.63971  0.39600  0.45863  1.0000
  H   H4        1.0  0.36029  0.60400  0.54137  1.0000
  H   H5        1.0  0.36875  0.86481  0.54187  1.0000
  H   H6        1.0  0.63124  0.13519  0.45813  1.0000
  H   H7        1.0  0.51179  0.66617  0.02882  1.0000
  H   H8        1.0  0.48821  0.33383  0.97118  1.0000
  H   H9        1.0  0.87433  0.92525  0.29221  1.0000
  H   H10       1.0  0.12567  0.07475  0.70779  1.0000
  H   H11       1.0  0.09882  0.02763  0.17764  1.0000
  H   H12       1.0  0.90117  0.97237  0.82236  1.0000
  H   H13       1.0  0.27453  0.65496  0.27511  1.0000
  H   H14       1.0  0.72547  0.34504  0.72489  1.0000
  H   H15       1.0  0.04330  0.56940  0.38854  1.0000
  H   H16       1.0  0.95670  0.43060  0.61146  1.0000
  H   H17       1.0  0.64801  0.59871  0.65030  1.0000
  H   H18       1.0  0.35199  0.40129  0.34971  1.0000
  H   H19       1.0  0.79496  0.61294  0.86061  1.0000
  H   H20       1.0  0.20504  0.38706  0.13939  1.0000
  H   H21       1.0  0.27433  0.83818  0.76119  1.0000
  H   H22       1.0  0.72568  0.16182  0.23881  1.0000
  H   H23       1.0  0.10728  0.82719  0.55817  1.0000
  H   H24       1.0  0.89272  0.17281  0.44183  1.0000
  H   H25       1.0  0.42215  0.83321  0.15541  1.0000
  H   H26       1.0  0.57785  0.16679  0.84459  1.0000
  H   H27       1.0  0.41883  0.02184  0.17439  1.0000
  H   H28       1.0  0.58117  0.97816  0.82561  1.0000
  H   H29       1.0  0.22830  0.66167  0.95359  1.0000
  H   H30       1.0  0.77171  0.33833  0.04641  1.0000
  H   H31       1.0  0.05294  0.67491  0.00826  1.0000
  H   H32       1.0  0.94706  0.32509  0.99174  1.0000
  H   H33       1.0  0.17613  0.96662  0.00008  1.0000
  H   H34       1.0  0.82387  0.03338  0.99992  1.0000
  H   H35       1.0  0.35646  0.94312  0.96246  1.0000
  H   H36       1.0  0.64355  0.05688  0.03754  1.0000
  C   C1        1.0  0.57579  0.83268  0.47023  1.0000
  C   C2        1.0  0.42421  0.16733  0.52977  1.0000
  C   C3        1.0  0.47885  0.92479  0.50563  1.0000
  C   C4        1.0  0.52115  0.07521  0.49437  1.0000
  C   C5        1.0  0.51992  0.55385  0.04540  1.0000
  C   C6        1.0  0.48008  0.44614  0.95460  1.0000
  C   C7        1.0  0.57711  0.52864  0.17082  1.0000
  C   C8        1.0  0.42289  0.47135  0.82917  1.0000
  C   C9        1.0  0.96628  0.86962  0.28589  1.0000
  C   C10       1.0  0.03373  0.13038  0.71412  1.0000
  C   C11       1.0  0.09121  0.92455  0.22185  1.0000
  C   C12       1.0  0.90879  0.07545  0.77815  1.0000
  C   C13       1.0  0.20541  0.84763  0.21509  1.0000
  C   C14       1.0  0.79459  0.15237  0.78490  1.0000
  C   C15       1.0  0.18737  0.71756  0.27589  1.0000
  C   C16       1.0  0.81263  0.28244  0.72411  1.0000
  C   C17       1.0  0.05964  0.66939  0.33935  1.0000
  C   C18       1.0  0.94036  0.33061  0.66065  1.0000
  C   C19       1.0  0.78663  0.65285  0.67872  1.0000
  C   C20       1.0  0.21337  0.34715  0.32128  1.0000
  C   C21       1.0  0.87022  0.66021  0.79601  1.0000
  C   C22       1.0  0.12978  0.33979  0.20399  1.0000
  C   C23       1.0  0.04924  0.72516  0.82988  1.0000
  C   C24       1.0  0.95076  0.27484  0.17012  1.0000
  C   C25       1.0  0.13511  0.78567  0.74165  1.0000
  C   C26       1.0  0.86489  0.21433  0.25835  1.0000
  C   C27       1.0  0.04289  0.77716  0.62691  1.0000
  C   C28       1.0  0.95711  0.22283  0.37309  1.0000
  C   C29       1.0  0.33803  0.90161  0.14253  1.0000
  C   C30       1.0  0.66197  0.09839  0.85747  1.0000
  C   C31       1.0  0.14488  0.72986  0.95455  1.0000
  C   C32       1.0  0.85513  0.27014  0.04545  1.0000
  C   C33       1.0  0.25539  0.89367  0.01062  1.0000
  C   C34       1.0  0.74461  0.10633  0.98937  1.0000
  N   N1        1.0  0.95020  0.74408  0.34429  1.0000
  N   N2        1.0  0.04981  0.25592  0.65572  1.0000
  N   N3        1.0  0.87132  0.70970  0.59435  1.0000
  N   N4        1.0  0.12868  0.29030  0.40565  1.0000
  O   O1        1.0  0.73160  0.45043  0.41685  1.0000
  O   O2        1.0  0.26840  0.54957  0.58315  1.0000
  O   O3        1.0  0.52074  0.68712  0.47839  1.0000
  O   O4        1.0  0.47925  0.31288  0.52161  1.0000
  O   O5        1.0  0.71150  0.89413  0.43330  1.0000
  O   O6        1.0  0.28849  0.10587  0.56670  1.0000
  O   O7        1.0  0.59517  0.63843  0.24759  1.0000
  O   O8        1.0  0.40483  0.36157  0.75241  1.0000
  O   O9        1.0  0.60362  0.40478  0.19278  1.0000
  O   O10       1.0  0.39639  0.59522  0.80722  1.0000
