data_image0
_chemical_formula_structural       Ag4H32C20N16O12
_chemical_formula_sum              "Ag4 H32 C20 N16 O12"
_cell_length_a       5.3326
_cell_length_b       12.2968
_cell_length_c       13.2251
_cell_angle_alpha    89.9989
_cell_angle_beta     89.9999
_cell_angle_gamma    100.398

_space_group_name_H-M_alt    "P 1"
_space_group_IT_number       1

loop_
  _space_group_symop_operation_xyz
  'x, y, z'

loop_
  _atom_site_type_symbol
  _atom_site_label
  _atom_site_symmetry_multiplicity
  _atom_site_fract_x
  _atom_site_fract_y
  _atom_site_fract_z
  _atom_site_occupancy
  Ag  Ag1       1.0  0.91727  0.80316  0.30348  1.0000
  Ag  Ag2       1.0  0.08270  0.69684  0.80350  1.0000
  Ag  Ag3       1.0  0.08270  0.19684  0.69650  1.0000
  Ag  Ag4       1.0  0.91730  0.30316  0.19650  1.0000
  H   H1        1.0  0.29643  0.73061  0.12139  1.0000
  H   H2        1.0  0.70354  0.76940  0.62141  1.0000
  H   H3        1.0  0.70354  0.26939  0.87860  1.0000
  H   H4        1.0  0.29643  0.23062  0.37860  1.0000
  H   H5        1.0  0.27795  0.50801  0.06950  1.0000
  H   H6        1.0  0.72204  0.99199  0.56950  1.0000
  H   H7        1.0  0.72203  0.49199  0.93050  1.0000
  H   H8        1.0  0.27797  0.00800  0.43049  1.0000
  H   H9        1.0  0.50767  0.47118  0.26095  1.0000
  H   H10       1.0  0.49234  0.02880  0.76095  1.0000
  H   H11       1.0  0.49235  0.52880  0.73905  1.0000
  H   H12       1.0  0.50764  0.97119  0.23905  1.0000
  H   H13       1.0  0.60526  0.60060  0.32470  1.0000
  H   H14       1.0  0.39473  0.89938  0.82469  1.0000
  H   H15       1.0  0.39477  0.39939  0.67532  1.0000
  H   H16       1.0  0.60523  0.10060  0.17532  1.0000
  H   H17       1.0  0.57832  0.44397  0.44335  1.0000
  H   H18       1.0  0.42171  0.05601  0.94334  1.0000
  H   H19       1.0  0.42173  0.55600  0.55665  1.0000
  H   H20       1.0  0.57826  0.94400  0.05665  1.0000
  H   H21       1.0  0.78754  0.38177  0.37040  1.0000
  H   H22       1.0  0.21249  0.11822  0.87040  1.0000
  H   H23       1.0  0.21251  0.61822  0.62959  1.0000
  H   H24       1.0  0.78748  0.88179  0.12959  1.0000
  H   H25       1.0  0.93679  0.61219  0.46767  1.0000
  H   H26       1.0  0.06320  0.88781  0.96767  1.0000
  H   H27       1.0  0.06323  0.38780  0.53233  1.0000
  H   H28       1.0  0.93676  0.11220  0.03231  1.0000
  H   H29       1.0  0.14368  0.53965  0.40257  1.0000
  H   H30       1.0  0.85634  0.96035  0.90256  1.0000
  H   H31       1.0  0.85635  0.46035  0.59744  1.0000
  H   H32       1.0  0.14363  0.03967  0.09743  1.0000
  C   C1        1.0  0.17288  0.65677  0.14844  1.0000
  C   C2        1.0  0.82713  0.84323  0.64844  1.0000
  C   C3        1.0  0.82713  0.34322  0.85158  1.0000
  C   C4        1.0  0.17287  0.15677  0.35158  1.0000
  C   C5        1.0  0.16377  0.54656  0.12157  1.0000
  C   C6        1.0  0.83625  0.95344  0.62157  1.0000
  C   C7        1.0  0.83623  0.45344  0.87843  1.0000
  C   C8        1.0  0.16375  0.04655  0.37843  1.0000
  C   C9        1.0  0.66382  0.52309  0.30186  1.0000
  C   C10       1.0  0.33618  0.97690  0.80185  1.0000
  C   C11       1.0  0.33621  0.47690  0.69815  1.0000
  C   C12       1.0  0.66380  0.02311  0.19815  1.0000
  C   C13       1.0  0.74586  0.46295  0.39353  1.0000
  C   C14       1.0  0.25416  0.03704  0.89352  1.0000
  C   C15       1.0  0.25418  0.53703  0.60647  1.0000
  C   C16       1.0  0.74582  0.96297  0.10647  1.0000
  C   C17       1.0  0.97221  0.52846  0.45093  1.0000
  C   C18       1.0  0.02780  0.97154  0.95093  1.0000
  C   C19       1.0  0.02781  0.47153  0.54907  1.0000
  C   C20       1.0  0.97218  0.02847  0.04906  1.0000
  N   N1        1.0  0.87057  0.55583  0.22940  1.0000
  N   N2        1.0  0.12943  0.94416  0.72940  1.0000
  N   N3        1.0  0.12944  0.44416  0.77060  1.0000
  N   N4        1.0  0.87055  0.05584  0.27060  1.0000
  N   N5        1.0  0.98679  0.66043  0.21635  1.0000
  N   N6        1.0  0.01319  0.83956  0.71635  1.0000
  N   N7        1.0  0.01319  0.33956  0.78365  1.0000
  N   N8        1.0  0.98681  0.16045  0.28365  1.0000
  N   N9        1.0  0.97315  0.48471  0.17411  1.0000
  N   N10       1.0  0.02688  0.01530  0.67411  1.0000
  N   N11       1.0  0.02689  0.51530  0.82589  1.0000
  N   N12       1.0  0.97311  0.98470  0.32588  1.0000
  N   N13       1.0  0.44113  0.79083  0.43099  1.0000
  N   N14       1.0  0.55886  0.70917  0.93098  1.0000
  N   N15       1.0  0.55888  0.20918  0.56904  1.0000
  N   N16       1.0  0.44113  0.29083  0.06902  1.0000
  O   O1        1.0  0.61858  0.73633  0.45003  1.0000
  O   O2        1.0  0.38141  0.76366  0.95003  1.0000
  O   O3        1.0  0.38142  0.26365  0.54997  1.0000
  O   O4        1.0  0.61857  0.23634  0.04997  1.0000
  O   O5        1.0  0.41338  0.82134  0.33982  1.0000
  O   O6        1.0  0.58662  0.67868  0.83981  1.0000
  O   O7        1.0  0.58663  0.17869  0.66020  1.0000
  O   O8        1.0  0.41339  0.32133  0.16019  1.0000
  O   O9        1.0  0.29816  0.81408  0.50002  1.0000
  O   O10       1.0  0.70185  0.68592  0.00000  1.0000
  O   O11       1.0  0.70192  0.18593  0.50001  1.0000
  O   O12       1.0  0.29812  0.31408  0.99999  1.0000
