data_image0
_chemical_formula_structural       Hg2H28C36N8Cl4O8
_chemical_formula_sum              "Hg2 H28 C36 N8 Cl4 O8"
_cell_length_a       8.10882
_cell_length_b       10.5299
_cell_length_c       12.0404
_cell_angle_alpha    90.0002
_cell_angle_beta     103.012
_cell_angle_gamma    89.9999

_space_group_name_H-M_alt    "P 1"
_space_group_IT_number       1

loop_
  _space_group_symop_operation_xyz
  'x, y, z'

loop_
  _atom_site_type_symbol
  _atom_site_label
  _atom_site_symmetry_multiplicity
  _atom_site_fract_x
  _atom_site_fract_y
  _atom_site_fract_z
  _atom_site_occupancy
  Hg  Hg1       1.0  0.75000  0.64173  0.75000  1.0000
  Hg  Hg2       1.0  0.25000  0.35827  0.25000  1.0000
  H   H1        1.0  0.22168  0.38702  0.89556  1.0000
  H   H2        1.0  0.27832  0.38702  0.60444  1.0000
  H   H3        1.0  0.77832  0.61299  0.10444  1.0000
  H   H4        1.0  0.72168  0.61299  0.39556  1.0000
  H   H5        1.0  0.39288  0.20370  0.98947  1.0000
  H   H6        1.0  0.10712  0.20370  0.51053  1.0000
  H   H7        1.0  0.60711  0.79630  0.01053  1.0000
  H   H8        1.0  0.89288  0.79630  0.48947  1.0000
  H   H9        1.0  0.69902  0.18826  0.97802  1.0000
  H   H10       1.0  0.80097  0.18826  0.52198  1.0000
  H   H11       1.0  0.30097  0.81174  0.02199  1.0000
  H   H12       1.0  0.19903  0.81174  0.47802  1.0000
  H   H13       1.0  0.81888  0.35968  0.87553  1.0000
  H   H14       1.0  0.68112  0.35968  0.62447  1.0000
  H   H15       1.0  0.18112  0.64032  0.12447  1.0000
  H   H16       1.0  0.31888  0.64032  0.37554  1.0000
  H   H17       1.0  0.43184  0.12637  0.57025  1.0000
  H   H18       1.0  0.06817  0.12637  0.92976  1.0000
  H   H19       1.0  0.56817  0.87363  0.42975  1.0000
  H   H20       1.0  0.93183  0.87363  0.07025  1.0000
  H   H21       1.0  0.61834  0.06444  0.66639  1.0000
  H   H22       1.0  0.88166  0.06444  0.83361  1.0000
  H   H23       1.0  0.38166  0.93556  0.33361  1.0000
  H   H24       1.0  0.11833  0.93556  0.16639  1.0000
  H   H25       1.0  0.47759  0.16828  0.71918  1.0000
  H   H26       1.0  0.02241  0.16828  0.78083  1.0000
  H   H27       1.0  0.52241  0.83172  0.28083  1.0000
  H   H28       1.0  0.97759  0.83172  0.21917  1.0000
  C   C1        1.0  0.33922  0.79900  0.76691  1.0000
  C   C2        1.0  0.16078  0.79900  0.73309  1.0000
  C   C3        1.0  0.66078  0.20100  0.23308  1.0000
  C   C4        1.0  0.83922  0.20100  0.26692  1.0000
  C   C5        1.0  0.33580  0.58009  0.78053  1.0000
  C   C6        1.0  0.16420  0.58009  0.71947  1.0000
  C   C7        1.0  0.66420  0.41991  0.21947  1.0000
  C   C8        1.0  0.83580  0.41991  0.28054  1.0000
  C   C9        1.0  0.42955  0.46597  0.83190  1.0000
  C   C10       1.0  0.07045  0.46597  0.66810  1.0000
  C   C11       1.0  0.57045  0.53403  0.16810  1.0000
  C   C12       1.0  0.92955  0.53403  0.33191  1.0000
  C   C13       1.0  0.35250  0.37531  0.88863  1.0000
  C   C14       1.0  0.14750  0.37531  0.61137  1.0000
  C   C15       1.0  0.64750  0.62469  0.11137  1.0000
  C   C16       1.0  0.85250  0.62469  0.38863  1.0000
  C   C17       1.0  0.44854  0.27343  0.94182  1.0000
  C   C18       1.0  0.05147  0.27343  0.55818  1.0000
  C   C19       1.0  0.55147  0.72657  0.05819  1.0000
  C   C20       1.0  0.94853  0.72657  0.44182  1.0000
  C   C21       1.0  0.61847  0.26539  0.93675  1.0000
  C   C22       1.0  0.88153  0.26539  0.56325  1.0000
  C   C23       1.0  0.38152  0.73461  0.06325  1.0000
  C   C24       1.0  0.11847  0.73462  0.43676  1.0000
  C   C25       1.0  0.68578  0.36033  0.87928  1.0000
  C   C26       1.0  0.81422  0.36033  0.62072  1.0000
  C   C27       1.0  0.31422  0.63967  0.12073  1.0000
  C   C28       1.0  0.18578  0.63967  0.37928  1.0000
  C   C29       1.0  0.44805  0.91443  0.76761  1.0000
  C   C30       1.0  0.05196  0.91443  0.73239  1.0000
  C   C31       1.0  0.55195  0.08556  0.23238  1.0000
  C   C32       1.0  0.94805  0.08556  0.26762  1.0000
  C   C33       1.0  0.48602  0.09380  0.65698  1.0000
  C   C34       1.0  0.01398  0.09380  0.84302  1.0000
  C   C35       1.0  0.51398  0.90620  0.34302  1.0000
  C   C36       1.0  0.98602  0.90620  0.15698  1.0000
  N   N1        1.0  0.42014  0.68998  0.79603  1.0000
  N   N2        1.0  0.07986  0.68998  0.70397  1.0000
  N   N3        1.0  0.57986  0.31002  0.20396  1.0000
  N   N4        1.0  0.92014  0.31002  0.29603  1.0000
  N   N5        1.0  0.59401  0.45817  0.82763  1.0000
  N   N6        1.0  0.90599  0.45817  0.67237  1.0000
  N   N7        1.0  0.40600  0.54183  0.17237  1.0000
  N   N8        1.0  0.09401  0.54183  0.32763  1.0000
  Cl  Cl1       1.0  0.93257  0.68353  0.93262  1.0000
  Cl  Cl2       1.0  0.56744  0.68354  0.56738  1.0000
  Cl  Cl3       1.0  0.06744  0.31647  0.06738  1.0000
  Cl  Cl4       1.0  0.43256  0.31647  0.43262  1.0000
  O   O1        1.0  0.57748  0.93679  0.83906  1.0000
  O   O2        1.0  0.92252  0.93679  0.66095  1.0000
  O   O3        1.0  0.42252  0.06321  0.16093  1.0000
  O   O4        1.0  0.07748  0.06321  0.33906  1.0000
  O   O5        1.0  0.38449  0.98550  0.67480  1.0000
  O   O6        1.0  0.11552  0.98550  0.82520  1.0000
  O   O7        1.0  0.61551  0.01450  0.32520  1.0000
  O   O8        1.0  0.88448  0.01450  0.17480  1.0000
