data_image0
_chemical_formula_structural       Cd2H28C36N8Cl4O8
_chemical_formula_sum              "Cd2 H28 C36 N8 Cl4 O8"
_cell_length_a       7.89209
_cell_length_b       10.5731
_cell_length_c       12.0448
_cell_angle_alpha    90
_cell_angle_beta     102.064
_cell_angle_gamma    89.9999

_space_group_name_H-M_alt    "P 1"
_space_group_IT_number       1

loop_
  _space_group_symop_operation_xyz
  'x, y, z'

loop_
  _atom_site_type_symbol
  _atom_site_label
  _atom_site_symmetry_multiplicity
  _atom_site_fract_x
  _atom_site_fract_y
  _atom_site_fract_z
  _atom_site_occupancy
  Cd  Cd1       1.0  0.75000  0.62083  0.75000  1.0000
  Cd  Cd2       1.0  0.25000  0.37917  0.25000  1.0000
  H   H1        1.0  0.21895  0.37869  0.89227  1.0000
  H   H2        1.0  0.28105  0.37869  0.60773  1.0000
  H   H3        1.0  0.78105  0.62131  0.10773  1.0000
  H   H4        1.0  0.71895  0.62131  0.39227  1.0000
  H   H5        1.0  0.39401  0.19999  0.98950  1.0000
  H   H6        1.0  0.10599  0.19999  0.51050  1.0000
  H   H7        1.0  0.60599  0.80001  0.01050  1.0000
  H   H8        1.0  0.89401  0.80001  0.48950  1.0000
  H   H9        1.0  0.71199  0.18839  0.98248  1.0000
  H   H10       1.0  0.78801  0.18838  0.51752  1.0000
  H   H11       1.0  0.28801  0.81162  0.01752  1.0000
  H   H12       1.0  0.21200  0.81161  0.48248  1.0000
  H   H13       1.0  0.83655  0.35794  0.88054  1.0000
  H   H14       1.0  0.66345  0.35794  0.61945  1.0000
  H   H15       1.0  0.16345  0.64206  0.11945  1.0000
  H   H16       1.0  0.33655  0.64206  0.38055  1.0000
  H   H17       1.0  0.43150  0.12274  0.57127  1.0000
  H   H18       1.0  0.06850  0.12274  0.92873  1.0000
  H   H19       1.0  0.56850  0.87726  0.42873  1.0000
  H   H20       1.0  0.93150  0.87726  0.07127  1.0000
  H   H21       1.0  0.62502  0.05400  0.65698  1.0000
  H   H22       1.0  0.87497  0.05400  0.84302  1.0000
  H   H23       1.0  0.37497  0.94600  0.34302  1.0000
  H   H24       1.0  0.12502  0.94600  0.15698  1.0000
  H   H25       1.0  0.48967  0.15490  0.72151  1.0000
  H   H26       1.0  0.01033  0.15490  0.77849  1.0000
  H   H27       1.0  0.51032  0.84510  0.27849  1.0000
  H   H28       1.0  0.98967  0.84510  0.22151  1.0000
  C   C1        1.0  0.34138  0.79017  0.76463  1.0000
  C   C2        1.0  0.15862  0.79017  0.73537  1.0000
  C   C3        1.0  0.65862  0.20983  0.23537  1.0000
  C   C4        1.0  0.84139  0.20983  0.26463  1.0000
  C   C5        1.0  0.33819  0.57234  0.77887  1.0000
  C   C6        1.0  0.16181  0.57234  0.72113  1.0000
  C   C7        1.0  0.66181  0.42766  0.22113  1.0000
  C   C8        1.0  0.83819  0.42766  0.27887  1.0000
  C   C9        1.0  0.43413  0.45946  0.83035  1.0000
  C   C10       1.0  0.06587  0.45946  0.66964  1.0000
  C   C11       1.0  0.56587  0.54054  0.16964  1.0000
  C   C12       1.0  0.93413  0.54054  0.33035  1.0000
  C   C13       1.0  0.35419  0.36867  0.88655  1.0000
  C   C14       1.0  0.14580  0.36867  0.61345  1.0000
  C   C15       1.0  0.64581  0.63133  0.11345  1.0000
  C   C16       1.0  0.85419  0.63133  0.38655  1.0000
  C   C17       1.0  0.45279  0.26890  0.94172  1.0000
  C   C18       1.0  0.04721  0.26890  0.55829  1.0000
  C   C19       1.0  0.54721  0.73111  0.05829  1.0000
  C   C20       1.0  0.95279  0.73111  0.44172  1.0000
  C   C21       1.0  0.62839  0.26294  0.93898  1.0000
  C   C22       1.0  0.87162  0.26294  0.56102  1.0000
  C   C23       1.0  0.37162  0.73706  0.06102  1.0000
  C   C24       1.0  0.12839  0.73706  0.43898  1.0000
  C   C25       1.0  0.69883  0.35749  0.88167  1.0000
  C   C26       1.0  0.80117  0.35749  0.61833  1.0000
  C   C27       1.0  0.30118  0.64251  0.11833  1.0000
  C   C28       1.0  0.19883  0.64251  0.38167  1.0000
  C   C29       1.0  0.45062  0.90645  0.76459  1.0000
  C   C30       1.0  0.04937  0.90645  0.73541  1.0000
  C   C31       1.0  0.54937  0.09355  0.23541  1.0000
  C   C32       1.0  0.95063  0.09355  0.26459  1.0000
  C   C33       1.0  0.49143  0.08472  0.65466  1.0000
  C   C34       1.0  0.00857  0.08472  0.84534  1.0000
  C   C35       1.0  0.50857  0.91528  0.34534  1.0000
  C   C36       1.0  0.99143  0.91528  0.15466  1.0000
  N   N1        1.0  0.42515  0.68162  0.79199  1.0000
  N   N2        1.0  0.07484  0.68162  0.70801  1.0000
  N   N3        1.0  0.57484  0.31838  0.20801  1.0000
  N   N4        1.0  0.92516  0.31838  0.29199  1.0000
  N   N5        1.0  0.60445  0.45343  0.82807  1.0000
  N   N6        1.0  0.89554  0.45343  0.67193  1.0000
  N   N7        1.0  0.39554  0.54657  0.17193  1.0000
  N   N8        1.0  0.10446  0.54657  0.32807  1.0000
  Cl  Cl1       1.0  0.92240  0.69625  0.93046  1.0000
  Cl  Cl2       1.0  0.57760  0.69625  0.56954  1.0000
  Cl  Cl3       1.0  0.07760  0.30375  0.06954  1.0000
  Cl  Cl4       1.0  0.42240  0.30375  0.43046  1.0000
  O   O1        1.0  0.57942  0.93131  0.83683  1.0000
  O   O2        1.0  0.92057  0.93132  0.66317  1.0000
  O   O3        1.0  0.42058  0.06868  0.16317  1.0000
  O   O4        1.0  0.07943  0.06868  0.33683  1.0000
  O   O5        1.0  0.38721  0.97613  0.67168  1.0000
  O   O6        1.0  0.11279  0.97613  0.82832  1.0000
  O   O7        1.0  0.61279  0.02387  0.32832  1.0000
  O   O8        1.0  0.88721  0.02387  0.17168  1.0000
