data_image0
_chemical_formula_structural       Na4B4H24C24N8O16F8
_chemical_formula_sum              "Na4 B4 H24 C24 N8 O16 F8"
_cell_length_a       6.58484
_cell_length_b       11.727
_cell_length_c       13.9609
_cell_angle_alpha    90.0004
_cell_angle_beta     90
_cell_angle_gamma    89.9999

_space_group_name_H-M_alt    "P 1"
_space_group_IT_number       1

loop_
  _space_group_symop_operation_xyz
  'x, y, z'

loop_
  _atom_site_type_symbol
  _atom_site_label
  _atom_site_symmetry_multiplicity
  _atom_site_fract_x
  _atom_site_fract_y
  _atom_site_fract_z
  _atom_site_occupancy
  Na  Na1       1.0  0.20914  0.53952  0.25000  1.0000
  Na  Na2       1.0  0.29086  0.03952  0.25000  1.0000
  Na  Na3       1.0  0.79086  0.46048  0.75000  1.0000
  Na  Na4       1.0  0.70914  0.96048  0.75000  1.0000
  B   B1        1.0  0.53865  0.30240  0.25000  1.0000
  B   B2        1.0  0.96135  0.80240  0.25000  1.0000
  B   B3        1.0  0.46135  0.69760  0.75000  1.0000
  B   B4        1.0  0.03865  0.19760  0.75000  1.0000
  H   H1        1.0  0.87096  0.60880  0.03244  1.0000
  H   H2        1.0  0.62904  0.10880  0.46756  1.0000
  H   H3        1.0  0.12904  0.39120  0.53244  1.0000
  H   H4        1.0  0.37096  0.89120  0.96756  1.0000
  H   H5        1.0  0.12903  0.39120  0.96756  1.0000
  H   H6        1.0  0.37097  0.89120  0.53244  1.0000
  H   H7        1.0  0.87096  0.60880  0.46756  1.0000
  H   H8        1.0  0.62904  0.10880  0.03244  1.0000
  H   H9        1.0  0.75048  0.74079  0.00125  1.0000
  H   H10       1.0  0.74951  0.24079  0.49876  1.0000
  H   H11       1.0  0.24951  0.25921  0.50124  1.0000
  H   H12       1.0  0.25049  0.75921  0.99876  1.0000
  H   H13       1.0  0.24951  0.25921  0.99875  1.0000
  H   H14       1.0  0.25049  0.75921  0.50125  1.0000
  H   H15       1.0  0.75049  0.74079  0.49876  1.0000
  H   H16       1.0  0.74951  0.24079  0.00124  1.0000
  H   H17       1.0  0.69365  0.61325  0.93602  1.0000
  H   H18       1.0  0.80635  0.11326  0.56399  1.0000
  H   H19       1.0  0.30635  0.38674  0.43601  1.0000
  H   H20       1.0  0.19365  0.88674  0.06399  1.0000
  H   H21       1.0  0.30635  0.38674  0.06399  1.0000
  H   H22       1.0  0.19365  0.88674  0.43602  1.0000
  H   H23       1.0  0.69365  0.61326  0.56399  1.0000
  H   H24       1.0  0.80635  0.11326  0.93601  1.0000
  C   C1        1.0  0.81921  0.40075  0.19470  1.0000
  C   C2        1.0  0.68079  0.90075  0.30530  1.0000
  C   C3        1.0  0.18079  0.59925  0.69470  1.0000
  C   C4        1.0  0.31922  0.09925  0.80530  1.0000
  C   C5        1.0  0.18079  0.59925  0.80530  1.0000
  C   C6        1.0  0.31922  0.09925  0.69470  1.0000
  C   C7        1.0  0.81921  0.40075  0.30530  1.0000
  C   C8        1.0  0.68079  0.90075  0.19470  1.0000
  C   C9        1.0  0.56724  0.62284  0.07271  1.0000
  C   C10       1.0  0.93276  0.12284  0.42730  1.0000
  C   C11       1.0  0.43275  0.37716  0.57270  1.0000
  C   C12       1.0  0.06725  0.87715  0.92730  1.0000
  C   C13       1.0  0.43276  0.37716  0.92729  1.0000
  C   C14       1.0  0.06724  0.87716  0.57271  1.0000
  C   C15       1.0  0.56726  0.62284  0.42730  1.0000
  C   C16       1.0  0.93275  0.12285  0.07270  1.0000
  C   C17       1.0  0.72988  0.64820  0.00679  1.0000
  C   C18       1.0  0.77012  0.14820  0.49321  1.0000
  C   C19       1.0  0.27012  0.35180  0.50679  1.0000
  C   C20       1.0  0.22988  0.85180  0.99321  1.0000
  C   C21       1.0  0.27011  0.35180  0.99321  1.0000
  C   C22       1.0  0.22989  0.85180  0.50679  1.0000
  C   C23       1.0  0.72988  0.64820  0.49321  1.0000
  C   C24       1.0  0.77011  0.14820  0.00679  1.0000
  N   N1        1.0  0.43547  0.60176  0.12541  1.0000
  N   N2        1.0  0.06453  0.10177  0.37459  1.0000
  N   N3        1.0  0.56454  0.39824  0.62541  1.0000
  N   N4        1.0  0.93546  0.89824  0.87459  1.0000
  N   N5        1.0  0.56453  0.39824  0.87460  1.0000
  N   N6        1.0  0.93548  0.89824  0.62541  1.0000
  N   N7        1.0  0.43546  0.60176  0.37459  1.0000
  N   N8        1.0  0.06453  0.10177  0.12541  1.0000
  O   O1        1.0  0.94801  0.44663  0.14484  1.0000
  O   O2        1.0  0.55199  0.94663  0.35515  1.0000
  O   O3        1.0  0.05198  0.55337  0.64485  1.0000
  O   O4        1.0  0.44801  0.05336  0.85515  1.0000
  O   O5        1.0  0.05199  0.55337  0.85516  1.0000
  O   O6        1.0  0.44801  0.05337  0.64484  1.0000
  O   O7        1.0  0.94801  0.44663  0.35515  1.0000
  O   O8        1.0  0.55199  0.94663  0.14485  1.0000
  O   O9        1.0  0.65806  0.34341  0.16471  1.0000
  O   O10       1.0  0.84194  0.84341  0.33529  1.0000
  O   O11       1.0  0.34194  0.65659  0.66471  1.0000
  O   O12       1.0  0.15806  0.15659  0.83529  1.0000
  O   O13       1.0  0.34194  0.65659  0.83529  1.0000
  O   O14       1.0  0.15806  0.15659  0.66471  1.0000
  O   O15       1.0  0.65806  0.34341  0.33529  1.0000
  O   O16       1.0  0.84194  0.84341  0.16471  1.0000
  F   F1        1.0  0.34443  0.35102  0.25000  1.0000
  F   F2        1.0  0.15558  0.85102  0.25000  1.0000
  F   F3        1.0  0.65558  0.64898  0.75000  1.0000
  F   F4        1.0  0.84443  0.14898  0.75000  1.0000
  F   F5        1.0  0.52718  0.18359  0.25000  1.0000
  F   F6        1.0  0.97283  0.68359  0.25000  1.0000
  F   F7        1.0  0.47283  0.81641  0.75000  1.0000
  F   F8        1.0  0.02718  0.31641  0.75000  1.0000
