data_image0
_chemical_formula_structural       Cu4H16C20N8O16
_chemical_formula_sum              "Cu4 H16 C20 N8 O16"
_cell_length_a       8.32095
_cell_length_b       8.56407
_cell_length_c       9.3417
_cell_angle_alpha    89.9996
_cell_angle_beta     89.9992
_cell_angle_gamma    92.4952

_space_group_name_H-M_alt    "P 1"
_space_group_IT_number       1

loop_
  _space_group_symop_operation_xyz
  'x, y, z'

loop_
  _atom_site_type_symbol
  _atom_site_label
  _atom_site_symmetry_multiplicity
  _atom_site_fract_x
  _atom_site_fract_y
  _atom_site_fract_z
  _atom_site_occupancy
  Cu  Cu1       1.0  0.87138  0.10125  0.76023  1.0000
  Cu  Cu2       1.0  0.12862  0.39876  0.26024  1.0000
  Cu  Cu3       1.0  0.12862  0.89876  0.23976  1.0000
  Cu  Cu4       1.0  0.87138  0.60124  0.73977  1.0000
  H   H1        1.0  0.27147  0.09287  0.73624  1.0000
  H   H2        1.0  0.72853  0.40712  0.23622  1.0000
  H   H3        1.0  0.72852  0.90713  0.26377  1.0000
  H   H4        1.0  0.27147  0.59287  0.76378  1.0000
  H   H5        1.0  0.68045  0.23700  0.48956  1.0000
  H   H6        1.0  0.31956  0.26301  0.98956  1.0000
  H   H7        1.0  0.31953  0.76299  0.51042  1.0000
  H   H8        1.0  0.68045  0.73700  0.01044  1.0000
  H   H9        1.0  0.34435  0.21833  0.49124  1.0000
  H   H10       1.0  0.65566  0.28167  0.99123  1.0000
  H   H11       1.0  0.65563  0.78166  0.50876  1.0000
  H   H12       1.0  0.34435  0.71833  0.00877  1.0000
  H   H13       1.0  0.52049  0.02132  0.87288  1.0000
  H   H14       1.0  0.47952  0.47868  0.37287  1.0000
  H   H15       1.0  0.47951  0.97869  0.12712  1.0000
  H   H16       1.0  0.52049  0.52131  0.62713  1.0000
  C   C1        1.0  0.91613  0.98859  0.03218  1.0000
  C   C2        1.0  0.08388  0.51141  0.53219  1.0000
  C   C3        1.0  0.08388  0.01142  0.96781  1.0000
  C   C4        1.0  0.91611  0.48858  0.46782  1.0000
  C   C5        1.0  0.01956  0.08914  0.48651  1.0000
  C   C6        1.0  0.98045  0.41087  0.98651  1.0000
  C   C7        1.0  0.98044  0.91087  0.51349  1.0000
  C   C8        1.0  0.01955  0.58913  0.01349  1.0000
  C   C9        1.0  0.59726  0.19025  0.56928  1.0000
  C   C10       1.0  0.40275  0.30975  0.06927  1.0000
  C   C11       1.0  0.40273  0.80974  0.43072  1.0000
  C   C12       1.0  0.59726  0.69025  0.93073  1.0000
  C   C13       1.0  0.43186  0.18262  0.56913  1.0000
  C   C14       1.0  0.56814  0.31738  0.06912  1.0000
  C   C15       1.0  0.56812  0.81737  0.43087  1.0000
  C   C16       1.0  0.43186  0.68262  0.93088  1.0000
  C   C17       1.0  0.52034  0.07887  0.76984  1.0000
  C   C18       1.0  0.47967  0.42112  0.26983  1.0000
  C   C19       1.0  0.47965  0.92113  0.23016  1.0000
  C   C20       1.0  0.52034  0.57887  0.73017  1.0000
  N   N1        1.0  0.65071  0.12592  0.69559  1.0000
  N   N2        1.0  0.34930  0.37408  0.19558  1.0000
  N   N3        1.0  0.34928  0.87407  0.30441  1.0000
  N   N4        1.0  0.65071  0.62592  0.80442  1.0000
  N   N5        1.0  0.38648  0.11219  0.69637  1.0000
  N   N6        1.0  0.61353  0.38780  0.19635  1.0000
  N   N7        1.0  0.61351  0.88780  0.30364  1.0000
  N   N8        1.0  0.38648  0.61220  0.80365  1.0000
  O   O1        1.0  0.79717  0.02229  0.95602  1.0000
  O   O2        1.0  0.20284  0.47772  0.45601  1.0000
  O   O3        1.0  0.20284  0.97772  0.04397  1.0000
  O   O4        1.0  0.79716  0.52229  0.54400  1.0000
  O   O5        1.0  0.90807  0.93588  0.15934  1.0000
  O   O6        1.0  0.09192  0.56413  0.65936  1.0000
  O   O7        1.0  0.09194  0.06414  0.84065  1.0000
  O   O8        1.0  0.90807  0.43586  0.34065  1.0000
  O   O9        1.0  0.97456  0.18477  0.58253  1.0000
  O   O10       1.0  0.02545  0.31523  0.08252  1.0000
  O   O11       1.0  0.02544  0.81523  0.41747  1.0000
  O   O12       1.0  0.97455  0.68477  0.91748  1.0000
  O   O13       1.0  0.09289  0.12840  0.37400  1.0000
  O   O14       1.0  0.90712  0.37160  0.87401  1.0000
  O   O15       1.0  0.90711  0.87161  0.62600  1.0000
  O   O16       1.0  0.09288  0.62840  0.12600  1.0000
