data_image0
_chemical_formula_structural       Cd2H32C32Br4N4O8
_chemical_formula_sum              "Cd2 H32 C32 Br4 N4 O8"
_cell_length_a       7.64129
_cell_length_b       9.32119
_cell_length_c       13.9494
_cell_angle_alpha    74.5674
_cell_angle_beta     86.8482
_cell_angle_gamma    72.8684

_space_group_name_H-M_alt    "P 1"
_space_group_IT_number       1

loop_
  _space_group_symop_operation_xyz
  'x, y, z'

loop_
  _atom_site_type_symbol
  _atom_site_label
  _atom_site_symmetry_multiplicity
  _atom_site_fract_x
  _atom_site_fract_y
  _atom_site_fract_z
  _atom_site_occupancy
  Cd  Cd1       1.0  0.46256  0.16007  0.24871  1.0000
  Cd  Cd2       1.0  0.53744  0.83993  0.75129  1.0000
  H   H1        1.0  0.27609  0.52152  0.47342  1.0000
  H   H2        1.0  0.72391  0.47848  0.52658  1.0000
  H   H3        1.0  0.03266  0.69546  0.34771  1.0000
  H   H4        1.0  0.96734  0.30454  0.65229  1.0000
  H   H5        1.0  0.80982  0.95216  0.56504  1.0000
  H   H6        1.0  0.19018  0.04784  0.43496  1.0000
  H   H7        1.0  0.07003  0.77385  0.68119  1.0000
  H   H8        1.0  0.92997  0.22615  0.31881  1.0000
  H   H9        1.0  0.37553  0.62165  0.68558  1.0000
  H   H10       1.0  0.62446  0.37835  0.31441  1.0000
  H   H11       1.0  0.44546  0.49232  0.60827  1.0000
  H   H12       1.0  0.55454  0.50768  0.39173  1.0000
  H   H13       1.0  0.25433  0.33208  0.69521  1.0000
  H   H14       1.0  0.74568  0.66792  0.30479  1.0000
  H   H15       1.0  0.13524  0.47628  0.75533  1.0000
  H   H16       1.0  0.86477  0.52371  0.24467  1.0000
  H   H17       1.0  0.54843  0.31040  0.78763  1.0000
  H   H18       1.0  0.45157  0.68960  0.21237  1.0000
  H   H19       1.0  0.40926  0.43088  0.85746  1.0000
  H   H20       1.0  0.59073  0.56912  0.14254  1.0000
  H   H21       1.0  0.38591  0.11291  0.84228  1.0000
  H   H22       1.0  0.61409  0.88709  0.15772  1.0000
  H   H23       1.0  0.48142  0.14928  0.94445  1.0000
  H   H24       1.0  0.51858  0.85072  0.05555  1.0000
  H   H25       1.0  0.28871  0.32375  0.02897  1.0000
  H   H26       1.0  0.71129  0.67624  0.97103  1.0000
  H   H27       1.0  0.00137  0.34832  0.12726  1.0000
  H   H28       1.0  0.99863  0.65167  0.87275  1.0000
  H   H29       1.0  0.79807  0.14755  0.92681  1.0000
  H   H30       1.0  0.20193  0.85245  0.07319  1.0000
  H   H31       1.0  0.09417  0.13173  0.83587  1.0000
  H   H32       1.0  0.90583  0.86826  0.16413  1.0000
  C   C1        1.0  0.75394  0.94964  0.37251  1.0000
  C   C2        1.0  0.24606  0.05036  0.62749  1.0000
  C   C3        1.0  0.17101  0.61985  0.48900  1.0000
  C   C4        1.0  0.82899  0.38015  0.51100  1.0000
  C   C5        1.0  0.03426  0.71611  0.42077  1.0000
  C   C6        1.0  0.96574  0.28389  0.57923  1.0000
  C   C7        1.0  0.90226  0.83956  0.44647  1.0000
  C   C8        1.0  0.09774  0.16044  0.55353  1.0000
  C   C9        1.0  0.91144  0.85937  0.54152  1.0000
  C   C10       1.0  0.08856  0.14062  0.45848  1.0000
  C   C11       1.0  0.05284  0.76145  0.60702  1.0000
  C   C12       1.0  0.94716  0.23855  0.39298  1.0000
  C   C13       1.0  0.33145  0.54523  0.65096  1.0000
  C   C14       1.0  0.66855  0.45477  0.34904  1.0000
  C   C15       1.0  0.27055  0.42167  0.72893  1.0000
  C   C16       1.0  0.72946  0.57833  0.27107  1.0000
  C   C17       1.0  0.40921  0.34627  0.81557  1.0000
  C   C18       1.0  0.59079  0.65373  0.18443  1.0000
  C   C19       1.0  0.37869  0.19884  0.88357  1.0000
  C   C20       1.0  0.62131  0.80116  0.11643  1.0000
  C   C21       1.0  0.17297  0.29109  0.00884  1.0000
  C   C22       1.0  0.82704  0.70891  0.99116  1.0000
  C   C23       1.0  0.01404  0.30286  0.06217  1.0000
  C   C24       1.0  0.98596  0.69714  0.93783  1.0000
  C   C25       1.0  0.87732  0.24739  0.03568  1.0000
  C   C26       1.0  0.12268  0.75261  0.96432  1.0000
  C   C27       1.0  0.90134  0.19014  0.95138  1.0000
  C   C28       1.0  0.09866  0.80985  0.04862  1.0000
  C   C29       1.0  0.06343  0.17971  0.90026  1.0000
  C   C30       1.0  0.93657  0.82029  0.09975  1.0000
  C   C31       1.0  0.71819  0.23673  0.10374  1.0000
  C   C32       1.0  0.28180  0.76327  0.89626  1.0000
  Br  Br1       1.0  0.23878  0.43415  0.25358  1.0000
  Br  Br2       1.0  0.76121  0.56585  0.74641  1.0000
  Br  Br3       1.0  0.24778  0.98476  0.24855  1.0000
  Br  Br4       1.0  0.75223  0.01523  0.75145  1.0000
  N   N1        1.0  0.18096  0.64555  0.57943  1.0000
  N   N2        1.0  0.81904  0.35445  0.42057  1.0000
  N   N3        1.0  0.19761  0.22596  0.93137  1.0000
  N   N4        1.0  0.80239  0.77403  0.06864  1.0000
  O   O1        1.0  0.74764  0.92080  0.28922  1.0000
  O   O2        1.0  0.25236  0.07920  0.71078  1.0000
  O   O3        1.0  0.64385  0.06453  0.39824  1.0000
  O   O4        1.0  0.35616  0.93547  0.60176  1.0000
  O   O5        1.0  0.59654  0.18322  0.07939  1.0000
  O   O6        1.0  0.40345  0.81678  0.92061  1.0000
  O   O7        1.0  0.72028  0.27485  0.18417  1.0000
  O   O8        1.0  0.27972  0.72515  0.81583  1.0000
