data_image0
_chemical_formula_structural       Cu2H16C26N10Cl2O2
_chemical_formula_sum              "Cu2 H16 C26 N10 Cl2 O2"
_cell_length_a       3.76555
_cell_length_b       11.629
_cell_length_c       13.7216
_cell_angle_alpha    90.0002
_cell_angle_beta     90.0003
_cell_angle_gamma    93.5366

_space_group_name_H-M_alt    "P 1"
_space_group_IT_number       1

loop_
  _space_group_symop_operation_xyz
  'x, y, z'

loop_
  _atom_site_type_symbol
  _atom_site_label
  _atom_site_symmetry_multiplicity
  _atom_site_fract_x
  _atom_site_fract_y
  _atom_site_fract_z
  _atom_site_occupancy
  Cu  Cu1       1.0  0.60493  0.67236  0.75000  1.0000
  Cu  Cu2       1.0  0.39506  0.32763  0.25000  1.0000
  H   H1        1.0  0.79845  0.55725  0.55591  1.0000
  H   H2        1.0  0.20152  0.44275  0.05591  1.0000
  H   H3        1.0  0.20153  0.44275  0.44410  1.0000
  H   H4        1.0  0.79845  0.55725  0.94409  1.0000
  H   H5        1.0  0.71528  0.60261  0.37743  1.0000
  H   H6        1.0  0.28470  0.39739  0.87743  1.0000
  H   H7        1.0  0.28471  0.39738  0.62258  1.0000
  H   H8        1.0  0.71527  0.60261  0.12257  1.0000
  H   H9        1.0  0.42682  0.78678  0.33414  1.0000
  H   H10       1.0  0.57319  0.21322  0.83414  1.0000
  H   H11       1.0  0.57318  0.21321  0.66586  1.0000
  H   H12       1.0  0.42681  0.78678  0.16586  1.0000
  H   H13       1.0  0.23798  0.91462  0.46667  1.0000
  H   H14       1.0  0.76202  0.08538  0.96667  1.0000
  H   H15       1.0  0.76202  0.08537  0.53333  1.0000
  H   H16       1.0  0.23798  0.91462  0.03333  1.0000
  C   C1        1.0  0.67454  0.63456  0.53171  1.0000
  C   C2        1.0  0.32543  0.36544  0.03171  1.0000
  C   C3        1.0  0.32543  0.36543  0.46829  1.0000
  C   C4        1.0  0.67455  0.63456  0.96829  1.0000
  C   C5        1.0  0.62807  0.66097  0.43358  1.0000
  C   C6        1.0  0.37192  0.33903  0.93358  1.0000
  C   C7        1.0  0.37192  0.33902  0.56642  1.0000
  C   C8        1.0  0.62805  0.66097  0.06642  1.0000
  C   C9        1.0  0.47233  0.76275  0.40936  1.0000
  C   C10       1.0  0.52765  0.23725  0.90936  1.0000
  C   C11       1.0  0.52767  0.23724  0.59064  1.0000
  C   C12       1.0  0.47234  0.76275  0.09064  1.0000
  C   C13       1.0  0.36626  0.83545  0.48341  1.0000
  C   C14       1.0  0.63375  0.16456  0.98341  1.0000
  C   C15       1.0  0.63374  0.16455  0.51659  1.0000
  C   C16       1.0  0.36626  0.83544  0.01658  1.0000
  C   C17       1.0  0.41908  0.80331  0.57966  1.0000
  C   C18       1.0  0.58093  0.19669  0.07966  1.0000
  C   C19       1.0  0.58094  0.19669  0.42034  1.0000
  C   C20       1.0  0.41907  0.80331  0.92034  1.0000
  C   C21       1.0  0.31505  0.87053  0.66554  1.0000
  C   C22       1.0  0.68495  0.12948  0.16555  1.0000
  C   C23       1.0  0.68497  0.12948  0.33445  1.0000
  C   C24       1.0  0.31506  0.87053  0.83445  1.0000
  C   C25       1.0  0.08367  0.02102  0.75000  1.0000
  C   C26       1.0  0.91642  0.97898  0.25000  1.0000
  N   N1        1.0  0.57174  0.70371  0.60295  1.0000
  N   N2        1.0  0.42824  0.29629  0.10295  1.0000
  N   N3        1.0  0.42825  0.29629  0.39706  1.0000
  N   N4        1.0  0.57174  0.70371  0.89705  1.0000
  N   N5        1.0  0.39999  0.81918  0.75000  1.0000
  N   N6        1.0  0.59999  0.18082  0.25000  1.0000
  N   N7        1.0  0.15708  0.96767  0.66063  1.0000
  N   N8        1.0  0.84296  0.03233  0.16062  1.0000
  N   N9        1.0  0.84295  0.03233  0.33938  1.0000
  N   N10       1.0  0.15707  0.96767  0.83937  1.0000
  Cl  Cl1       1.0  0.97874  0.53084  0.75000  1.0000
  Cl  Cl2       1.0  0.02124  0.46916  0.25000  1.0000
  O   O1        1.0  0.95176  0.11616  0.75000  1.0000
  O   O2        1.0  0.04830  0.88385  0.25000  1.0000
