data_image0
_chemical_formula_structural       Zn4H52C52N8O20
_chemical_formula_sum              "Zn4 H52 C52 N8 O20"
_cell_length_a       9.53085
_cell_length_b       9.83719
_cell_length_c       13.9784
_cell_angle_alpha    90
_cell_angle_beta     95.3897
_cell_angle_gamma    90

_space_group_name_H-M_alt    "P 1"
_space_group_IT_number       1

loop_
  _space_group_symop_operation_xyz
  'x, y, z'

loop_
  _atom_site_type_symbol
  _atom_site_label
  _atom_site_symmetry_multiplicity
  _atom_site_fract_x
  _atom_site_fract_y
  _atom_site_fract_z
  _atom_site_occupancy
  Zn  Zn1       1.0  0.94173  0.34698  0.79900  1.0000
  Zn  Zn2       1.0  0.55827  0.84698  0.70100  1.0000
  Zn  Zn3       1.0  0.05827  0.65302  0.20100  1.0000
  Zn  Zn4       1.0  0.44173  0.15302  0.29900  1.0000
  H   H1        1.0  0.07971  0.36387  0.97183  1.0000
  H   H2        1.0  0.42030  0.86387  0.52817  1.0000
  H   H3        1.0  0.92030  0.63613  0.02817  1.0000
  H   H4        1.0  0.57971  0.13613  0.47183  1.0000
  H   H5        1.0  0.08552  0.20233  0.94066  1.0000
  H   H6        1.0  0.41448  0.70233  0.55934  1.0000
  H   H7        1.0  0.91448  0.79767  0.05934  1.0000
  H   H8        1.0  0.58552  0.29767  0.44066  1.0000
  H   H9        1.0  0.21453  0.11327  0.57578  1.0000
  H   H10       1.0  0.28547  0.61327  0.92422  1.0000
  H   H11       1.0  0.78547  0.88673  0.42422  1.0000
  H   H12       1.0  0.71453  0.38673  0.07578  1.0000
  H   H13       1.0  0.95031  0.64616  0.81401  1.0000
  H   H14       1.0  0.54969  0.14616  0.68599  1.0000
  H   H15       1.0  0.04969  0.35384  0.18599  1.0000
  H   H16       1.0  0.45031  0.85384  0.31401  1.0000
  H   H17       1.0  0.02807  0.84312  0.71673  1.0000
  H   H18       1.0  0.47193  0.34312  0.78327  1.0000
  H   H19       1.0  0.97193  0.15688  0.28327  1.0000
  H   H20       1.0  0.52807  0.65688  0.21673  1.0000
  H   H21       1.0  0.15203  0.79499  0.57066  1.0000
  H   H22       1.0  0.34797  0.29499  0.92934  1.0000
  H   H23       1.0  0.84797  0.20501  0.42933  1.0000
  H   H24       1.0  0.65203  0.70501  0.07066  1.0000
  H   H25       1.0  0.10985  0.36811  0.63006  1.0000
  H   H26       1.0  0.39015  0.86811  0.86994  1.0000
  H   H27       1.0  0.89015  0.63189  0.36994  1.0000
  H   H28       1.0  0.60985  0.13189  0.13006  1.0000
  H   H29       1.0  0.17421  0.44153  0.47121  1.0000
  H   H30       1.0  0.32579  0.94154  0.02879  1.0000
  H   H31       1.0  0.82579  0.55847  0.52879  1.0000
  H   H32       1.0  0.67421  0.05846  0.97121  1.0000
  H   H33       1.0  0.17062  0.61759  0.44124  1.0000
  H   H34       1.0  0.32938  0.11759  0.05876  1.0000
  H   H35       1.0  0.82937  0.38241  0.55876  1.0000
  H   H36       1.0  0.67063  0.88241  0.94124  1.0000
  H   H37       1.0  0.38907  0.34351  0.54373  1.0000
  H   H38       1.0  0.11093  0.84351  0.95627  1.0000
  H   H39       1.0  0.61092  0.65649  0.45627  1.0000
  H   H40       1.0  0.88908  0.15649  0.04373  1.0000
  H   H41       1.0  0.38312  0.45622  0.64427  1.0000
  H   H42       1.0  0.11688  0.95622  0.85573  1.0000
  H   H43       1.0  0.61688  0.54378  0.35573  1.0000
  H   H44       1.0  0.88312  0.04378  0.14427  1.0000
  H   H45       1.0  0.37312  0.63193  0.37204  1.0000
  H   H46       1.0  0.12688  0.13194  0.12796  1.0000
  H   H47       1.0  0.62688  0.36806  0.62796  1.0000
  H   H48       1.0  0.87312  0.86807  0.87204  1.0000
  H   H49       1.0  0.38355  0.45184  0.37793  1.0000
  H   H50       1.0  0.11645  0.95184  0.12207  1.0000
  H   H51       1.0  0.61645  0.54816  0.62207  1.0000
  H   H52       1.0  0.88355  0.04816  0.87793  1.0000
  C   C1        1.0  0.00309  0.14277  0.68173  1.0000
  C   C2        1.0  0.49691  0.64277  0.81827  1.0000
  C   C3        1.0  0.99691  0.85723  0.31827  1.0000
  C   C4        1.0  0.50309  0.35723  0.18173  1.0000
  C   C5        1.0  0.99815  0.06417  0.58957  1.0000
  C   C6        1.0  0.50185  0.56418  0.91043  1.0000
  C   C7        1.0  0.00184  0.93582  0.41043  1.0000
  C   C8        1.0  0.49816  0.43582  0.08957  1.0000
  C   C9        1.0  0.87602  0.99954  0.54768  1.0000
  C   C10       1.0  0.62398  0.49954  0.95232  1.0000
  C   C11       1.0  0.12398  0.00046  0.45232  1.0000
  C   C12       1.0  0.37602  0.50046  0.04768  1.0000
  C   C13       1.0  0.12070  0.06310  0.54171  1.0000
  C   C14       1.0  0.37930  0.56310  0.95830  1.0000
  C   C15       1.0  0.87930  0.93690  0.45830  1.0000
  C   C16       1.0  0.62070  0.43690  0.04171  1.0000
  C   C17       1.0  0.74333  0.98646  0.59708  1.0000
  C   C18       1.0  0.75667  0.48646  0.90292  1.0000
  C   C19       1.0  0.25667  0.01354  0.40292  1.0000
  C   C20       1.0  0.24333  0.51354  0.09708  1.0000
  C   C21       1.0  0.00597  0.63147  0.75017  1.0000
  C   C22       1.0  0.49403  0.13147  0.74983  1.0000
  C   C23       1.0  0.99403  0.36853  0.24983  1.0000
  C   C24       1.0  0.50597  0.86853  0.25017  1.0000
  C   C25       1.0  0.04985  0.73926  0.69608  1.0000
  C   C26       1.0  0.45015  0.23926  0.80392  1.0000
  C   C27       1.0  0.95015  0.26074  0.30392  1.0000
  C   C28       1.0  0.54986  0.76074  0.19608  1.0000
  C   C29       1.0  0.11712  0.71199  0.61423  1.0000
  C   C30       1.0  0.38288  0.21199  0.88577  1.0000
  C   C31       1.0  0.88288  0.28801  0.38577  1.0000
  C   C32       1.0  0.61712  0.78801  0.11423  1.0000
  C   C33       1.0  0.13894  0.57713  0.58763  1.0000
  C   C34       1.0  0.36106  0.07713  0.91237  1.0000
  C   C35       1.0  0.86106  0.42287  0.41237  1.0000
  C   C36       1.0  0.63894  0.92287  0.08763  1.0000
  C   C37       1.0  0.09425  0.47508  0.64677  1.0000
  C   C38       1.0  0.40575  0.97508  0.85323  1.0000
  C   C39       1.0  0.90575  0.52492  0.35322  1.0000
  C   C40       1.0  0.59425  0.02492  0.14677  1.0000
  C   C41       1.0  0.20672  0.54411  0.49756  1.0000
  C   C42       1.0  0.29328  0.04411  0.00244  1.0000
  C   C43       1.0  0.79328  0.45589  0.50244  1.0000
  C   C44       1.0  0.70672  0.95589  0.99756  1.0000
  C   C45       1.0  0.42250  0.44416  0.57345  1.0000
  C   C46       1.0  0.07750  0.94416  0.92655  1.0000
  C   C47       1.0  0.57750  0.55584  0.42655  1.0000
  C   C48       1.0  0.92250  0.05584  0.07345  1.0000
  C   C49       1.0  0.41774  0.54677  0.41581  1.0000
  C   C50       1.0  0.08226  0.04677  0.08418  1.0000
  C   C51       1.0  0.58226  0.45323  0.58419  1.0000
  C   C52       1.0  0.91774  0.95323  0.91581  1.0000
  N   N1        1.0  0.02859  0.50109  0.72608  1.0000
  N   N2        1.0  0.47141  0.00109  0.77392  1.0000
  N   N3        1.0  0.97141  0.49890  0.27392  1.0000
  N   N4        1.0  0.52859  0.99890  0.22608  1.0000
  N   N5        1.0  0.36158  0.55330  0.51053  1.0000
  N   N6        1.0  0.13842  0.05330  0.98947  1.0000
  N   N7        1.0  0.63842  0.44670  0.48947  1.0000
  N   N8        1.0  0.86158  0.94670  0.01053  1.0000
  O   O1        1.0  0.88931  0.20983  0.69639  1.0000
  O   O2        1.0  0.61069  0.70983  0.80361  1.0000
  O   O3        1.0  0.11069  0.79017  0.30361  1.0000
  O   O4        1.0  0.38931  0.29017  0.19639  1.0000
  O   O5        1.0  0.11532  0.14757  0.73564  1.0000
  O   O6        1.0  0.38468  0.64757  0.76436  1.0000
  O   O7        1.0  0.88468  0.85243  0.26436  1.0000
  O   O8        1.0  0.61532  0.35243  0.23564  1.0000
  O   O9        1.0  0.75097  0.90625  0.66996  1.0000
  O   O10       1.0  0.74903  0.40625  0.83004  1.0000
  O   O11       1.0  0.24903  0.09375  0.33004  1.0000
  O   O12       1.0  0.25097  0.59376  0.16996  1.0000
  O   O13       1.0  0.63167  0.04423  0.56334  1.0000
  O   O14       1.0  0.86833  0.54423  0.93666  1.0000
  O   O15       1.0  0.36833  0.95577  0.43666  1.0000
  O   O16       1.0  0.13167  0.45577  0.06334  1.0000
  O   O17       1.0  0.04523  0.29581  0.92132  1.0000
  O   O18       1.0  0.45477  0.79581  0.57867  1.0000
  O   O19       1.0  0.95477  0.70419  0.07868  1.0000
  O   O20       1.0  0.54523  0.20419  0.42132  1.0000
