data_image0
_chemical_formula_structural       Na2H42C48N12O16
_chemical_formula_sum              "Na2 H42 C48 N12 O16"
_cell_length_a       7.24649
_cell_length_b       11.8001
_cell_length_c       15.0756
_cell_angle_alpha    95.4269
_cell_angle_beta     102.965
_cell_angle_gamma    102.648

_space_group_name_H-M_alt    "P 1"
_space_group_IT_number       1

loop_
  _space_group_symop_operation_xyz
  'x, y, z'

loop_
  _atom_site_type_symbol
  _atom_site_label
  _atom_site_symmetry_multiplicity
  _atom_site_fract_x
  _atom_site_fract_y
  _atom_site_fract_z
  _atom_site_occupancy
  Na  Na1       1.0  0.24282  0.46610  0.02951  1.0000
  Na  Na2       1.0  0.75718  0.53389  0.97049  1.0000
  H   H1        1.0  0.16619  0.69372  0.99151  1.0000
  H   H2        1.0  0.83382  0.30629  0.00850  1.0000
  H   H3        1.0  0.13322  0.68814  0.08929  1.0000
  H   H4        1.0  0.86678  0.31186  0.91072  1.0000
  H   H5        1.0  0.19590  0.22377  0.98486  1.0000
  H   H6        1.0  0.80410  0.77623  0.01515  1.0000
  H   H7        1.0  0.97142  0.55226  0.22733  1.0000
  H   H8        1.0  0.02858  0.44774  0.77267  1.0000
  H   H9        1.0  0.42496  0.25608  0.02741  1.0000
  H   H10       1.0  0.57503  0.74393  0.97260  1.0000
  H   H11       1.0  0.43375  0.59626  0.42067  1.0000
  H   H12       1.0  0.56625  0.40374  0.57933  1.0000
  H   H13       1.0  0.69826  0.64765  0.56684  1.0000
  H   H14       1.0  0.30175  0.35236  0.43315  1.0000
  H   H15       1.0  0.03935  0.65642  0.56410  1.0000
  H   H16       1.0  0.96066  0.34359  0.43589  1.0000
  H   H17       1.0  0.12962  0.61388  0.41580  1.0000
  H   H18       1.0  0.87039  0.38612  0.58420  1.0000
  H   H19       1.0  0.54028  0.93963  0.05916  1.0000
  H   H20       1.0  0.45971  0.06036  0.94083  1.0000
  H   H21       1.0  0.11725  0.41823  0.26918  1.0000
  H   H22       1.0  0.88275  0.58176  0.73081  1.0000
  H   H23       1.0  0.08570  0.17209  0.37148  1.0000
  H   H24       1.0  0.91430  0.82789  0.62851  1.0000
  H   H25       1.0  0.06111  0.98531  0.43755  1.0000
  H   H26       1.0  0.93887  0.01468  0.56244  1.0000
  H   H27       1.0  0.83261  0.80143  0.35015  1.0000
  H   H28       1.0  0.16736  0.19856  0.64984  1.0000
  H   H29       1.0  0.62720  0.79693  0.19198  1.0000
  H   H30       1.0  0.37279  0.20306  0.80800  1.0000
  H   H31       1.0  0.17340  0.11849  0.08486  1.0000
  H   H32       1.0  0.82661  0.88152  0.91516  1.0000
  H   H33       1.0  0.27176  0.68282  0.28452  1.0000
  H   H34       1.0  0.72823  0.31718  0.71548  1.0000
  H   H35       1.0  0.49045  0.96254  0.39779  1.0000
  H   H36       1.0  0.50955  0.03747  0.60222  1.0000
  H   H37       1.0  0.66434  0.16938  0.46934  1.0000
  H   H38       1.0  0.33566  0.83063  0.53067  1.0000
  H   H39       1.0  0.62954  0.33411  0.38083  1.0000
  H   H40       1.0  0.37048  0.66590  0.61918  1.0000
  H   H41       1.0  0.42032  0.29622  0.21950  1.0000
  H   H42       1.0  0.57970  0.70379  0.78052  1.0000
  C   C1        1.0  0.66394  0.53514  0.18375  1.0000
  C   C2        1.0  0.33606  0.46486  0.81625  1.0000
  C   C3        1.0  0.52166  0.54690  0.24081  1.0000
  C   C4        1.0  0.47834  0.45310  0.75919  1.0000
  C   C5        1.0  0.63312  0.57790  0.33642  1.0000
  C   C6        1.0  0.36689  0.42210  0.66358  1.0000
  C   C7        1.0  0.58463  0.60090  0.41968  1.0000
  C   C8        1.0  0.41537  0.39910  0.58032  1.0000
  C   C9        1.0  0.73339  0.62918  0.50127  1.0000
  C   C10       1.0  0.26661  0.37083  0.49872  1.0000
  C   C11       1.0  0.92699  0.63421  0.49939  1.0000
  C   C12       1.0  0.07301  0.36580  0.50061  1.0000
  C   C13       1.0  0.97873  0.61069  0.41654  1.0000
  C   C14       1.0  0.02127  0.38931  0.58346  1.0000
  C   C15       1.0  0.83047  0.58269  0.33576  1.0000
  C   C16       1.0  0.16953  0.41731  0.66424  1.0000
  C   C17       1.0  0.69529  0.11888  0.09930  1.0000
  C   C18       1.0  0.30471  0.88112  0.90070  1.0000
  C   C19       1.0  0.84549  0.17885  0.18573  1.0000
  C   C20       1.0  0.15452  0.82114  0.81427  1.0000
  C   C21       1.0  0.86929  0.08990  0.24512  1.0000
  C   C22       1.0  0.13072  0.91008  0.75487  1.0000
  C   C23       1.0  0.98516  0.09132  0.33281  1.0000
  C   C24       1.0  0.01485  0.90867  0.66718  1.0000
  C   C25       1.0  0.97020  0.98608  0.36952  1.0000
  C   C26       1.0  0.02979  0.01391  0.63047  1.0000
  C   C27       1.0  0.84237  0.88182  0.31964  1.0000
  C   C28       1.0  0.15762  0.11817  0.68035  1.0000
  C   C29       1.0  0.72666  0.87841  0.23077  1.0000
  C   C30       1.0  0.27333  0.12158  0.76922  1.0000
  C   C31       1.0  0.74232  0.98308  0.19505  1.0000
  C   C32       1.0  0.25768  0.01690  0.80494  1.0000
  C   C33       1.0  0.14094  0.94800  0.12071  1.0000
  C   C34       1.0  0.85906  0.05201  0.87930  1.0000
  C   C35       1.0  0.23793  0.90896  0.20769  1.0000
  C   C36       1.0  0.76207  0.09105  0.79232  1.0000
  C   C37       1.0  0.35735  0.01422  0.26992  1.0000
  C   C38       1.0  0.64265  0.98578  0.73008  1.0000
  C   C39       1.0  0.47469  0.03524  0.35986  1.0000
  C   C40       1.0  0.52531  0.96476  0.64014  1.0000
  C   C41       1.0  0.57167  0.15136  0.39926  1.0000
  C   C42       1.0  0.42835  0.84865  0.60075  1.0000
  C   C43       1.0  0.55256  0.24411  0.34931  1.0000
  C   C44       1.0  0.44745  0.75590  0.65071  1.0000
  C   C45       1.0  0.43616  0.22454  0.25869  1.0000
  C   C46       1.0  0.56385  0.77547  0.74132  1.0000
  C   C47       1.0  0.33945  0.10938  0.22063  1.0000
  C   C48       1.0  0.66055  0.89063  0.77938  1.0000
  N   N1        1.0  0.84327  0.55770  0.24504  1.0000
  N   N2        1.0  0.15672  0.44230  0.75496  1.0000
  N   N3        1.0  0.33693  0.52787  0.19982  1.0000
  N   N4        1.0  0.66307  0.47213  0.80018  1.0000
  N   N5        1.0  0.64222  0.00363  0.10917  1.0000
  N   N6        1.0  0.35778  0.99637  0.89082  1.0000
  N   N7        1.0  0.92593  0.29013  0.19273  1.0000
  N   N8        1.0  0.07408  0.70987  0.80727  1.0000
  N   N9        1.0  0.21216  0.06722  0.13323  1.0000
  N   N10       1.0  0.78784  0.93279  0.86678  1.0000
  N   N11       1.0  0.20844  0.79722  0.21160  1.0000
  N   N12       1.0  0.79156  0.20278  0.78841  1.0000
  O   O1        1.0  0.11088  0.63882  0.02934  1.0000
  O   O2        1.0  0.88912  0.36118  0.97066  1.0000
  O   O3        1.0  0.30433  0.27802  0.03182  1.0000
  O   O4        1.0  0.69566  0.72198  0.96819  1.0000
  O   O5        1.0  0.62870  0.51185  0.09877  1.0000
  O   O6        1.0  0.37130  0.48815  0.90123  1.0000
  O   O7        1.0  0.22147  0.54522  0.25699  1.0000
  O   O8        1.0  0.77852  0.45478  0.74301  1.0000
  O   O9        1.0  0.62774  0.16376  0.03065  1.0000
  O   O10       1.0  0.37225  0.83624  0.96935  1.0000
  O   O11       1.0  0.05693  0.33374  0.27549  1.0000
  O   O12       1.0  0.94308  0.66625  0.72450  1.0000
  O   O13       1.0  0.02111  0.88718  0.05142  1.0000
  O   O14       1.0  0.97889  0.11283  0.94859  1.0000
  O   O15       1.0  0.30156  0.77243  0.29397  1.0000
  O   O16       1.0  0.69844  0.22757  0.70603  1.0000
