data_image0
_chemical_formula_structural       Li8H32C40N24O40
_chemical_formula_sum              "Li8 H32 C40 N24 O40"
_cell_length_a       9.37292
_cell_length_b       12.4274
_cell_length_c       12.81
_cell_angle_alpha    90
_cell_angle_beta     90
_cell_angle_gamma    90

_space_group_name_H-M_alt    "P 1"
_space_group_IT_number       1

loop_
  _space_group_symop_operation_xyz
  'x, y, z'

loop_
  _atom_site_type_symbol
  _atom_site_label
  _atom_site_symmetry_multiplicity
  _atom_site_fract_x
  _atom_site_fract_y
  _atom_site_fract_z
  _atom_site_occupancy
  Li  Li1       1.0  0.47693  0.39288  0.61074  1.0000
  Li  Li2       1.0  0.52306  0.10712  0.11074  1.0000
  Li  Li3       1.0  0.97694  0.60712  0.88926  1.0000
  Li  Li4       1.0  0.02306  0.89288  0.38926  1.0000
  Li  Li5       1.0  0.52306  0.60712  0.38926  1.0000
  Li  Li6       1.0  0.47694  0.89288  0.88926  1.0000
  Li  Li7       1.0  0.02307  0.39288  0.11074  1.0000
  Li  Li8       1.0  0.97694  0.10712  0.61074  1.0000
  H   H1        1.0  0.13832  0.48356  0.64758  1.0000
  H   H2        1.0  0.86168  0.01644  0.14757  1.0000
  H   H3        1.0  0.63832  0.51644  0.85242  1.0000
  H   H4        1.0  0.36167  0.98356  0.35243  1.0000
  H   H5        1.0  0.86168  0.51644  0.35243  1.0000
  H   H6        1.0  0.13833  0.98356  0.85242  1.0000
  H   H7        1.0  0.36168  0.48356  0.14758  1.0000
  H   H8        1.0  0.63832  0.01644  0.64757  1.0000
  H   H9        1.0  0.99515  0.65531  0.61663  1.0000
  H   H10       1.0  0.00486  0.84469  0.11663  1.0000
  H   H11       1.0  0.49515  0.34468  0.88337  1.0000
  H   H12       1.0  0.50485  0.15531  0.38337  1.0000
  H   H13       1.0  0.00486  0.34469  0.38337  1.0000
  H   H14       1.0  0.99514  0.15531  0.88337  1.0000
  H   H15       1.0  0.50485  0.65532  0.11663  1.0000
  H   H16       1.0  0.49515  0.84469  0.61663  1.0000
  H   H17       1.0  0.72610  0.63557  0.60113  1.0000
  H   H18       1.0  0.27391  0.86444  0.10113  1.0000
  H   H19       1.0  0.22610  0.36443  0.89887  1.0000
  H   H20       1.0  0.77391  0.13556  0.39887  1.0000
  H   H21       1.0  0.27391  0.36444  0.39887  1.0000
  H   H22       1.0  0.72609  0.13556  0.89887  1.0000
  H   H23       1.0  0.77391  0.63557  0.10113  1.0000
  H   H24       1.0  0.22609  0.86444  0.60113  1.0000
  H   H25       1.0  0.01711  0.31637  0.66257  1.0000
  H   H26       1.0  0.98288  0.18363  0.16258  1.0000
  H   H27       1.0  0.51711  0.68363  0.83742  1.0000
  H   H28       1.0  0.48288  0.81636  0.33742  1.0000
  H   H29       1.0  0.98288  0.68363  0.33742  1.0000
  H   H30       1.0  0.01712  0.81636  0.83742  1.0000
  H   H31       1.0  0.48289  0.31637  0.16258  1.0000
  H   H32       1.0  0.51712  0.18364  0.66258  1.0000
  C   C1        1.0  0.80996  0.38501  0.64467  1.0000
  C   C2        1.0  0.19004  0.11499  0.14467  1.0000
  C   C3        1.0  0.30996  0.61499  0.85533  1.0000
  C   C4        1.0  0.69003  0.88501  0.35533  1.0000
  C   C5        1.0  0.19004  0.61499  0.35533  1.0000
  C   C6        1.0  0.80997  0.88501  0.85533  1.0000
  C   C7        1.0  0.69004  0.38501  0.14467  1.0000
  C   C8        1.0  0.30997  0.11499  0.64467  1.0000
  C   C9        1.0  0.02189  0.48501  0.64138  1.0000
  C   C10       1.0  0.97810  0.01499  0.14138  1.0000
  C   C11       1.0  0.52189  0.51499  0.85862  1.0000
  C   C12       1.0  0.47810  0.98501  0.35862  1.0000
  C   C13       1.0  0.97810  0.51499  0.35862  1.0000
  C   C14       1.0  0.02190  0.98501  0.85862  1.0000
  C   C15       1.0  0.47811  0.48501  0.14138  1.0000
  C   C16       1.0  0.52190  0.01499  0.64138  1.0000
  C   C17       1.0  0.73702  0.27620  0.65825  1.0000
  C   C18       1.0  0.26298  0.22380  0.15825  1.0000
  C   C19       1.0  0.23702  0.72380  0.84175  1.0000
  C   C20       1.0  0.76298  0.77620  0.34175  1.0000
  C   C21       1.0  0.26298  0.72380  0.34175  1.0000
  C   C22       1.0  0.73702  0.77620  0.84175  1.0000
  C   C23       1.0  0.76298  0.27620  0.15825  1.0000
  C   C24       1.0  0.23702  0.22380  0.65825  1.0000
  C   C25       1.0  0.94267  0.57759  0.62431  1.0000
  C   C26       1.0  0.05733  0.92241  0.12431  1.0000
  C   C27       1.0  0.44267  0.42241  0.87569  1.0000
  C   C28       1.0  0.55733  0.07759  0.37569  1.0000
  C   C29       1.0  0.05734  0.42241  0.37569  1.0000
  C   C30       1.0  0.94267  0.07759  0.87569  1.0000
  C   C31       1.0  0.55733  0.57759  0.12431  1.0000
  C   C32       1.0  0.44267  0.92241  0.62431  1.0000
  C   C33       1.0  0.79458  0.56651  0.61669  1.0000
  C   C34       1.0  0.20542  0.93349  0.11668  1.0000
  C   C35       1.0  0.29459  0.43348  0.88332  1.0000
  C   C36       1.0  0.70542  0.06651  0.38332  1.0000
  C   C37       1.0  0.20542  0.43349  0.38331  1.0000
  C   C38       1.0  0.79458  0.06651  0.88331  1.0000
  C   C39       1.0  0.70542  0.56652  0.11668  1.0000
  C   C40       1.0  0.29458  0.93349  0.61668  1.0000
  N   N1        1.0  0.95348  0.39004  0.65006  1.0000
  N   N2        1.0  0.04652  0.10997  0.15007  1.0000
  N   N3        1.0  0.45348  0.60996  0.84993  1.0000
  N   N4        1.0  0.54651  0.89003  0.34993  1.0000
  N   N5        1.0  0.04651  0.60997  0.34993  1.0000
  N   N6        1.0  0.95349  0.89003  0.84993  1.0000
  N   N7        1.0  0.54652  0.39004  0.15007  1.0000
  N   N8        1.0  0.45349  0.10997  0.65007  1.0000
  N   N9        1.0  0.72896  0.47090  0.62759  1.0000
  N   N10       1.0  0.27104  0.02911  0.12759  1.0000
  N   N11       1.0  0.22896  0.52910  0.87241  1.0000
  N   N12       1.0  0.77104  0.97089  0.37241  1.0000
  N   N13       1.0  0.27104  0.52911  0.37241  1.0000
  N   N14       1.0  0.72896  0.97089  0.87241  1.0000
  N   N15       1.0  0.77104  0.47090  0.12759  1.0000
  N   N16       1.0  0.22896  0.02911  0.62759  1.0000
  N   N17       1.0  0.37578  0.61707  0.58775  1.0000
  N   N18       1.0  0.62422  0.88293  0.08775  1.0000
  N   N19       1.0  0.87578  0.38293  0.91225  1.0000
  N   N20       1.0  0.12422  0.11707  0.41225  1.0000
  N   N21       1.0  0.62422  0.38293  0.41225  1.0000
  N   N22       1.0  0.37578  0.11707  0.91225  1.0000
  N   N23       1.0  0.12422  0.61707  0.08775  1.0000
  N   N24       1.0  0.87578  0.88293  0.58775  1.0000
  O   O1        1.0  0.60310  0.28329  0.67483  1.0000
  O   O2        1.0  0.39690  0.21671  0.17483  1.0000
  O   O3        1.0  0.10310  0.71670  0.82517  1.0000
  O   O4        1.0  0.89690  0.78329  0.32517  1.0000
  O   O5        1.0  0.39690  0.71671  0.32517  1.0000
  O   O6        1.0  0.60310  0.78329  0.82517  1.0000
  O   O7        1.0  0.89690  0.28330  0.17483  1.0000
  O   O8        1.0  0.10310  0.21671  0.67483  1.0000
  O   O9        1.0  0.36719  0.52584  0.63298  1.0000
  O   O10       1.0  0.63281  0.97416  0.13298  1.0000
  O   O11       1.0  0.86719  0.47416  0.86702  1.0000
  O   O12       1.0  0.13281  0.02584  0.36702  1.0000
  O   O13       1.0  0.63281  0.47416  0.36702  1.0000
  O   O14       1.0  0.36719  0.02584  0.86702  1.0000
  O   O15       1.0  0.13281  0.52584  0.13298  1.0000
  O   O16       1.0  0.86719  0.97416  0.63298  1.0000
  O   O17       1.0  0.80901  0.19221  0.65207  1.0000
  O   O18       1.0  0.19098  0.30779  0.15207  1.0000
  O   O19       1.0  0.30902  0.80779  0.84793  1.0000
  O   O20       1.0  0.69099  0.69221  0.34793  1.0000
  O   O21       1.0  0.19098  0.80779  0.34793  1.0000
  O   O22       1.0  0.80902  0.69221  0.84793  1.0000
  O   O23       1.0  0.69099  0.19221  0.15207  1.0000
  O   O24       1.0  0.30902  0.30779  0.65207  1.0000
  O   O25       1.0  0.48967  0.64281  0.53988  1.0000
  O   O26       1.0  0.51033  0.85719  0.03988  1.0000
  O   O27       1.0  0.98967  0.35719  0.96012  1.0000
  O   O28       1.0  0.01033  0.14281  0.46012  1.0000
  O   O29       1.0  0.51033  0.35719  0.46012  1.0000
  O   O30       1.0  0.48967  0.14281  0.96012  1.0000
  O   O31       1.0  0.01033  0.64281  0.03988  1.0000
  O   O32       1.0  0.98967  0.85719  0.53988  1.0000
  O   O33       1.0  0.27176  0.68053  0.59148  1.0000
  O   O34       1.0  0.72824  0.81947  0.09148  1.0000
  O   O35       1.0  0.77176  0.31946  0.90852  1.0000
  O   O36       1.0  0.22824  0.18053  0.40852  1.0000
  O   O37       1.0  0.72824  0.31946  0.40852  1.0000
  O   O38       1.0  0.27176  0.18053  0.90852  1.0000
  O   O39       1.0  0.22824  0.68053  0.09148  1.0000
  O   O40       1.0  0.77176  0.81947  0.59148  1.0000
