data_image0
_chemical_formula_structural       Er2H32C36N6O16
_chemical_formula_sum              "Er2 H32 C36 N6 O16"
_cell_length_a       9.55765
_cell_length_b       11.761
_cell_length_c       11.7673
_cell_angle_alpha    119.981
_cell_angle_beta     112.59
_cell_angle_gamma    90.003

_space_group_name_H-M_alt    "P 1"
_space_group_IT_number       1

loop_
  _space_group_symop_operation_xyz
  'x, y, z'

loop_
  _atom_site_type_symbol
  _atom_site_label
  _atom_site_symmetry_multiplicity
  _atom_site_fract_x
  _atom_site_fract_y
  _atom_site_fract_z
  _atom_site_occupancy
  Er  Er1       1.0  0.75000  0.50404  0.00001  1.0000
  Er  Er2       1.0  0.25000  0.49595  0.99999  1.0000
  H   H1        1.0  0.49898  0.63135  0.92787  1.0000
  H   H2        1.0  0.00105  0.70347  0.07213  1.0000
  H   H3        1.0  0.50102  0.36864  0.07211  1.0000
  H   H4        1.0  0.99896  0.29652  0.92787  1.0000
  H   H5        1.0  0.55272  0.60963  0.80983  1.0000
  H   H6        1.0  0.94730  0.79980  0.19015  1.0000
  H   H7        1.0  0.44731  0.39038  0.19018  1.0000
  H   H8        1.0  0.05268  0.20019  0.80982  1.0000
  H   H9        1.0  0.59628  0.71275  0.63915  1.0000
  H   H10       1.0  0.90376  0.07358  0.36081  1.0000
  H   H11       1.0  0.40375  0.28724  0.36081  1.0000
  H   H12       1.0  0.09626  0.92643  0.63918  1.0000
  H   H13       1.0  0.40870  0.67584  0.39741  1.0000
  H   H14       1.0  0.09131  0.27840  0.60256  1.0000
  H   H15       1.0  0.59130  0.32416  0.60255  1.0000
  H   H16       1.0  0.90870  0.72160  0.39743  1.0000
  H   H17       1.0  0.05250  0.46674  0.41243  1.0000
  H   H18       1.0  0.44752  0.05432  0.58761  1.0000
  H   H19       1.0  0.94754  0.53329  0.58760  1.0000
  H   H20       1.0  0.55247  0.94567  0.41240  1.0000
  H   H21       1.0  0.25745  0.50468  0.64991  1.0000
  H   H22       1.0  0.24258  0.85477  0.35010  1.0000
  H   H23       1.0  0.74261  0.49536  0.35012  1.0000
  H   H24       1.0  0.75741  0.14523  0.64989  1.0000
  H   H25       1.0  0.64915  0.97833  0.14219  1.0000
  H   H26       1.0  0.85077  0.83614  0.85790  1.0000
  H   H27       1.0  0.35080  0.02168  0.85783  1.0000
  H   H28       1.0  0.14917  0.16383  0.14210  1.0000
  H   H29       1.0  0.64346  0.19470  0.14761  1.0000
  H   H30       1.0  0.85652  0.04708  0.85245  1.0000
  H   H31       1.0  0.35653  0.80532  0.85242  1.0000
  H   H32       1.0  0.14346  0.95290  0.14757  1.0000
  C   C1        1.0  0.47469  0.65811  0.58506  1.0000
  C   C2        1.0  0.02534  0.07304  0.41492  1.0000
  C   C3        1.0  0.52534  0.34189  0.41491  1.0000
  C   C4        1.0  0.97467  0.92697  0.58508  1.0000
  C   C5        1.0  0.37068  0.63950  0.45239  1.0000
  C   C6        1.0  0.12934  0.18709  0.54759  1.0000
  C   C7        1.0  0.62933  0.36050  0.54759  1.0000
  C   C8        1.0  0.87067  0.81291  0.45240  1.0000
  C   C9        1.0  0.21577  0.57019  0.38880  1.0000
  C   C10       1.0  0.28425  0.18140  0.61122  1.0000
  C   C11       1.0  0.78424  0.42983  0.61121  1.0000
  C   C12       1.0  0.71576  0.81861  0.38878  1.0000
  C   C13       1.0  0.17252  0.52129  0.46021  1.0000
  C   C14       1.0  0.32749  0.06108  0.53980  1.0000
  C   C15       1.0  0.82750  0.47873  0.53980  1.0000
  C   C16       1.0  0.67251  0.93893  0.46020  1.0000
  C   C17       1.0  0.28560  0.54184  0.59078  1.0000
  C   C18       1.0  0.21442  0.95107  0.40924  1.0000
  C   C19       1.0  0.71444  0.45818  0.40923  1.0000
  C   C20       1.0  0.78558  0.04893  0.59077  1.0000
  C   C21       1.0  0.09871  0.54655  0.24493  1.0000
  C   C22       1.0  0.40130  0.30163  0.75508  1.0000
  C   C23       1.0  0.90129  0.45345  0.75508  1.0000
  C   C24       1.0  0.59871  0.69837  0.24491  1.0000
  C   C25       1.0  0.69485  0.99737  0.07946  1.0000
  C   C26       1.0  0.80506  0.91792  0.92060  1.0000
  C   C27       1.0  0.30509  0.00263  0.92054  1.0000
  C   C28       1.0  0.19488  0.08207  0.07939  1.0000
  C   C29       1.0  0.69153  0.11773  0.08310  1.0000
  C   C30       1.0  0.80842  0.03462  0.91695  1.0000
  C   C31       1.0  0.30844  0.88228  0.91691  1.0000
  C   C32       1.0  0.19155  0.96536  0.08306  1.0000
  C   C33       1.0  0.74997  0.13692  0.00002  1.0000
  C   C34       1.0  0.25001  0.86307  1.00000  1.0000
  C   C35       1.0  0.75000  0.26400  0.00001  1.0000
  C   C36       1.0  0.25001  0.73600  0.00001  1.0000
  N   N1        1.0  0.43444  0.60956  0.65286  1.0000
  N   N2        1.0  0.06559  0.95669  0.34713  1.0000
  N   N3        1.0  0.56561  0.39045  0.34713  1.0000
  N   N4        1.0  0.93441  0.04331  0.65286  1.0000
  N   N5        1.0  0.74995  0.89844  0.00004  1.0000
  N   N6        1.0  0.24999  0.10154  0.99997  1.0000
  O   O1        1.0  0.15062  0.53580  0.15648  1.0000
  O   O2        1.0  0.34938  0.37932  0.84352  1.0000
  O   O3        1.0  0.84936  0.46418  0.84350  1.0000
  O   O4        1.0  0.65063  0.62069  0.15649  1.0000
  O   O5        1.0  0.95743  0.53908  0.22196  1.0000
  O   O6        1.0  0.54259  0.31711  0.77806  1.0000
  O   O7        1.0  0.04259  0.46093  0.77805  1.0000
  O   O8        1.0  0.45741  0.68288  0.22195  1.0000
  O   O9        1.0  0.67101  0.34439  0.05299  1.0000
  O   O10       1.0  0.82899  0.29138  0.94703  1.0000
  O   O11       1.0  0.32900  0.65562  0.94702  1.0000
  O   O12       1.0  0.17104  0.70860  0.05300  1.0000
  O   O13       1.0  0.58183  0.60224  0.89693  1.0000
  O   O14       1.0  0.91817  0.70531  0.10304  1.0000
  O   O15       1.0  0.41816  0.39773  0.10305  1.0000
  O   O16       1.0  0.08182  0.29468  0.89693  1.0000
