data_image0
_chemical_formula_structural       Er2H32C36N6O16
_chemical_formula_sum              "Er2 H32 C36 N6 O16"
_cell_length_a       9.4526
_cell_length_b       10.4497
_cell_length_c       10.4497
_cell_angle_alpha    83.182
_cell_angle_beta     84.3021
_cell_angle_gamma    84.3013

_space_group_name_H-M_alt    "P 1"
_space_group_IT_number       1

loop_
  _space_group_symop_operation_xyz
  'x, y, z'

loop_
  _atom_site_type_symbol
  _atom_site_label
  _atom_site_symmetry_multiplicity
  _atom_site_fract_x
  _atom_site_fract_y
  _atom_site_fract_z
  _atom_site_occupancy
  Er  Er1       1.0  0.25000  0.97424  0.02576  1.0000
  Er  Er2       1.0  0.74999  0.02575  0.97424  1.0000
  H   H1        1.0  0.47207  0.89114  0.20346  1.0000
  H   H2        1.0  0.02794  0.79654  0.10885  1.0000
  H   H3        1.0  0.52793  0.10886  0.79654  1.0000
  H   H4        1.0  0.97207  0.20346  0.89115  1.0000
  H   H5        1.0  0.32161  0.84842  0.28252  1.0000
  H   H6        1.0  0.17840  0.71749  0.15158  1.0000
  H   H7        1.0  0.67838  0.15159  0.71749  1.0000
  H   H8        1.0  0.82160  0.28251  0.84842  1.0000
  H   H9        1.0  0.40282  0.58702  0.84419  1.0000
  H   H10       1.0  0.09716  0.15582  0.41299  1.0000
  H   H11       1.0  0.59717  0.41298  0.15582  1.0000
  H   H12       1.0  0.90284  0.84419  0.58701  1.0000
  H   H13       1.0  0.53700  0.37173  0.80343  1.0000
  H   H14       1.0  0.96297  0.19657  0.62828  1.0000
  H   H15       1.0  0.46299  0.62827  0.19656  1.0000
  H   H16       1.0  0.03703  0.80344  0.37172  1.0000
  H   H17       1.0  0.92092  0.50296  0.86095  1.0000
  H   H18       1.0  0.57907  0.13905  0.49703  1.0000
  H   H19       1.0  0.07907  0.49704  0.13906  1.0000
  H   H20       1.0  0.42094  0.86094  0.50297  1.0000
  H   H21       1.0  0.80505  0.72351  0.89923  1.0000
  H   H22       1.0  0.69495  0.10077  0.27649  1.0000
  H   H23       1.0  0.19495  0.27649  0.10078  1.0000
  H   H24       1.0  0.30506  0.89922  0.72352  1.0000
  H   H25       1.0  0.35790  0.17018  0.56994  1.0000
  H   H26       1.0  0.14209  0.43006  0.82983  1.0000
  H   H27       1.0  0.64210  0.82982  0.43006  1.0000
  H   H28       1.0  0.85791  0.56994  0.17016  1.0000
  H   H29       1.0  0.35529  0.35690  0.39374  1.0000
  H   H30       1.0  0.14472  0.60627  0.64310  1.0000
  H   H31       1.0  0.64473  0.64310  0.60626  1.0000
  H   H32       1.0  0.85529  0.39373  0.35688  1.0000
  C   C1        1.0  0.52011  0.79748  0.91375  1.0000
  C   C2        1.0  0.97987  0.08626  0.20253  1.0000
  C   C3        1.0  0.47988  0.20252  0.08626  1.0000
  C   C4        1.0  0.02012  0.91374  0.79747  1.0000
  C   C5        1.0  0.59443  0.67097  0.87659  1.0000
  C   C6        1.0  0.90555  0.12341  0.32904  1.0000
  C   C7        1.0  0.40555  0.32903  0.12342  1.0000
  C   C8        1.0  0.09446  0.87659  0.67096  1.0000
  C   C9        1.0  0.51825  0.57182  0.84668  1.0000
  C   C10       1.0  0.98173  0.15332  0.42819  1.0000
  C   C11       1.0  0.48174  0.42819  0.15333  1.0000
  C   C12       1.0  0.01827  0.84668  0.57181  1.0000
  C   C13       1.0  0.59180  0.45278  0.82474  1.0000
  C   C14       1.0  0.90818  0.17527  0.54722  1.0000
  C   C15       1.0  0.40819  0.54722  0.17526  1.0000
  C   C16       1.0  0.09183  0.82474  0.45278  1.0000
  C   C17       1.0  0.80616  0.52569  0.85674  1.0000
  C   C18       1.0  0.69383  0.14327  0.47431  1.0000
  C   C19       1.0  0.19383  0.47431  0.14326  1.0000
  C   C20       1.0  0.30618  0.85673  0.52569  1.0000
  C   C21       1.0  0.74255  0.64794  0.87819  1.0000
  C   C22       1.0  0.75744  0.12180  0.35206  1.0000
  C   C23       1.0  0.25744  0.35206  0.12182  1.0000
  C   C24       1.0  0.24257  0.87819  0.64794  1.0000
  C   C25       1.0  0.24999  0.17955  0.82046  1.0000
  C   C26       1.0  0.75000  0.82045  0.17954  1.0000
  C   C27       1.0  0.24999  0.28720  0.71280  1.0000
  C   C28       1.0  0.75001  0.71279  0.28719  1.0000
  C   C29       1.0  0.31094  0.26639  0.58878  1.0000
  C   C30       1.0  0.18904  0.41122  0.73361  1.0000
  C   C31       1.0  0.68906  0.73361  0.41122  1.0000
  C   C32       1.0  0.81096  0.58878  0.26639  1.0000
  C   C33       1.0  0.30820  0.37008  0.49155  1.0000
  C   C34       1.0  0.19180  0.50845  0.62993  1.0000
  C   C35       1.0  0.69180  0.62992  0.50844  1.0000
  C   C36       1.0  0.80821  0.49155  0.37006  1.0000
  N   N1        1.0  0.73315  0.42895  0.83226  1.0000
  N   N2        1.0  0.76683  0.16774  0.57104  1.0000
  N   N3        1.0  0.26684  0.57104  0.16774  1.0000
  N   N4        1.0  0.23317  0.83226  0.42896  1.0000
  N   N5        1.0  0.25000  0.48955  0.51045  1.0000
  N   N6        1.0  0.75001  0.51045  0.48954  1.0000
  O   O1        1.0  0.38460  0.80761  0.92682  1.0000
  O   O2        1.0  0.11538  0.07318  0.19238  1.0000
  O   O3        1.0  0.61539  0.19237  0.07319  1.0000
  O   O4        1.0  0.88461  0.92681  0.80762  1.0000
  O   O5        1.0  0.34416  0.08357  0.81480  1.0000
  O   O6        1.0  0.15583  0.18521  0.91644  1.0000
  O   O7        1.0  0.65584  0.91643  0.18520  1.0000
  O   O8        1.0  0.84416  0.81480  0.08355  1.0000
  O   O9        1.0  0.37576  0.86645  0.19367  1.0000
  O   O10       1.0  0.12424  0.80633  0.13356  1.0000
  O   O11       1.0  0.62423  0.13356  0.80633  1.0000
  O   O12       1.0  0.87576  0.19367  0.86644  1.0000
  O   O13       1.0  0.59640  0.88507  0.93334  1.0000
  O   O14       1.0  0.90360  0.06665  0.11493  1.0000
  O   O15       1.0  0.40360  0.11494  0.06666  1.0000
  O   O16       1.0  0.09640  0.93334  0.88506  1.0000
