data_image0
_chemical_formula_structural       Mn2H44C76N8O8
_chemical_formula_sum              "Mn2 H44 C76 N8 O8"
_cell_length_a       10.6847
_cell_length_b       13.3667
_cell_length_c       13.3668
_cell_angle_alpha    79.4727
_cell_angle_beta     66.439
_cell_angle_gamma    66.4391

_space_group_name_H-M_alt    "P 1"
_space_group_IT_number       1

loop_
  _space_group_symop_operation_xyz
  'x, y, z'

loop_
  _atom_site_type_symbol
  _atom_site_label
  _atom_site_symmetry_multiplicity
  _atom_site_fract_x
  _atom_site_fract_y
  _atom_site_fract_z
  _atom_site_occupancy
  Mn  Mn1       1.0  0.37797  0.12204  0.12200  1.0000
  Mn  Mn2       1.0  0.87796  0.62201  0.62204  1.0000
  H   H1        1.0  0.26028  0.12606  0.94041  1.0000
  H   H2        1.0  0.67327  0.94062  0.12607  1.0000
  H   H3        1.0  0.76029  0.44041  0.62606  1.0000
  H   H4        1.0  0.17327  0.62607  0.44063  1.0000
  H   H5        1.0  0.19212  0.26449  0.79901  1.0000
  H   H6        1.0  0.74453  0.79924  0.26445  1.0000
  H   H7        1.0  0.69211  0.29902  0.76449  1.0000
  H   H8        1.0  0.24453  0.76444  0.29924  1.0000
  H   H9        1.0  0.19606  0.45243  0.79488  1.0000
  H   H10       1.0  0.55675  0.79501  0.45239  1.0000
  H   H11       1.0  0.69605  0.29488  0.95243  1.0000
  H   H12       1.0  0.05676  0.95238  0.29501  1.0000
  H   H13       1.0  0.23294  0.58476  0.88777  1.0000
  H   H14       1.0  0.29456  0.88782  0.58475  1.0000
  H   H15       1.0  0.73294  0.38777  0.08476  1.0000
  H   H16       1.0  0.79456  0.08475  0.38782  1.0000
  H   H17       1.0  0.36523  0.54535  0.20729  1.0000
  H   H18       1.0  0.88208  0.20731  0.54546  1.0000
  H   H19       1.0  0.86523  0.70729  0.04535  1.0000
  H   H20       1.0  0.38208  0.04546  0.70730  1.0000
  H   H21       1.0  0.44407  0.38105  0.32482  1.0000
  H   H22       1.0  0.84992  0.32486  0.38119  1.0000
  H   H23       1.0  0.94407  0.82482  0.88105  1.0000
  H   H24       1.0  0.34992  0.88119  0.82486  1.0000
  H   H25       1.0  0.46234  0.20047  0.28396  1.0000
  H   H26       1.0  0.05300  0.28402  0.20055  1.0000
  H   H27       1.0  0.96234  0.78397  0.70047  1.0000
  H   H28       1.0  0.55300  0.70055  0.78402  1.0000
  H   H29       1.0  0.06081  0.72207  0.05253  1.0000
  H   H30       1.0  0.16455  0.05255  0.72214  1.0000
  H   H31       1.0  0.56082  0.55253  0.22206  1.0000
  H   H32       1.0  0.66454  0.22213  0.55255  1.0000
  H   H33       1.0  0.03301  0.91203  0.08065  1.0000
  H   H34       1.0  0.97418  0.08059  0.91212  1.0000
  H   H35       1.0  0.53302  0.58066  0.41202  1.0000
  H   H36       1.0  0.47417  0.41211  0.58059  1.0000
  H   H37       1.0  0.48346  0.79532  0.04863  1.0000
  H   H38       1.0  0.67262  0.04852  0.79527  1.0000
  H   H39       1.0  0.98347  0.54863  0.29532  1.0000
  H   H40       1.0  0.17262  0.29527  0.54852  1.0000
  H   H41       1.0  0.51134  0.60545  0.02457  1.0000
  H   H42       1.0  0.85868  0.02468  0.60539  1.0000
  H   H43       1.0  0.01135  0.52457  0.10545  1.0000
  H   H44       1.0  0.35868  0.10538  0.52468  1.0000
  C   C1        1.0  0.26075  0.20787  0.93664  1.0000
  C   C2        1.0  0.59473  0.93682  0.20787  1.0000
  C   C3        1.0  0.76075  0.43665  0.70787  1.0000
  C   C4        1.0  0.09474  0.70786  0.43683  1.0000
  C   C5        1.0  0.22209  0.28648  0.85856  1.0000
  C   C6        1.0  0.63297  0.85874  0.28645  1.0000
  C   C7        1.0  0.72209  0.35857  0.78648  1.0000
  C   C8        1.0  0.13297  0.78645  0.35874  1.0000
  C   C9        1.0  0.22300  0.39066  0.85639  1.0000
  C   C10       1.0  0.53007  0.85650  0.39061  1.0000
  C   C11       1.0  0.72300  0.35639  0.89066  1.0000
  C   C12       1.0  0.03007  0.89061  0.35650  1.0000
  C   C13       1.0  0.26318  0.51944  0.94556  1.0000
  C   C14       1.0  0.27181  0.94563  0.51944  1.0000
  C   C15       1.0  0.76318  0.44557  0.01944  1.0000
  C   C16       1.0  0.77182  0.01943  0.44563  1.0000
  C   C17       1.0  0.29878  0.53997  0.02611  1.0000
  C   C18       1.0  0.13514  0.02620  0.53996  1.0000
  C   C19       1.0  0.79878  0.52611  0.03997  1.0000
  C   C20       1.0  0.63514  0.03996  0.52620  1.0000
  C   C21       1.0  0.37502  0.46533  0.19049  1.0000
  C   C22       1.0  0.96907  0.19049  0.46541  1.0000
  C   C23       1.0  0.87503  0.69049  0.96533  1.0000
  C   C24       1.0  0.46907  0.96541  0.69049  1.0000
  C   C25       1.0  0.41779  0.37455  0.25603  1.0000
  C   C26       1.0  0.95149  0.25604  0.37465  1.0000
  C   C27       1.0  0.91780  0.75603  0.87455  1.0000
  C   C28       1.0  0.45149  0.87465  0.75604  1.0000
  C   C29       1.0  0.42646  0.27290  0.23503  1.0000
  C   C30       1.0  0.06540  0.23504  0.27296  1.0000
  C   C31       1.0  0.92647  0.73503  0.77290  1.0000
  C   C32       1.0  0.56540  0.77296  0.73504  1.0000
  C   C33       1.0  0.34769  0.34870  0.08939  1.0000
  C   C34       1.0  0.21411  0.08941  0.34870  1.0000
  C   C35       1.0  0.84769  0.58939  0.84870  1.0000
  C   C36       1.0  0.71411  0.84870  0.58941  1.0000
  C   C37       1.0  0.30341  0.33077  0.00965  1.0000
  C   C38       1.0  0.35609  0.00971  0.33075  1.0000
  C   C39       1.0  0.80341  0.50966  0.83077  1.0000
  C   C40       1.0  0.85609  0.83075  0.50971  1.0000
  C   C41       1.0  0.26293  0.41503  0.93493  1.0000
  C   C42       1.0  0.38713  0.93501  0.41501  1.0000
  C   C43       1.0  0.76293  0.43494  0.91503  1.0000
  C   C44       1.0  0.88713  0.91500  0.43501  1.0000
  C   C45       1.0  0.34244  0.45338  0.10198  1.0000
  C   C46       1.0  0.10211  0.10199  0.45342  1.0000
  C   C47       1.0  0.84245  0.60198  0.95338  1.0000
  C   C48       1.0  0.60211  0.95342  0.60199  1.0000
  C   C49       1.0  0.28702  0.65145  0.03778  1.0000
  C   C50       1.0  0.02373  0.03781  0.65151  1.0000
  C   C51       1.0  0.78703  0.53778  0.15145  1.0000
  C   C52       1.0  0.52372  0.15151  0.53781  1.0000
  C   C53       1.0  0.15334  0.73871  0.05124  1.0000
  C   C54       1.0  0.05669  0.05123  0.73880  1.0000
  C   C55       1.0  0.65335  0.55124  0.23870  1.0000
  C   C56       1.0  0.55669  0.23880  0.55123  1.0000
  C   C57       1.0  0.13741  0.84394  0.06669  1.0000
  C   C58       1.0  0.95192  0.06665  0.84398  1.0000
  C   C59       1.0  0.63742  0.56669  0.34393  1.0000
  C   C60       1.0  0.45192  0.34398  0.56665  1.0000
  C   C61       1.0  0.25612  0.86394  0.06711  1.0000
  C   C62       1.0  0.81285  0.06695  0.86392  1.0000
  C   C63       1.0  0.75613  0.56711  0.36393  1.0000
  C   C64       1.0  0.31285  0.36392  0.56695  1.0000
  C   C65       1.0  0.39138  0.77783  0.05023  1.0000
  C   C66       1.0  0.78059  0.05010  0.77783  1.0000
  C   C67       1.0  0.89139  0.55023  0.27782  1.0000
  C   C68       1.0  0.28059  0.27782  0.55010  1.0000
  C   C69       1.0  0.40637  0.67234  0.03683  1.0000
  C   C70       1.0  0.88453  0.03686  0.67229  1.0000
  C   C71       1.0  0.90638  0.53683  0.17234  1.0000
  C   C72       1.0  0.38453  0.17229  0.53686  1.0000
  C   C73       1.0  0.23557  0.97667  0.09059  1.0000
  C   C74       1.0  0.69718  0.09048  0.97671  1.0000
  C   C75       1.0  0.73558  0.59059  0.47666  1.0000
  C   C76       1.0  0.19717  0.47670  0.59048  1.0000
  N   N1        1.0  0.30163  0.22833  0.01156  1.0000
  N   N2        1.0  0.45843  0.01166  0.22830  1.0000
  N   N3        1.0  0.80163  0.51157  0.72833  1.0000
  N   N4        1.0  0.95843  0.72830  0.51166  1.0000
  N   N5        1.0  0.39026  0.25922  0.15430  1.0000
  N   N6        1.0  0.19604  0.15433  0.25926  1.0000
  N   N7        1.0  0.89026  0.65431  0.75922  1.0000
  N   N8        1.0  0.69605  0.75926  0.65434  1.0000
  O   O1        1.0  0.10960  0.04703  0.12651  1.0000
  O   O2        1.0  0.71688  0.12644  0.04700  1.0000
  O   O3        1.0  0.60961  0.62652  0.54702  1.0000
  O   O4        1.0  0.21688  0.54700  0.62645  1.0000
  O   O5        1.0  0.35842  0.98792  0.07049  1.0000
  O   O6        1.0  0.58312  0.07043  0.98790  1.0000
  O   O7        1.0  0.85843  0.57048  0.48791  1.0000
  O   O8        1.0  0.08313  0.48789  0.57043  1.0000
