data_image0
_chemical_formula_structural       CoH34C28N4O8
_chemical_formula_sum              "Co1 H34 C28 N4 O8"
_cell_length_a       7.66337
_cell_length_b       8.34119
_cell_length_c       10.7425
_cell_angle_alpha    96.1099
_cell_angle_beta     98.8524
_cell_angle_gamma    96.8521

_space_group_name_H-M_alt    "P 1"
_space_group_IT_number       1

loop_
  _space_group_symop_operation_xyz
  'x, y, z'

loop_
  _atom_site_type_symbol
  _atom_site_label
  _atom_site_symmetry_multiplicity
  _atom_site_fract_x
  _atom_site_fract_y
  _atom_site_fract_z
  _atom_site_occupancy
  Co  Co1       1.0  1.00000  0.00000  0.00000  1.0000
  H   H1        1.0  0.37401  0.03950  0.04424  1.0000
  H   H2        1.0  0.62600  0.96049  0.95575  1.0000
  H   H3        1.0  0.27189  0.92736  0.91555  1.0000
  H   H4        1.0  0.72810  0.07263  0.08445  1.0000
  H   H5        1.0  0.35917  0.71469  0.05033  1.0000
  H   H6        1.0  0.64084  0.28531  0.94967  1.0000
  H   H7        1.0  0.25490  0.28730  0.11707  1.0000
  H   H8        1.0  0.74511  0.71271  0.88293  1.0000
  H   H9        1.0  0.88740  0.15945  0.78405  1.0000
  H   H10       1.0  0.11261  0.84055  0.21596  1.0000
  H   H11       1.0  0.96855  0.42841  0.70903  1.0000
  H   H12       1.0  0.03145  0.57159  0.29097  1.0000
  H   H13       1.0  0.20178  0.63435  0.84699  1.0000
  H   H14       1.0  0.79823  0.36566  0.15301  1.0000
  H   H15       1.0  0.54498  0.84660  0.19888  1.0000
  H   H16       1.0  0.45502  0.15341  0.80113  1.0000
  H   H17       1.0  0.69021  0.73933  0.29234  1.0000
  H   H18       1.0  0.30980  0.26069  0.70766  1.0000
  H   H19       1.0  0.32030  0.79024  0.35271  1.0000
  H   H20       1.0  0.67971  0.20977  0.64729  1.0000
  H   H21       1.0  0.49125  0.71739  0.44913  1.0000
  H   H22       1.0  0.50876  0.28260  0.55087  1.0000
  H   H23       1.0  0.50163  0.06147  0.36982  1.0000
  H   H24       1.0  0.49838  0.93852  0.63019  1.0000
  H   H25       1.0  0.68303  0.99364  0.45916  1.0000
  H   H26       1.0  0.31698  0.00635  0.54085  1.0000
  H   H27       1.0  0.00228  0.08577  0.44605  1.0000
  H   H28       1.0  0.99771  0.91423  0.55395  1.0000
  H   H29       1.0  0.19904  0.17288  0.39603  1.0000
  H   H30       1.0  0.80094  0.82711  0.60397  1.0000
  H   H31       1.0  0.73716  0.29588  0.40605  1.0000
  H   H32       1.0  0.26283  0.70412  0.59394  1.0000
  H   H33       1.0  0.69388  0.56561  0.50413  1.0000
  H   H34       1.0  0.30611  0.43439  0.49587  1.0000
  C   C1        1.0  0.24248  0.47804  0.99495  1.0000
  C   C2        1.0  0.75752  0.52197  0.00505  1.0000
  C   C3        1.0  0.19588  0.32164  0.02708  1.0000
  C   C4        1.0  0.80413  0.67837  0.97292  1.0000
  C   C5        1.0  0.98987  0.25149  0.83976  1.0000
  C   C6        1.0  0.01014  0.74851  0.16024  1.0000
  C   C7        1.0  0.03500  0.40162  0.79999  1.0000
  C   C8        1.0  0.96500  0.59839  0.20001  1.0000
  C   C9        1.0  0.16298  0.51655  0.87716  1.0000
  C   C10       1.0  0.83702  0.48346  0.12284  1.0000
  C   C11       1.0  0.45499  0.58932  0.19398  1.0000
  C   C12       1.0  0.54501  0.41070  0.80601  1.0000
  C   C13       1.0  0.54921  0.75187  0.26249  1.0000
  C   C14       1.0  0.45079  0.24813  0.73752  1.0000
  C   C15       1.0  0.46635  0.80282  0.37920  1.0000
  C   C16       1.0  0.53366  0.19718  0.62080  1.0000
  C   C17       1.0  0.53610  0.97707  0.43921  1.0000
  C   C18       1.0  0.46391  0.02293  0.56080  1.0000
  C   C19       1.0  0.96429  0.12295  0.25338  1.0000
  C   C20       1.0  0.03570  0.87704  0.74662  1.0000
  C   C21       1.0  0.05583  0.17768  0.39003  1.0000
  C   C22       1.0  0.94415  0.82232  0.60997  1.0000
  C   C23       1.0  0.02481  0.34401  0.44537  1.0000
  C   C24       1.0  0.97518  0.65599  0.55463  1.0000
  C   C25       1.0  0.85291  0.38420  0.44826  1.0000
  C   C26       1.0  0.14708  0.61581  0.55174  1.0000
  C   C27       1.0  0.82903  0.53788  0.50234  1.0000
  C   C28       1.0  0.17096  0.46212  0.49766  1.0000
  N   N1        1.0  0.07069  0.21098  0.95067  1.0000
  N   N2        1.0  0.92931  0.78902  0.04934  1.0000
  N   N3        1.0  0.36011  0.59949  0.07586  1.0000
  N   N4        1.0  0.63990  0.40052  0.92414  1.0000
  O   O1        1.0  0.46017  0.46073  0.24149  1.0000
  O   O2        1.0  0.53985  0.53927  0.75852  1.0000
  O   O3        1.0  0.06970  0.09024  0.17461  1.0000
  O   O4        1.0  0.93028  0.90976  0.82539  1.0000
  O   O5        1.0  0.79637  0.10980  0.22657  1.0000
  O   O6        1.0  0.20362  0.89019  0.77343  1.0000
  O   O7        1.0  0.29852  0.93600  0.01354  1.0000
  O   O8        1.0  0.70147  0.06400  0.98646  1.0000
