data_image0
_chemical_formula_structural       NiH34C28N4O8
_chemical_formula_sum              "Ni1 H34 C28 N4 O8"
_cell_length_a       8.03948
_cell_length_b       8.60749
_cell_length_c       10.1929
_cell_angle_alpha    95.9994
_cell_angle_beta     97.3228
_cell_angle_gamma    100.193

_space_group_name_H-M_alt    "P 1"
_space_group_IT_number       1

loop_
  _space_group_symop_operation_xyz
  'x, y, z'

loop_
  _atom_site_type_symbol
  _atom_site_label
  _atom_site_symmetry_multiplicity
  _atom_site_fract_x
  _atom_site_fract_y
  _atom_site_fract_z
  _atom_site_occupancy
  Ni  Ni1       1.0  0.99994  0.00050  0.00000  1.0000
  H   H1        1.0  0.45459  0.96989  0.02101  1.0000
  H   H2        1.0  0.68318  0.02884  0.91855  1.0000
  H   H3        1.0  0.27719  0.89045  0.94201  1.0000
  H   H4        1.0  0.71384  0.09926  0.07125  1.0000
  H   H5        1.0  0.37496  0.70298  0.06034  1.0000
  H   H6        1.0  0.61924  0.30028  0.94504  1.0000
  H   H7        1.0  0.26456  0.27385  0.11922  1.0000
  H   H8        1.0  0.73343  0.72387  0.88128  1.0000
  H   H9        1.0  0.88670  0.16549  0.78598  1.0000
  H   H10       1.0  0.11964  0.83643  0.20852  1.0000
  H   H11       1.0  0.96540  0.43691  0.71978  1.0000
  H   H12       1.0  0.03792  0.56684  0.28071  1.0000
  H   H13       1.0  0.20215  0.63405  0.86114  1.0000
  H   H14       1.0  0.79861  0.36928  0.14340  1.0000
  H   H15       1.0  0.58141  0.82328  0.20506  1.0000
  H   H16       1.0  0.41649  0.17616  0.79827  1.0000
  H   H17       1.0  0.69439  0.71906  0.31639  1.0000
  H   H18       1.0  0.30381  0.28070  0.68733  1.0000
  H   H19       1.0  0.33737  0.78102  0.35132  1.0000
  H   H20       1.0  0.65960  0.21722  0.64957  1.0000
  H   H21       1.0  0.48476  0.72152  0.46914  1.0000
  H   H22       1.0  0.51187  0.27826  0.53349  1.0000
  H   H23       1.0  0.68110  0.99102  0.47755  1.0000
  H   H24       1.0  0.31417  0.01005  0.52301  1.0000
  H   H25       1.0  0.52706  0.04488  0.36169  1.0000
  H   H26       1.0  0.46590  0.95322  0.63855  1.0000
  H   H27       1.0  0.99167  0.09799  0.45852  1.0000
  H   H28       1.0  0.00068  0.90334  0.54149  1.0000
  H   H29       1.0  0.18668  0.18477  0.40741  1.0000
  H   H30       1.0  0.80506  0.81554  0.59097  1.0000
  H   H31       1.0  0.74547  0.28699  0.41079  1.0000
  H   H32       1.0  0.24755  0.71444  0.58903  1.0000
  H   H33       1.0  0.70213  0.55075  0.50246  1.0000
  H   H34       1.0  0.29097  0.45036  0.49765  1.0000
  C   C1        1.0  0.24810  0.47133  0.00474  1.0000
  C   C2        1.0  0.75113  0.52971  0.99810  1.0000
  C   C3        1.0  0.20071  0.31419  0.03253  1.0000
  C   C4        1.0  0.79815  0.68589  0.96872  1.0000
  C   C5        1.0  0.98879  0.25439  0.84512  1.0000
  C   C6        1.0  0.01362  0.74788  0.15384  1.0000
  C   C7        1.0  0.03375  0.40572  0.80943  1.0000
  C   C8        1.0  0.96821  0.59739  0.19139  1.0000
  C   C9        1.0  0.16446  0.51529  0.88856  1.0000
  C   C10       1.0  0.83592  0.48728  0.11436  1.0000
  C   C11       1.0  0.46593  0.57609  0.20556  1.0000
  C   C12       1.0  0.53336  0.42318  0.79658  1.0000
  C   C13       1.0  0.56638  0.73559  0.27566  1.0000
  C   C14       1.0  0.43190  0.26369  0.72743  1.0000
  C   C15       1.0  0.47491  0.79660  0.38845  1.0000
  C   C16       1.0  0.52174  0.20244  0.61361  1.0000
  C   C17       1.0  0.54231  0.97151  0.44318  1.0000
  C   C18       1.0  0.45271  0.02803  0.55774  1.0000
  C   C19       1.0  0.96787  0.12598  0.25437  1.0000
  C   C20       1.0  0.02331  0.87468  0.74532  1.0000
  C   C21       1.0  0.04971  0.18598  0.39814  1.0000
  C   C22       1.0  0.94220  0.81504  0.60148  1.0000
  C   C23       1.0  0.02089  0.34850  0.44932  1.0000
  C   C24       1.0  0.97205  0.65278  0.55060  1.0000
  C   C25       1.0  0.85591  0.37984  0.45101  1.0000
  C   C26       1.0  0.13714  0.62147  0.54896  1.0000
  C   C27       1.0  0.83192  0.52983  0.50140  1.0000
  C   C28       1.0  0.16117  0.47136  0.49868  1.0000
  N   N1        1.0  0.07195  0.20947  0.95423  1.0000
  N   N2        1.0  0.92786  0.79142  0.04531  1.0000
  N   N3        1.0  0.37009  0.58797  0.08648  1.0000
  N   N4        1.0  0.62757  0.41295  0.91715  1.0000
  O   O1        1.0  0.46654  0.44988  0.25395  1.0000
  O   O2        1.0  0.53598  0.54841  0.74644  1.0000
  O   O3        1.0  0.07245  0.07895  0.17946  1.0000
  O   O4        1.0  0.91887  0.92372  0.82086  1.0000
  O   O5        1.0  0.81210  0.12337  0.21891  1.0000
  O   O6        1.0  0.17761  0.87616  0.78226  1.0000
  O   O7        1.0  0.34974  0.89360  0.02940  1.0000
  O   O8        1.0  0.63548  0.09297  0.98336  1.0000
