data_image0
_chemical_formula_structural       Cd2H60C56N8O12
_chemical_formula_sum              "Cd2 H60 C56 N8 O12"
_cell_length_a       9.39366
_cell_length_b       11.3433
_cell_length_c       14.2348
_cell_angle_alpha    100.346
_cell_angle_beta     102.404
_cell_angle_gamma    106.653

_space_group_name_H-M_alt    "P 1"
_space_group_IT_number       1

loop_
  _space_group_symop_operation_xyz
  'x, y, z'

loop_
  _atom_site_type_symbol
  _atom_site_label
  _atom_site_symmetry_multiplicity
  _atom_site_fract_x
  _atom_site_fract_y
  _atom_site_fract_z
  _atom_site_occupancy
  Cd  Cd1       1.0  0.91152  0.59424  0.58723  1.0000
  Cd  Cd2       1.0  0.08848  0.40576  0.41277  1.0000
  H   H1        1.0  0.50004  0.71994  0.97574  1.0000
  H   H2        1.0  0.49998  0.28006  0.02425  1.0000
  H   H3        1.0  0.35056  0.39239  0.26114  1.0000
  H   H4        1.0  0.64945  0.60761  0.73887  1.0000
  H   H5        1.0  0.94482  0.36478  0.69062  1.0000
  H   H6        1.0  0.05520  0.63522  0.30938  1.0000
  H   H7        1.0  0.12346  0.32560  0.83014  1.0000
  H   H8        1.0  0.87656  0.67441  0.16987  1.0000
  H   H9        1.0  0.35878  0.50785  0.93844  1.0000
  H   H10       1.0  0.64123  0.49217  0.06157  1.0000
  H   H11       1.0  0.23212  0.73879  0.74688  1.0000
  H   H12       1.0  0.76788  0.26122  0.25311  1.0000
  H   H13       1.0  0.63842  0.94995  0.04698  1.0000
  H   H14       1.0  0.36159  0.05008  0.95302  1.0000
  H   H15       1.0  0.75297  0.89514  0.97896  1.0000
  H   H16       1.0  0.24702  0.10485  0.02105  1.0000
  H   H17       1.0  0.63323  0.11609  0.95250  1.0000
  H   H18       1.0  0.36678  0.88392  0.04750  1.0000
  H   H19       1.0  0.73208  0.05590  0.87649  1.0000
  H   H20       1.0  0.26793  0.94410  0.12350  1.0000
  H   H21       1.0  0.86551  0.18228  0.10080  1.0000
  H   H22       1.0  0.13450  0.81772  0.89920  1.0000
  H   H23       1.0  0.96353  0.11331  0.02672  1.0000
  H   H24       1.0  0.03648  0.88670  0.97327  1.0000
  H   H25       1.0  0.83231  0.32189  0.98063  1.0000
  H   H26       1.0  0.16770  0.67812  0.01936  1.0000
  H   H27       1.0  0.94841  0.26085  0.91839  1.0000
  H   H28       1.0  0.05161  0.73916  0.08161  1.0000
  H   H29       1.0  0.05027  0.41322  0.13744  1.0000
  H   H30       1.0  0.94972  0.58677  0.86257  1.0000
  H   H31       1.0  0.09299  0.47458  0.03744  1.0000
  H   H32       1.0  0.90703  0.52543  0.96257  1.0000
  H   H33       1.0  0.20878  0.27556  0.11702  1.0000
  H   H34       1.0  0.79122  0.72443  0.88297  1.0000
  H   H35       1.0  0.23989  0.32328  0.00770  1.0000
  H   H36       1.0  0.76011  0.67673  0.99230  1.0000
  H   H37       1.0  0.83754  0.83028  0.52965  1.0000
  H   H38       1.0  0.16247  0.16970  0.47036  1.0000
  H   H39       1.0  0.67970  0.89310  0.39653  1.0000
  H   H40       1.0  0.32031  0.10690  0.60349  1.0000
  H   H41       1.0  0.47324  0.72141  0.25505  1.0000
  H   H42       1.0  0.52678  0.27860  0.74496  1.0000
  H   H43       1.0  0.61207  0.44598  0.39042  1.0000
  H   H44       1.0  0.38793  0.55401  0.60958  1.0000
  H   H45       1.0  0.86578  0.93826  0.82833  1.0000
  H   H46       1.0  0.13419  0.06173  0.17167  1.0000
  H   H47       1.0  0.05503  0.00434  0.81441  1.0000
  H   H48       1.0  0.94495  0.99567  0.18558  1.0000
  H   H49       1.0  0.08021  0.07666  0.65776  1.0000
  H   H50       1.0  0.91978  0.92332  0.34223  1.0000
  H   H51       1.0  0.96931  0.16962  0.52675  1.0000
  H   H52       1.0  0.03068  0.83037  0.47324  1.0000
  H   H53       1.0  0.53734  0.06880  0.59844  1.0000
  H   H54       1.0  0.46265  0.93120  0.40155  1.0000
  H   H55       1.0  0.64150  0.96749  0.72395  1.0000
  H   H56       1.0  0.35848  0.03251  0.27604  1.0000
  H   H57       1.0  0.55754  0.16363  0.46286  1.0000
  H   H58       1.0  0.44246  0.83638  0.53714  1.0000
  H   H59       1.0  0.70813  0.15544  0.40581  1.0000
  H   H60       1.0  0.29185  0.84455  0.59418  1.0000
  C   C1        1.0  0.05171  0.43948  0.73653  1.0000
  C   C2        1.0  0.94831  0.56052  0.26347  1.0000
  C   C3        1.0  0.15075  0.41909  0.81505  1.0000
  C   C4        1.0  0.84927  0.58092  0.18494  1.0000
  C   C5        1.0  0.28252  0.51894  0.87373  1.0000
  C   C6        1.0  0.71749  0.48108  0.12628  1.0000
  C   C7        1.0  0.31567  0.63694  0.85022  1.0000
  C   C8        1.0  0.68432  0.36307  0.14978  1.0000
  C   C9        1.0  0.21204  0.64978  0.76868  1.0000
  C   C10       1.0  0.78796  0.35022  0.23131  1.0000
  C   C11       1.0  0.51835  0.85150  0.89269  1.0000
  C   C12       1.0  0.48163  0.14853  0.10731  1.0000
  C   C13       1.0  0.66312  0.94054  0.97415  1.0000
  C   C14       1.0  0.33688  0.05946  0.02585  1.0000
  C   C15       1.0  0.72160  0.07012  0.95271  1.0000
  C   C16       1.0  0.27841  0.92988  0.04730  1.0000
  C   C17       1.0  0.87563  0.16050  0.02437  1.0000
  C   C18       1.0  0.12438  0.83950  0.97563  1.0000
  C   C19       1.0  0.92846  0.28369  0.99210  1.0000
  C   C20       1.0  0.07155  0.71632  0.00790  1.0000
  C   C21       1.0  0.07162  0.38830  0.06469  1.0000
  C   C22       1.0  0.92838  0.61170  0.93532  1.0000
  C   C23       1.0  0.21986  0.35358  0.08025  1.0000
  C   C24       1.0  0.78014  0.64642  0.91975  1.0000
  C   C25       1.0  0.35791  0.46942  0.14204  1.0000
  C   C26       1.0  0.64209  0.53060  0.85796  1.0000
  C   C27       1.0  0.74964  0.75848  0.46657  1.0000
  C   C28       1.0  0.25036  0.24151  0.53343  1.0000
  C   C29       1.0  0.66060  0.79260  0.39174  1.0000
  C   C30       1.0  0.33942  0.20741  0.60826  1.0000
  C   C31       1.0  0.54743  0.69821  0.31343  1.0000
  C   C32       1.0  0.45258  0.30180  0.68657  1.0000
  C   C33       1.0  0.52684  0.57072  0.31263  1.0000
  C   C34       1.0  0.47317  0.42928  0.68737  1.0000
  C   C35       1.0  0.62367  0.54417  0.38939  1.0000
  C   C36       1.0  0.37633  0.45582  0.61061  1.0000
  C   C37       1.0  0.92254  0.81909  0.71627  1.0000
  C   C38       1.0  0.07745  0.18089  0.28373  1.0000
  C   C39       1.0  0.93287  0.95027  0.77442  1.0000
  C   C40       1.0  0.06710  0.04972  0.22558  1.0000
  C   C41       1.0  0.87002  0.01745  0.70167  1.0000
  C   C42       1.0  0.12996  0.98254  0.29832  1.0000
  C   C43       1.0  0.96095  0.07529  0.64521  1.0000
  C   C44       1.0  0.03902  0.92470  0.35479  1.0000
  C   C45       1.0  0.89896  0.12699  0.57149  1.0000
  C   C46       1.0  0.10103  0.87300  0.42850  1.0000
  C   C47       1.0  0.74587  0.12602  0.55360  1.0000
  C   C48       1.0  0.25412  0.87398  0.44639  1.0000
  C   C49       1.0  0.65650  0.07050  0.61127  1.0000
  C   C50       1.0  0.34349  0.92950  0.38872  1.0000
  C   C51       1.0  0.71644  0.01484  0.68315  1.0000
  C   C52       1.0  0.28354  0.98515  0.31684  1.0000
  C   C53       1.0  0.68295  0.18735  0.47606  1.0000
  C   C54       1.0  0.31704  0.81265  0.52393  1.0000
  C   C55       1.0  0.75850  0.33128  0.51331  1.0000
  C   C56       1.0  0.24152  0.66872  0.48669  1.0000
  N   N1        1.0  0.08230  0.55301  0.71510  1.0000
  N   N2        1.0  0.91771  0.44700  0.28490  1.0000
  N   N3        1.0  0.44889  0.73684  0.91129  1.0000
  N   N4        1.0  0.55111  0.26316  0.08871  1.0000
  N   N5        1.0  0.41007  0.46918  0.23918  1.0000
  N   N6        1.0  0.58994  0.53082  0.76082  1.0000
  N   N7        1.0  0.73294  0.63617  0.46455  1.0000
  N   N8        1.0  0.26707  0.36382  0.53545  1.0000
  O   O1        1.0  0.46747  0.87997  0.81567  1.0000
  O   O2        1.0  0.53248  0.12007  0.18436  1.0000
  O   O3        1.0  0.41573  0.55762  0.10611  1.0000
  O   O4        1.0  0.58425  0.44237  0.89390  1.0000
  O   O5        1.0  0.81126  0.72123  0.71227  1.0000
  O   O6        1.0  0.18874  0.27875  0.28773  1.0000
  O   O7        1.0  0.02391  0.81540  0.66987  1.0000
  O   O8        1.0  0.97609  0.18459  0.33014  1.0000
  O   O9        1.0  0.70752  0.39307  0.57322  1.0000
  O   O10       1.0  0.29250  0.60694  0.42678  1.0000
  O   O11       1.0  0.87565  0.38669  0.48526  1.0000
  O   O12       1.0  0.12436  0.61329  0.51474  1.0000
