data_image0
_chemical_formula_structural       CuH30C26N4O8
_chemical_formula_sum              "Cu1 H30 C26 N4 O8"
_cell_length_a       7.57368
_cell_length_b       8.88033
_cell_length_c       10.5812
_cell_angle_alpha    69.7574
_cell_angle_beta     75.4036
_cell_angle_gamma    68.5544

_space_group_name_H-M_alt    "P 1"
_space_group_IT_number       1

loop_
  _space_group_symop_operation_xyz
  'x, y, z'

loop_
  _atom_site_type_symbol
  _atom_site_label
  _atom_site_symmetry_multiplicity
  _atom_site_fract_x
  _atom_site_fract_y
  _atom_site_fract_z
  _atom_site_occupancy
  Cu  Cu1       1.0  0.00000  1.00000  0.00000  1.0000
  H   H1        1.0  0.80571  0.32625  0.29959  1.0000
  H   H2        1.0  0.19429  0.67375  0.70042  1.0000
  H   H3        1.0  0.32578  0.69752  0.97515  1.0000
  H   H4        1.0  0.67422  0.30248  0.02485  1.0000
  H   H5        1.0  0.38399  0.38032  0.05747  1.0000
  H   H6        1.0  0.61601  0.61968  0.94253  1.0000
  H   H7        1.0  0.11552  0.27153  0.19557  1.0000
  H   H8        1.0  0.88448  0.72847  0.80444  1.0000
  H   H9        1.0  0.75755  0.78889  0.14825  1.0000
  H   H10       1.0  0.24245  0.21110  0.85176  1.0000
  H   H11       1.0  0.50049  0.36374  0.46587  1.0000
  H   H12       1.0  0.49951  0.63626  0.53413  1.0000
  H   H13       1.0  0.44673  0.35086  0.31985  1.0000
  H   H14       1.0  0.55327  0.64914  0.68015  1.0000
  H   H15       1.0  0.18209  0.62781  0.30183  1.0000
  H   H16       1.0  0.81791  0.37219  0.69817  1.0000
  H   H17       1.0  0.23138  0.64211  0.44938  1.0000
  H   H18       1.0  0.76862  0.35789  0.55062  1.0000
  H   H19       1.0  0.10779  0.35619  0.43355  1.0000
  H   H20       1.0  0.89221  0.64381  0.56646  1.0000
  H   H21       1.0  0.15841  0.36760  0.58206  1.0000
  H   H22       1.0  0.84159  0.63240  0.41794  1.0000
  H   H23       1.0  0.20041  0.98258  0.45720  1.0000
  H   H24       1.0  0.79959  0.01741  0.54280  1.0000
  H   H25       1.0  0.47005  0.01386  0.26696  1.0000
  H   H26       1.0  0.52995  0.98613  0.73304  1.0000
  H   H27       1.0  0.14536  0.02427  0.18818  1.0000
  H   H28       1.0  0.85464  0.97572  0.81182  1.0000
  H   H29       1.0  0.33707  0.88664  0.15358  1.0000
  H   H30       1.0  0.66293  0.11336  0.84642  1.0000
  C   C1        1.0  0.21472  0.64107  0.03545  1.0000
  C   C2        1.0  0.78528  0.35894  0.96455  1.0000
  C   C3        1.0  0.24518  0.46789  0.08235  1.0000
  C   C4        1.0  0.75482  0.53211  0.91765  1.0000
  C   C5        1.0  0.09520  0.40648  0.15894  1.0000
  C   C6        1.0  0.90480  0.59352  0.84106  1.0000
  C   C7        1.0  0.91420  0.52052  0.18501  1.0000
  C   C8        1.0  0.08580  0.47948  0.81499  1.0000
  C   C9        1.0  0.89334  0.69386  0.13316  1.0000
  C   C10       1.0  0.10666  0.30614  0.86684  1.0000
  C   C11       1.0  0.57366  0.54417  0.28145  1.0000
  C   C12       1.0  0.42634  0.45583  0.71855  1.0000
  C   C13       1.0  0.44200  0.44227  0.37039  1.0000
  C   C14       1.0  0.55800  0.55774  0.62961  1.0000
  C   C15       1.0  0.23553  0.55099  0.39887  1.0000
  C   C16       1.0  0.76447  0.44901  0.60113  1.0000
  C   C17       1.0  0.10353  0.44619  0.48535  1.0000
  C   C18       1.0  0.89647  0.55381  0.51465  1.0000
  C   C19       1.0  0.18920  0.95729  0.72078  1.0000
  C   C20       1.0  0.81080  0.04270  0.27922  1.0000
  C   C21       1.0  0.34974  0.98138  0.60658  1.0000
  C   C22       1.0  0.65026  0.01861  0.39342  1.0000
  C   C23       1.0  0.33233  0.98974  0.47520  1.0000
  C   C24       1.0  0.66767  0.01026  0.52480  1.0000
  C   C25       1.0  0.48208  0.00785  0.36922  1.0000
  C   C26       1.0  0.51792  0.99215  0.63077  1.0000
  N   N1        1.0  0.04196  0.74998  0.06207  1.0000
  N   N2        1.0  0.95804  0.25002  0.93793  1.0000
  N   N3        1.0  0.76497  0.45561  0.26236  1.0000
  N   N4        1.0  0.23503  0.54439  0.73764  1.0000
  O   O1        1.0  0.51328  0.69843  0.22890  1.0000
  O   O2        1.0  0.48672  0.30157  0.77110  1.0000
  O   O3        1.0  0.05958  0.91180  0.70159  1.0000
  O   O4        1.0  0.94042  0.08820  0.29841  1.0000
  O   O5        1.0  0.19809  0.98250  0.83080  1.0000
  O   O6        1.0  0.80191  0.01750  0.16920  1.0000
  O   O7        1.0  0.24825  0.99648  0.11282  1.0000
  O   O8        1.0  0.75175  0.00352  0.88718  1.0000
