data_image0
_chemical_formula_structural       Cd4H20C16N36
_chemical_formula_sum              "Cd4 H20 C16 N36"
_cell_length_a       8.42551
_cell_length_b       9.87881
_cell_length_c       12.0596
_cell_angle_alpha    114.204
_cell_angle_beta     104.019
_cell_angle_gamma    89.9982

_space_group_name_H-M_alt    "P 1"
_space_group_IT_number       1

loop_
  _space_group_symop_operation_xyz
  'x, y, z'

loop_
  _atom_site_type_symbol
  _atom_site_label
  _atom_site_symmetry_multiplicity
  _atom_site_fract_x
  _atom_site_fract_y
  _atom_site_fract_z
  _atom_site_occupancy
  Cd  Cd1       1.0  0.00000  0.50000  0.50000  1.0000
  Cd  Cd2       1.0  0.50000  1.00000  0.50000  1.0000
  Cd  Cd3       1.0  0.25006  0.09868  0.99999  1.0000
  Cd  Cd4       1.0  0.74994  0.90132  0.00001  1.0000
  H   H1        1.0  0.17305  0.27835  0.85195  1.0000
  H   H2        1.0  0.32686  0.42634  0.14809  1.0000
  H   H3        1.0  0.82695  0.72165  0.14805  1.0000
  H   H4        1.0  0.67314  0.57366  0.85190  1.0000
  H   H5        1.0  0.13185  0.97104  0.66233  1.0000
  H   H6        1.0  0.36826  0.30846  0.33749  1.0000
  H   H7        1.0  0.86815  0.02896  0.33767  1.0000
  H   H8        1.0  0.63174  0.69154  0.66251  1.0000
  H   H9        1.0  0.19850  0.13421  0.65139  1.0000
  H   H10       1.0  0.30176  0.48275  0.34875  1.0000
  H   H11       1.0  0.80150  0.86579  0.34861  1.0000
  H   H12       1.0  0.69824  0.51725  0.65125  1.0000
  H   H13       1.0  0.90336  0.21451  0.86034  1.0000
  H   H14       1.0  0.59652  0.35425  0.13951  1.0000
  H   H15       1.0  0.09664  0.78549  0.13966  1.0000
  H   H16       1.0  0.40348  0.64575  0.86049  1.0000
  H   H17       1.0  0.90201  0.03545  0.74138  1.0000
  H   H18       1.0  0.59814  0.29410  0.25841  1.0000
  H   H19       1.0  0.09799  0.96455  0.25862  1.0000
  H   H20       1.0  0.40186  0.70590  0.74159  1.0000
  C   C1        1.0  0.37675  0.05581  0.76357  1.0000
  C   C2        1.0  0.12334  0.29217  0.23644  1.0000
  C   C3        1.0  0.62325  0.94419  0.23643  1.0000
  C   C4        1.0  0.87666  0.70784  0.76356  1.0000
  C   C5        1.0  0.20447  0.08138  0.71638  1.0000
  C   C6        1.0  0.29567  0.36489  0.28363  1.0000
  C   C7        1.0  0.79553  0.91863  0.28362  1.0000
  C   C8        1.0  0.70432  0.63511  0.71637  1.0000
  C   C9        1.0  0.89356  0.20938  0.67839  1.0000
  C   C10       1.0  0.60641  0.53108  0.32156  1.0000
  C   C11       1.0  0.10644  0.79062  0.32161  1.0000
  C   C12       1.0  0.39359  0.46892  0.67844  1.0000
  C   C13       1.0  0.95059  0.15301  0.77799  1.0000
  C   C14       1.0  0.54941  0.37506  0.22189  1.0000
  C   C15       1.0  0.04941  0.84699  0.22201  1.0000
  C   C16       1.0  0.45059  0.62494  0.77811  1.0000
  N   N1        1.0  0.43411  0.05310  0.87614  1.0000
  N   N2        1.0  0.06586  0.17691  0.12381  1.0000
  N   N3        1.0  0.56589  0.94690  0.12386  1.0000
  N   N4        1.0  0.93414  0.82309  0.87619  1.0000
  N   N5        1.0  0.58681  0.01154  0.87920  1.0000
  N   N6        1.0  0.91313  0.13237  0.12075  1.0000
  N   N7        1.0  0.41319  0.98846  0.12080  1.0000
  N   N8        1.0  0.08687  0.86763  0.87925  1.0000
  N   N9        1.0  0.62130  0.99027  0.77311  1.0000
  N   N10       1.0  0.87872  0.21720  0.22689  1.0000
  N   N11       1.0  0.37870  0.00973  0.22689  1.0000
  N   N12       1.0  0.12128  0.78280  0.77311  1.0000
  N   N13       1.0  0.49186  0.01850  0.69935  1.0000
  N   N14       1.0  0.00827  0.31913  0.30070  1.0000
  N   N15       1.0  0.50815  0.98150  0.30066  1.0000
  N   N16       1.0  0.99173  0.68087  0.69930  1.0000
  N   N17       1.0  0.97740  0.32455  0.67820  1.0000
  N   N18       1.0  0.52269  0.64650  0.32174  1.0000
  N   N19       1.0  0.02260  0.67545  0.32180  1.0000
  N   N20       1.0  0.47731  0.35350  0.67826  1.0000
  N   N21       1.0  0.89473  0.33502  0.57192  1.0000
  N   N22       1.0  0.60530  0.76328  0.42810  1.0000
  N   N23       1.0  0.10527  0.66498  0.42808  1.0000
  N   N24       1.0  0.39470  0.23672  0.57190  1.0000
  N   N25       1.0  0.76617  0.23313  0.51083  1.0000
  N   N26       1.0  0.73374  0.72243  0.48924  1.0000
  N   N27       1.0  0.23383  0.76687  0.48917  1.0000
  N   N28       1.0  0.26626  0.27757  0.51076  1.0000
  N   N29       1.0  0.76300  0.15084  0.57609  1.0000
  N   N30       1.0  0.73687  0.57484  0.42393  1.0000
  N   N31       1.0  0.23700  0.84916  0.42391  1.0000
  N   N32       1.0  0.26313  0.42516  0.57607  1.0000
  N   N33       1.0  0.13277  0.16802  0.82200  1.0000
  N   N34       1.0  0.36724  0.34597  0.17798  1.0000
  N   N35       1.0  0.86722  0.83198  0.17800  1.0000
  N   N36       1.0  0.63276  0.65403  0.82202  1.0000
