data_image0
_chemical_formula_structural       Cd2H24C28O14
_chemical_formula_sum              "Cd2 H24 C28 O14"
_cell_length_a       5.74537
_cell_length_b       7.7149
_cell_length_c       16.2304
_cell_angle_alpha    103.714
_cell_angle_beta     100.237
_cell_angle_gamma    89.9809

_space_group_name_H-M_alt    "P 1"
_space_group_IT_number       1

loop_
  _space_group_symop_operation_xyz
  'x, y, z'

loop_
  _atom_site_type_symbol
  _atom_site_label
  _atom_site_symmetry_multiplicity
  _atom_site_fract_x
  _atom_site_fract_y
  _atom_site_fract_z
  _atom_site_occupancy
  Cd  Cd1       1.0  0.92856  0.80832  0.50006  1.0000
  Cd  Cd2       1.0  0.42820  0.19223  0.50009  1.0000
  H   H1        1.0  0.43801  0.73212  0.71655  1.0000
  H   H2        1.0  0.71893  0.26697  0.28274  1.0000
  H   H3        1.0  0.21923  0.51518  0.28301  1.0000
  H   H4        1.0  0.93713  0.48502  0.71680  1.0000
  H   H5        1.0  0.35125  0.78923  0.86598  1.0000
  H   H6        1.0  0.48366  0.20878  0.13310  1.0000
  H   H7        1.0  0.98401  0.42334  0.13334  1.0000
  H   H8        1.0  0.85090  0.57693  0.86627  1.0000
  H   H9        1.0  0.07927  0.05964  0.81261  1.0000
  H   H10       1.0  0.26684  0.94108  0.18784  1.0000
  H   H11       1.0  0.76625  0.74642  0.18781  1.0000
  H   H12       1.0  0.57906  0.25347  0.81262  1.0000
  H   H13       1.0  0.98860  0.12520  0.96127  1.0000
  H   H14       1.0  0.02861  0.87468  0.03888  1.0000
  H   H15       1.0  0.52803  0.66368  0.03890  1.0000
  H   H16       1.0  0.48881  0.33599  0.96134  1.0000
  H   H17       1.0  0.37927  0.81613  0.44994  1.0000
  H   H18       1.0  0.92941  0.18434  0.55041  1.0000
  H   H19       1.0  0.42981  0.86656  0.55053  1.0000
  H   H20       1.0  0.87880  0.13419  0.44981  1.0000
  H   H21       1.0  0.12001  0.49942  0.54967  1.0000
  H   H22       1.0  0.57002  0.50096  0.45046  1.0000
  H   H23       1.0  0.06999  0.44994  0.45030  1.0000
  H   H24       1.0  0.62070  0.55022  0.54982  1.0000
  C   C1        1.0  0.81680  0.85831  0.66667  1.0000
  C   C2        1.0  0.14828  0.14225  0.33343  1.0000
  C   C3        1.0  0.64772  0.69139  0.33356  1.0000
  C   C4        1.0  0.31573  0.30895  0.66671  1.0000
  C   C5        1.0  0.76620  0.89060  0.75549  1.0000
  C   C6        1.0  0.00955  0.10948  0.24440  1.0000
  C   C7        1.0  0.50927  0.63466  0.24451  1.0000
  C   C8        1.0  0.26571  0.36542  0.75562  1.0000
  C   C9        1.0  0.66477  0.95910  0.92160  1.0000
  C   C10       1.0  0.74289  0.03969  0.07800  1.0000
  C   C11       1.0  0.24274  0.53761  0.07816  1.0000
  C   C12       1.0  0.16459  0.46245  0.92177  1.0000
  C   C13       1.0  0.56032  0.81489  0.77053  1.0000
  C   C14       1.0  0.78812  0.18444  0.22897  1.0000
  C   C15       1.0  0.28819  0.54393  0.22916  1.0000
  C   C16       1.0  0.05977  0.45615  0.77073  1.0000
  C   C17       1.0  0.51051  0.84699  0.85338  1.0000
  C   C18       1.0  0.65598  0.15170  0.14598  1.0000
  C   C19       1.0  0.15611  0.49345  0.14618  1.0000
  C   C20       1.0  0.01023  0.50666  0.85362  1.0000
  C   C21       1.0  0.92118  0.99996  0.82494  1.0000
  C   C22       1.0  0.09605  0.00029  0.17519  1.0000
  C   C23       1.0  0.59567  0.67450  0.17523  1.0000
  C   C24       1.0  0.42094  0.32539  0.82502  1.0000
  C   C25       1.0  0.87119  0.03600  0.90804  1.0000
  C   C26       1.0  0.96355  0.96366  0.09192  1.0000
  C   C27       1.0  0.46319  0.62767  0.09198  1.0000
  C   C28       1.0  0.37120  0.37213  0.90816  1.0000
  O   O1        1.0  0.32622  0.89973  0.50023  1.0000
  O   O2        1.0  0.82595  0.10087  0.50012  1.0000
  O   O3        1.0  0.01330  0.90970  0.65341  1.0000
  O   O4        1.0  0.35830  0.09118  0.34704  1.0000
  O   O5        1.0  0.85760  0.75627  0.34713  1.0000
  O   O6        1.0  0.51238  0.24456  0.65337  1.0000
  O   O7        1.0  0.65426  0.77541  0.60328  1.0000
  O   O8        1.0  0.04843  0.22519  0.39651  1.0000
  O   O9        1.0  0.54778  0.67173  0.39666  1.0000
  O   O10       1.0  0.15277  0.32835  0.60341  1.0000
  O   O11       1.0  0.11983  0.55352  0.49999  1.0000
  O   O12       1.0  0.61997  0.44667  0.50007  1.0000
  O   O13       1.0  0.58821  0.99890  0.99976  1.0000
  O   O14       1.0  0.08802  0.50016  0.99992  1.0000
