data_image0
_chemical_formula_structural       Zn2H52C60S2N8O16
_chemical_formula_sum              "Zn2 H52 C60 S2 N8 O16"
_cell_length_a       10.1396
_cell_length_b       11.3813
_cell_length_c       13.6568
_cell_angle_alpha    74.2256
_cell_angle_beta     72.0812
_cell_angle_gamma    71.7539

_space_group_name_H-M_alt    "P 1"
_space_group_IT_number       1

loop_
  _space_group_symop_operation_xyz
  'x, y, z'

loop_
  _atom_site_type_symbol
  _atom_site_label
  _atom_site_symmetry_multiplicity
  _atom_site_fract_x
  _atom_site_fract_y
  _atom_site_fract_z
  _atom_site_occupancy
  Zn  Zn1       1.0  0.35424  0.25352  0.46927  1.0000
  Zn  Zn2       1.0  0.64577  0.74648  0.53074  1.0000
  H   H1        1.0  0.56028  0.15669  0.91117  1.0000
  H   H2        1.0  0.43974  0.84331  0.08884  1.0000
  H   H3        1.0  0.98778  0.21689  0.36885  1.0000
  H   H4        1.0  0.01222  0.78311  0.63115  1.0000
  H   H5        1.0  0.39993  0.06607  0.66644  1.0000
  H   H6        1.0  0.60007  0.93393  0.33357  1.0000
  H   H7        1.0  0.47634  0.05805  0.82401  1.0000
  H   H8        1.0  0.52367  0.94193  0.17600  1.0000
  H   H9        1.0  0.49720  0.44740  0.70321  1.0000
  H   H10       1.0  0.50282  0.55258  0.29680  1.0000
  H   H11       1.0  0.41378  0.44079  0.55216  1.0000
  H   H12       1.0  0.58624  0.55921  0.44784  1.0000
  H   H13       1.0  0.61127  0.37668  0.01875  1.0000
  H   H14       1.0  0.38875  0.62330  0.98127  1.0000
  H   H15       1.0  0.61672  0.21461  0.03562  1.0000
  H   H16       1.0  0.38326  0.78539  0.96439  1.0000
  H   H17       1.0  0.43330  0.35721  0.17235  1.0000
  H   H18       1.0  0.56669  0.64280  0.82765  1.0000
  H   H19       1.0  0.33120  0.41117  0.07865  1.0000
  H   H20       1.0  0.66880  0.58883  0.92133  1.0000
  H   H21       1.0  0.43009  0.13751  0.18906  1.0000
  H   H22       1.0  0.56991  0.86249  0.81094  1.0000
  H   H23       1.0  0.34508  0.17925  0.08426  1.0000
  H   H24       1.0  0.65491  0.82076  0.91574  1.0000
  H   H25       1.0  0.21072  0.27084  0.29384  1.0000
  H   H26       1.0  0.78927  0.72915  0.70616  1.0000
  H   H27       1.0  0.12996  0.31079  0.18845  1.0000
  H   H28       1.0  0.87004  0.68921  0.81155  1.0000
  H   H29       1.0  0.77582  0.17257  0.48862  1.0000
  H   H30       1.0  0.22418  0.82742  0.51137  1.0000
  H   H31       1.0  0.62214  0.02064  0.56343  1.0000
  H   H32       1.0  0.37786  0.97936  0.43657  1.0000
  H   H33       1.0  0.91274  0.75707  0.39358  1.0000
  H   H34       1.0  0.08726  0.24292  0.60642  1.0000
  H   H35       1.0  0.07883  0.89662  0.31070  1.0000
  H   H36       1.0  0.92117  0.10337  0.68930  1.0000
  H   H37       1.0  0.94869  0.45889  0.36835  1.0000
  H   H38       1.0  0.05131  0.54110  0.63164  1.0000
  H   H39       1.0  0.83589  0.56658  0.21676  1.0000
  H   H40       1.0  0.16410  0.43341  0.78323  1.0000
  H   H41       1.0  0.12449  0.81044  0.10462  1.0000
  H   H42       1.0  0.87551  0.18956  0.89536  1.0000
  H   H43       1.0  0.23392  0.70302  0.25688  1.0000
  H   H44       1.0  0.76609  0.29698  0.74311  1.0000
  H   H45       1.0  0.07704  0.57561  0.92183  1.0000
  H   H46       1.0  0.92294  0.42441  0.07816  1.0000
  H   H47       1.0  0.29075  0.58348  0.77043  1.0000
  H   H48       1.0  0.70923  0.41654  0.22956  1.0000
  H   H49       1.0  0.25370  0.96582  0.78410  1.0000
  H   H50       1.0  0.74631  0.03419  0.21590  1.0000
  H   H51       1.0  0.03566  0.96281  0.92948  1.0000
  H   H52       1.0  0.96435  0.03720  0.07053  1.0000
  C   C1        1.0  0.41992  0.14953  0.67811  1.0000
  C   C2        1.0  0.58009  0.85047  0.32189  1.0000
  C   C3        1.0  0.46407  0.14477  0.76550  1.0000
  C   C4        1.0  0.53594  0.85522  0.23450  1.0000
  C   C5        1.0  0.49095  0.25261  0.77858  1.0000
  C   C6        1.0  0.50906  0.74738  0.22144  1.0000
  C   C7        1.0  0.47487  0.36162  0.69965  1.0000
  C   C8        1.0  0.52514  0.63837  0.30036  1.0000
  C   C9        1.0  0.43033  0.35799  0.61431  1.0000
  C   C10       1.0  0.56968  0.64201  0.38569  1.0000
  C   C11       1.0  0.51547  0.34520  0.91481  1.0000
  C   C12       1.0  0.48453  0.65481  0.08520  1.0000
  C   C13       1.0  0.55007  0.31149  0.02042  1.0000
  C   C14       1.0  0.44993  0.68851  0.97959  1.0000
  C   C15       1.0  0.41161  0.33018  0.10870  1.0000
  C   C16       1.0  0.58838  0.66982  0.89130  1.0000
  C   C17       1.0  0.35411  0.21283  0.14961  1.0000
  C   C18       1.0  0.64589  0.78717  0.85039  1.0000
  C   C19       1.0  0.20828  0.23593  0.22669  1.0000
  C   C20       1.0  0.79171  0.76406  0.77332  1.0000
  C   C21       1.0  0.15164  0.11932  0.26604  1.0000
  C   C22       1.0  0.84836  0.88068  0.73395  1.0000
  C   C23       1.0  0.94051  0.04774  0.39071  1.0000
  C   C24       1.0  0.05949  0.95225  0.60928  1.0000
  C   C25       1.0  0.81038  0.08142  0.46478  1.0000
  C   C26       1.0  0.18963  0.91858  0.53521  1.0000
  C   C27       1.0  0.72377  0.99774  0.50658  1.0000
  C   C28       1.0  0.27623  0.00226  0.49341  1.0000
  C   C29       1.0  0.88558  0.85054  0.41176  1.0000
  C   C30       1.0  0.11442  0.14945  0.58824  1.0000
  C   C31       1.0  0.97880  0.92742  0.36591  1.0000
  C   C32       1.0  0.02120  0.07258  0.63409  1.0000
  C   C33       1.0  0.17974  0.50189  0.40410  1.0000
  C   C34       1.0  0.82024  0.49812  0.59589  1.0000
  C   C35       1.0  0.10168  0.57196  0.31911  1.0000
  C   C36       1.0  0.89833  0.42803  0.68089  1.0000
  C   C37       1.0  0.98793  0.53443  0.30924  1.0000
  C   C38       1.0  0.01206  0.46557  0.69076  1.0000
  C   C39       1.0  0.92414  0.59467  0.22572  1.0000
  C   C40       1.0  0.07585  0.40533  0.77428  1.0000
  C   C41       1.0  0.97525  0.69247  0.15193  1.0000
  C   C42       1.0  0.02475  0.30752  0.84806  1.0000
  C   C43       1.0  0.08593  0.73348  0.16215  1.0000
  C   C44       1.0  0.91407  0.26651  0.83784  1.0000
  C   C45       1.0  0.14789  0.67318  0.24648  1.0000
  C   C46       1.0  0.85212  0.32681  0.75352  1.0000
  C   C47       1.0  0.04458  0.76929  0.93383  1.0000
  C   C48       1.0  0.95540  0.23071  0.06617  1.0000
  C   C49       1.0  0.11418  0.66162  0.88998  1.0000
  C   C50       1.0  0.88581  0.33839  0.11001  1.0000
  C   C51       1.0  0.23319  0.66588  0.80557  1.0000
  C   C52       1.0  0.76680  0.33413  0.19442  1.0000
  C   C53       1.0  0.28506  0.77462  0.76779  1.0000
  C   C54       1.0  0.71494  0.22539  0.23221  1.0000
  C   C55       1.0  0.21387  0.88132  0.81300  1.0000
  C   C56       1.0  0.78613  0.11869  0.18699  1.0000
  C   C57       1.0  0.09223  0.87960  0.89522  1.0000
  C   C58       1.0  0.90777  0.12040  0.10478  1.0000
  C   C59       1.0  0.41796  0.77548  0.68078  1.0000
  C   C60       1.0  0.58203  0.22453  0.31923  1.0000
  S   S1        1.0  0.89500  0.76485  0.04378  1.0000
  S   S2        1.0  0.10499  0.23516  0.95622  1.0000
  N   N1        1.0  0.40244  0.25463  0.60304  1.0000
  N   N2        1.0  0.59757  0.74538  0.39696  1.0000
  N   N3        1.0  0.53262  0.24499  0.86855  1.0000
  N   N4        1.0  0.46740  0.75500  0.13146  1.0000
  N   N5        1.0  0.02481  0.13282  0.34470  1.0000
  N   N6        1.0  0.97519  0.86718  0.65529  1.0000
  N   N7        1.0  0.75886  0.88403  0.48027  1.0000
  N   N8        1.0  0.24114  0.11596  0.51973  1.0000
  O   O1        1.0  0.47089  0.45522  0.87299  1.0000
  O   O2        1.0  0.52912  0.54479  0.12701  1.0000
  O   O3        1.0  0.21067  0.02147  0.23129  1.0000
  O   O4        1.0  0.78933  0.97853  0.76870  1.0000
  O   O5        1.0  0.23008  0.55885  0.44409  1.0000
  O   O6        1.0  0.76992  0.44115  0.55591  1.0000
  O   O7        1.0  0.18905  0.38137  0.42567  1.0000
  O   O8        1.0  0.81093  0.61864  0.57434  1.0000
  O   O9        1.0  0.81962  0.67932  0.03616  1.0000
  O   O10       1.0  0.18037  0.32069  0.96383  1.0000
  O   O11       1.0  0.81793  0.89435  0.05287  1.0000
  O   O12       1.0  0.18207  0.10564  0.94713  1.0000
  O   O13       1.0  0.47407  0.67964  0.63604  1.0000
  O   O14       1.0  0.52592  0.32038  0.36396  1.0000
  O   O15       1.0  0.47290  0.86915  0.65316  1.0000
  O   O16       1.0  0.52709  0.13085  0.34684  1.0000
