data_image0
_chemical_formula_structural       Zn4H52C58N12O20
_chemical_formula_sum              "Zn4 H52 C58 N12 O20"
_cell_length_a       8.14277
_cell_length_b       15.2646
_cell_length_c       18.3283
_cell_angle_alpha    113.428
_cell_angle_beta     90
_cell_angle_gamma    105.469

_space_group_name_H-M_alt    "P 1"
_space_group_IT_number       1

loop_
  _space_group_symop_operation_xyz
  'x, y, z'

loop_
  _atom_site_type_symbol
  _atom_site_label
  _atom_site_symmetry_multiplicity
  _atom_site_fract_x
  _atom_site_fract_y
  _atom_site_fract_z
  _atom_site_occupancy
  Zn  Zn1       1.0  0.49241  0.38830  0.88694  1.0000
  Zn  Zn2       1.0  0.10487  0.61166  0.61306  1.0000
  Zn  Zn3       1.0  0.50762  0.61172  0.11308  1.0000
  Zn  Zn4       1.0  0.89512  0.38832  0.38696  1.0000
  H   H1        1.0  0.23226  0.42287  0.67702  1.0000
  H   H2        1.0  0.80959  0.57713  0.82277  1.0000
  H   H3        1.0  0.76776  0.57713  0.32297  1.0000
  H   H4        1.0  0.19043  0.42287  0.17726  1.0000
  H   H5        1.0  0.76956  0.07716  0.85798  1.0000
  H   H6        1.0  0.69291  0.92267  0.64163  1.0000
  H   H7        1.0  0.23040  0.92282  0.14198  1.0000
  H   H8        1.0  0.30705  0.07734  0.35836  1.0000
  H   H9        1.0  0.98423  0.14748  0.89882  1.0000
  H   H10       1.0  0.83730  0.85232  0.60103  1.0000
  H   H11       1.0  0.01573  0.85248  0.10117  1.0000
  H   H12       1.0  0.16265  0.14767  0.39895  1.0000
  H   H13       1.0  0.50316  0.09043  0.79024  1.0000
  H   H14       1.0  0.41328  0.90939  0.70992  1.0000
  H   H15       1.0  0.49679  0.90959  0.20977  1.0000
  H   H16       1.0  0.58675  0.09063  0.29010  1.0000
  H   H17       1.0  0.40418  0.17623  0.85538  1.0000
  H   H18       1.0  0.22864  0.82370  0.64464  1.0000
  H   H19       1.0  0.59583  0.82381  0.14467  1.0000
  H   H20       1.0  0.77134  0.17630  0.35540  1.0000
  H   H21       1.0  0.51518  0.11411  0.89379  1.0000
  H   H22       1.0  0.40182  0.88597  0.60641  1.0000
  H   H23       1.0  0.48484  0.88590  0.10623  1.0000
  H   H24       1.0  0.59811  0.11402  0.39361  1.0000
  H   H25       1.0  0.08486  0.01105  0.80048  1.0000
  H   H26       1.0  0.07379  0.98965  0.69913  1.0000
  H   H27       1.0  0.91511  0.98893  0.19950  1.0000
  H   H28       1.0  0.92624  0.01034  0.30086  1.0000
  H   H29       1.0  0.92953  0.17757  0.46620  1.0000
  H   H30       1.0  0.75259  0.82224  0.03385  1.0000
  H   H31       1.0  0.07052  0.82239  0.53379  1.0000
  H   H32       1.0  0.24733  0.17778  0.96613  1.0000
  H   H33       1.0  0.16748  0.12158  0.64732  1.0000
  H   H34       1.0  0.04577  0.87855  0.85267  1.0000
  H   H35       1.0  0.83264  0.87844  0.35269  1.0000
  H   H36       1.0  0.95413  0.12144  0.14731  1.0000
  H   H37       1.0  0.08974  0.32678  0.89188  1.0000
  H   H38       1.0  0.76366  0.67316  0.60798  1.0000
  H   H39       1.0  0.91028  0.67318  0.10810  1.0000
  H   H40       1.0  0.23632  0.32686  0.39202  1.0000
  H   H41       1.0  0.89740  0.45801  0.90586  1.0000
  H   H42       1.0  0.44008  0.54183  0.59378  1.0000
  H   H43       1.0  0.10267  0.54199  0.09414  1.0000
  H   H44       1.0  0.55993  0.45818  0.40624  1.0000
  H   H45       1.0  0.84124  0.08371  0.72448  1.0000
  H   H46       1.0  0.75818  0.91674  0.77539  1.0000
  H   H47       1.0  0.15879  0.91628  0.27550  1.0000
  H   H48       1.0  0.24183  0.08325  0.22460  1.0000
  H   H49       1.0  0.05338  0.15436  0.76913  1.0000
  H   H50       1.0  0.90010  0.84629  0.73096  1.0000
  H   H51       1.0  0.94664  0.84563  0.23087  1.0000
  H   H52       1.0  0.09989  0.15370  0.26902  1.0000
  C   C1        1.0  0.06066  0.37909  0.53223  1.0000
  C   C2        1.0  0.68184  0.62074  0.96759  1.0000
  C   C3        1.0  0.93933  0.62089  0.46778  1.0000
  C   C4        1.0  0.31818  0.37926  0.03241  1.0000
  C   C5        1.0  0.04241  0.13845  0.55121  1.0000
  C   C6        1.0  0.90408  0.86152  0.94877  1.0000
  C   C7        1.0  0.95770  0.86154  0.44878  1.0000
  C   C8        1.0  0.09582  0.13849  0.05121  1.0000
  C   C9        1.0  0.17936  0.34293  0.64154  1.0000
  C   C10       1.0  0.83666  0.65704  0.85832  1.0000
  C   C11       1.0  0.82064  0.65705  0.35846  1.0000
  C   C12       1.0  0.16332  0.34295  0.14170  1.0000
  C   C13       1.0  0.08407  0.30772  0.56649  1.0000
  C   C14       1.0  0.77670  0.69218  0.93340  1.0000
  C   C15       1.0  0.91594  0.69227  0.43351  1.0000
  C   C16       1.0  0.22329  0.30784  0.06661  1.0000
  C   C17       1.0  0.88176  0.13206  0.85257  1.0000
  C   C18       1.0  0.75029  0.86793  0.64726  1.0000
  C   C19       1.0  0.11823  0.86792  0.14741  1.0000
  C   C20       1.0  0.24968  0.13207  0.35273  1.0000
  C   C21       1.0  0.51602  0.14860  0.85125  1.0000
  C   C22       1.0  0.36807  0.85136  0.64885  1.0000
  C   C23       1.0  0.48398  0.85142  0.14877  1.0000
  C   C24       1.0  0.63190  0.14865  0.35117  1.0000
  C   C25       1.0  0.20599  0.27529  0.67082  1.0000
  C   C26       1.0  0.93096  0.72477  0.82910  1.0000
  C   C27       1.0  0.79406  0.72472  0.32919  1.0000
  C   C28       1.0  0.06900  0.27523  0.17089  1.0000
  C   C29       1.0  0.67436  0.23247  0.86742  1.0000
  C   C30       1.0  0.44258  0.76745  0.63254  1.0000
  C   C31       1.0  0.32567  0.76754  0.13257  1.0000
  C   C32       1.0  0.55740  0.23255  0.36747  1.0000
  C   C33       1.0  0.99694  0.00028  0.74986  1.0000
  C   C34       1.0  0.00307  0.99971  0.25012  1.0000
  C   C35       1.0  0.01091  0.20510  0.52236  1.0000
  C   C36       1.0  0.80623  0.79479  0.97763  1.0000
  C   C37       1.0  0.98915  0.79489  0.47763  1.0000
  C   C38       1.0  0.19370  0.20522  0.02236  1.0000
  C   C39       1.0  0.14050  0.17249  0.62455  1.0000
  C   C40       1.0  0.96805  0.82756  0.87539  1.0000
  C   C41       1.0  0.85960  0.82753  0.37545  1.0000
  C   C42       1.0  0.03187  0.17245  0.12460  1.0000
  C   C43       1.0  0.95256  0.31594  0.88672  1.0000
  C   C44       1.0  0.63730  0.68400  0.61314  1.0000
  C   C45       1.0  0.04747  0.68404  0.11326  1.0000
  C   C46       1.0  0.36268  0.31601  0.38686  1.0000
  C   C47       1.0  0.85671  0.37935  0.89322  1.0000
  C   C48       1.0  0.47805  0.62055  0.60652  1.0000
  C   C49       1.0  0.14334  0.62065  0.10677  1.0000
  C   C50       1.0  0.52194  0.37946  0.39350  1.0000
  C   C51       1.0  0.94283  0.09504  0.76985  1.0000
  C   C52       1.0  0.84850  0.90539  0.73003  1.0000
  C   C53       1.0  0.05717  0.90496  0.23013  1.0000
  C   C54       1.0  0.15150  0.09461  0.26995  1.0000
  C   C55       1.0  0.30352  0.30655  0.75107  1.0000
  C   C56       1.0  0.99755  0.69358  0.74891  1.0000
  C   C57       1.0  0.69652  0.69346  0.24894  1.0000
  C   C58       1.0  0.00242  0.30640  0.25110  1.0000
  N   N1        1.0  0.83621  0.22404  0.87082  1.0000
  N   N2        1.0  0.61285  0.77593  0.62917  1.0000
  N   N3        1.0  0.16378  0.77595  0.12916  1.0000
  N   N4        1.0  0.38712  0.22408  0.37083  1.0000
  N   N5        1.0  0.68444  0.32696  0.88107  1.0000
  N   N6        1.0  0.35818  0.67292  0.61874  1.0000
  N   N7        1.0  0.31559  0.67305  0.11894  1.0000
  N   N8        1.0  0.64180  0.32709  0.38129  1.0000
  N   N9        1.0  0.95698  0.03353  0.50397  1.0000
  N   N10       1.0  0.92338  0.96642  0.99599  1.0000
  N   N11       1.0  0.04313  0.96646  0.49603  1.0000
  N   N12       1.0  0.07651  0.03360  0.00397  1.0000
  O   O1        1.0  0.32239  0.23959  0.77142  1.0000
  O   O2        1.0  0.08374  0.76061  0.72873  1.0000
  O   O3        1.0  0.67764  0.76044  0.22859  1.0000
  O   O4        1.0  0.91621  0.23937  0.27127  1.0000
  O   O5        1.0  0.36445  0.40018  0.79727  1.0000
  O   O6        1.0  0.96475  0.59996  0.70263  1.0000
  O   O7        1.0  0.63561  0.59984  0.20274  1.0000
  O   O8        1.0  0.03526  0.40003  0.29740  1.0000
  O   O9        1.0  0.80523  0.00787  0.46951  1.0000
  O   O10       1.0  0.79718  0.99201  0.03043  1.0000
  O   O11       1.0  0.19488  0.99212  0.53050  1.0000
  O   O12       1.0  0.20267  0.00802  0.96952  1.0000
  O   O13       1.0  0.98658  0.33998  0.46042  1.0000
  O   O14       1.0  0.64739  0.65983  0.03953  1.0000
  O   O15       1.0  0.01341  0.65999  0.53958  1.0000
  O   O16       1.0  0.35263  0.34022  0.96051  1.0000
  O   O17       1.0  0.12052  0.47115  0.57576  1.0000
  O   O18       1.0  0.64893  0.52871  0.92390  1.0000
  O   O19       1.0  0.87946  0.52882  0.42423  1.0000
  O   O20       1.0  0.35109  0.47133  0.07614  1.0000
