data_image0
_chemical_formula_structural       Ag8H24C48O16
_chemical_formula_sum              "Ag8 H24 C48 O16"
_cell_length_a       6.10853
_cell_length_b       10.693
_cell_length_c       16.8496
_cell_angle_alpha    98.5943
_cell_angle_beta     90.0022
_cell_angle_gamma    90.0021

_space_group_name_H-M_alt    "P 1"
_space_group_IT_number       1

loop_
  _space_group_symop_operation_xyz
  'x, y, z'

loop_
  _atom_site_type_symbol
  _atom_site_label
  _atom_site_symmetry_multiplicity
  _atom_site_fract_x
  _atom_site_fract_y
  _atom_site_fract_z
  _atom_site_occupancy
  Ag  Ag1       1.0  0.66937  0.58685  0.57340  1.0000
  Ag  Ag2       1.0  0.16947  0.91314  0.42662  1.0000
  Ag  Ag3       1.0  0.33063  0.41315  0.42661  1.0000
  Ag  Ag4       1.0  0.83055  0.08686  0.57337  1.0000
  Ag  Ag5       1.0  0.04967  0.72234  0.53948  1.0000
  Ag  Ag6       1.0  0.54979  0.77765  0.46056  1.0000
  Ag  Ag7       1.0  0.95031  0.27766  0.46053  1.0000
  Ag  Ag8       1.0  0.45021  0.22235  0.53943  1.0000
  H   H1        1.0  0.32214  0.67268  0.69940  1.0000
  H   H2        1.0  0.82218  0.82733  0.30062  1.0000
  H   H3        1.0  0.67788  0.32732  0.30062  1.0000
  H   H4        1.0  0.17783  0.17267  0.69939  1.0000
  H   H5        1.0  0.33329  0.83653  0.81869  1.0000
  H   H6        1.0  0.83332  0.66349  0.18130  1.0000
  H   H7        1.0  0.66674  0.16346  0.18132  1.0000
  H   H8        1.0  0.16668  0.33651  0.81869  1.0000
  H   H9        1.0  0.16004  0.94118  0.94470  1.0000
  H   H10       1.0  0.66008  0.55886  0.05530  1.0000
  H   H11       1.0  0.83993  0.05883  0.05531  1.0000
  H   H12       1.0  0.33989  0.44114  0.94471  1.0000
  H   H13       1.0  0.81612  0.85126  0.99527  1.0000
  H   H14       1.0  0.31616  0.64877  0.00471  1.0000
  H   H15       1.0  0.18385  0.14874  0.00473  1.0000
  H   H16       1.0  0.68380  0.35123  0.99530  1.0000
  H   H17       1.0  0.65667  0.65514  0.92294  1.0000
  H   H18       1.0  0.15673  0.84488  0.07704  1.0000
  H   H19       1.0  0.34331  0.34485  0.07706  1.0000
  H   H20       1.0  0.84324  0.15512  0.92298  1.0000
  H   H21       1.0  0.66853  0.47688  0.81038  1.0000
  H   H22       1.0  0.16856  0.02310  0.18959  1.0000
  H   H23       1.0  0.33149  0.52310  0.18960  1.0000
  H   H24       1.0  0.83143  0.97690  0.81041  1.0000
  C   C1        1.0  0.16960  0.46480  0.60126  1.0000
  C   C2        1.0  0.66962  0.03522  0.39875  1.0000
  C   C3        1.0  0.83043  0.53521  0.39875  1.0000
  C   C4        1.0  0.33038  0.96478  0.60126  1.0000
  C   C5        1.0  0.08476  0.52205  0.68132  1.0000
  C   C6        1.0  0.58479  0.97797  0.31867  1.0000
  C   C7        1.0  0.91526  0.47796  0.31869  1.0000
  C   C8        1.0  0.41521  0.02204  0.68133  1.0000
  C   C9        1.0  0.17940  0.62958  0.72344  1.0000
  C   C10       1.0  0.67942  0.87043  0.27656  1.0000
  C   C11       1.0  0.82063  0.37042  0.27657  1.0000
  C   C12       1.0  0.32058  0.12958  0.72344  1.0000
  C   C13       1.0  0.09338  0.68580  0.79835  1.0000
  C   C14       1.0  0.59343  0.81420  0.20163  1.0000
  C   C15       1.0  0.90662  0.31419  0.20165  1.0000
  C   C16       1.0  0.40658  0.18580  0.79836  1.0000
  C   C17       1.0  0.18566  0.79737  0.84191  1.0000
  C   C18       1.0  0.68570  0.70263  0.15807  1.0000
  C   C19       1.0  0.81436  0.20262  0.15809  1.0000
  C   C20       1.0  0.31430  0.29737  0.84192  1.0000
  C   C21       1.0  0.08807  0.85547  0.91173  1.0000
  C   C22       1.0  0.58812  0.64454  0.08826  1.0000
  C   C23       1.0  0.91192  0.14453  0.08827  1.0000
  C   C24       1.0  0.41186  0.35546  0.91174  1.0000
  C   C25       1.0  0.89527  0.80423  0.94078  1.0000
  C   C26       1.0  0.39533  0.69577  0.05920  1.0000
  C   C27       1.0  0.10470  0.19576  0.05922  1.0000
  C   C28       1.0  0.60465  0.30422  0.94081  1.0000
  C   C29       1.0  0.80566  0.69408  0.90071  1.0000
  C   C30       1.0  0.30571  0.80592  0.09927  1.0000
  C   C31       1.0  0.19432  0.30591  0.09929  1.0000
  C   C32       1.0  0.69427  0.19407  0.90074  1.0000
  C   C33       1.0  0.90269  0.63129  0.82933  1.0000
  C   C34       1.0  0.40273  0.86871  0.17065  1.0000
  C   C35       1.0  0.09731  0.36870  0.17067  1.0000
  C   C36       1.0  0.59727  0.13128  0.82934  1.0000
  C   C37       1.0  0.81317  0.51837  0.78659  1.0000
  C   C38       1.0  0.31322  0.98163  0.21339  1.0000
  C   C39       1.0  0.18684  0.48163  0.21340  1.0000
  C   C40       1.0  0.68679  0.01837  0.78661  1.0000
  C   C41       1.0  0.90185  0.46349  0.71455  1.0000
  C   C42       1.0  0.40188  0.03651  0.28544  1.0000
  C   C43       1.0  0.09817  0.53651  0.28544  1.0000
  C   C44       1.0  0.59812  0.96349  0.71456  1.0000
  C   C45       1.0  0.79351  0.35078  0.66575  1.0000
  C   C46       1.0  0.29354  0.14922  0.33422  1.0000
  C   C47       1.0  0.20650  0.64923  0.33424  1.0000
  C   C48       1.0  0.70645  0.85079  0.66578  1.0000
  O   O1        1.0  0.25785  0.53495  0.55402  1.0000
  O   O2        1.0  0.75787  0.96505  0.44597  1.0000
  O   O3        1.0  0.74219  0.46506  0.44598  1.0000
  O   O4        1.0  0.24212  0.03495  0.55402  1.0000
  O   O5        1.0  0.14462  0.34594  0.58225  1.0000
  O   O6        1.0  0.64461  0.15407  0.41775  1.0000
  O   O7        1.0  0.85543  0.65407  0.41775  1.0000
  O   O8        1.0  0.35540  0.84593  0.58224  1.0000
  O   O9        1.0  0.66314  0.37806  0.61113  1.0000
  O   O10       1.0  0.16316  0.12191  0.38883  1.0000
  O   O11       1.0  0.33688  0.62194  0.38886  1.0000
  O   O12       1.0  0.83683  0.87808  0.61116  1.0000
  O   O13       1.0  0.83354  0.24082  0.68064  1.0000
  O   O14       1.0  0.33355  0.25918  0.31934  1.0000
  O   O15       1.0  0.16647  0.75919  0.31935  1.0000
  O   O16       1.0  0.66644  0.74083  0.68066  1.0000
