data_image0
_chemical_formula_structural       Zn5H42C68N4O18
_chemical_formula_sum              "Zn5 H42 C68 N4 O18"
_cell_length_a       7.26141
_cell_length_b       13.7047
_cell_length_c       15.5737
_cell_angle_alpha    84.1681
_cell_angle_beta     88.5292
_cell_angle_gamma    84.5307

_space_group_name_H-M_alt    "P 1"
_space_group_IT_number       1

loop_
  _space_group_symop_operation_xyz
  'x, y, z'

loop_
  _atom_site_type_symbol
  _atom_site_label
  _atom_site_symmetry_multiplicity
  _atom_site_fract_x
  _atom_site_fract_y
  _atom_site_fract_z
  _atom_site_occupancy
  Zn  Zn1       1.0  0.50000  0.00000  1.00000  1.0000
  Zn  Zn2       1.0  0.83579  0.97851  0.86384  1.0000
  Zn  Zn3       1.0  0.16421  0.02149  0.13616  1.0000
  Zn  Zn4       1.0  0.86141  0.83168  0.06554  1.0000
  Zn  Zn5       1.0  0.13859  0.16832  0.93446  1.0000
  H   H1        1.0  0.03329  0.65700  0.85153  1.0000
  H   H2        1.0  0.96671  0.34299  0.14847  1.0000
  H   H3        1.0  0.06536  0.49485  0.79007  1.0000
  H   H4        1.0  0.93464  0.50515  0.20994  1.0000
  H   H5        1.0  0.26231  0.36509  0.72361  1.0000
  H   H6        1.0  0.73769  0.63491  0.27639  1.0000
  H   H7        1.0  0.59419  0.38655  0.68765  1.0000
  H   H8        1.0  0.40581  0.61345  0.31235  1.0000
  H   H9        1.0  0.73267  0.53493  0.72438  1.0000
  H   H10       1.0  0.26733  0.46507  0.27562  1.0000
  H   H11       1.0  0.70068  0.69407  0.79155  1.0000
  H   H12       1.0  0.29931  0.30593  0.20845  1.0000
  H   H13       1.0  0.01994  0.74368  0.34338  1.0000
  H   H14       1.0  0.98007  0.25632  0.65662  1.0000
  H   H15       1.0  0.02215  0.71378  0.50427  1.0000
  H   H16       1.0  0.97786  0.28622  0.49573  1.0000
  H   H17       1.0  0.19269  0.70736  0.64150  1.0000
  H   H18       1.0  0.80732  0.29264  0.35850  1.0000
  H   H19       1.0  0.51671  0.75054  0.64007  1.0000
  H   H20       1.0  0.48330  0.24946  0.35993  1.0000
  H   H21       1.0  0.67621  0.79911  0.50130  1.0000
  H   H22       1.0  0.32380  0.20089  0.49870  1.0000
  H   H23       1.0  0.66449  0.83598  0.34088  1.0000
  H   H24       1.0  0.33551  0.16402  0.65912  1.0000
  H   H25       1.0  0.16504  0.00966  0.74428  1.0000
  H   H26       1.0  0.83496  0.99034  0.25571  1.0000
  H   H27       1.0  0.25240  0.02139  0.58883  1.0000
  H   H28       1.0  0.74760  0.97862  0.41117  1.0000
  H   H29       1.0  0.69281  0.96120  0.53734  1.0000
  H   H30       1.0  0.30719  0.03881  0.46265  1.0000
  H   H31       1.0  0.63699  0.94442  0.69515  1.0000
  H   H32       1.0  0.36301  0.05557  0.30485  1.0000
  H   H33       1.0  0.46367  0.76649  0.08613  1.0000
  H   H34       1.0  0.53633  0.23352  0.91387  1.0000
  H   H35       1.0  0.30209  0.62584  0.06164  1.0000
  H   H36       1.0  0.69790  0.37417  0.93837  1.0000
  H   H37       1.0  0.82234  0.48958  0.96744  1.0000
  H   H38       1.0  0.17765  0.51042  0.03256  1.0000
  H   H39       1.0  0.96502  0.63817  0.00198  1.0000
  H   H40       1.0  0.03498  0.36182  0.99802  1.0000
  H   H41       1.0  0.83098  0.01313  0.03152  1.0000
  H   H42       1.0  0.16901  0.98687  0.96847  1.0000
  C   C1        1.0  0.13534  0.81765  0.91125  1.0000
  C   C2        1.0  0.86466  0.18235  0.08875  1.0000
  C   C3        1.0  0.25732  0.74565  0.86288  1.0000
  C   C4        1.0  0.74268  0.25435  0.13712  1.0000
  C   C5        1.0  0.17950  0.66510  0.83762  1.0000
  C   C6        1.0  0.82049  0.33490  0.16238  1.0000
  C   C7        1.0  0.28554  0.59092  0.79583  1.0000
  C   C8        1.0  0.71446  0.40908  0.20417  1.0000
  C   C9        1.0  0.21030  0.50478  0.77436  1.0000
  C   C10       1.0  0.78970  0.49522  0.22565  1.0000
  C   C11       1.0  0.32022  0.43253  0.73671  1.0000
  C   C12       1.0  0.67978  0.56747  0.26330  1.0000
  C   C13       1.0  0.50901  0.44406  0.71737  1.0000
  C   C14       1.0  0.49099  0.55594  0.28263  1.0000
  C   C15       1.0  0.58631  0.52664  0.73779  1.0000
  C   C16       1.0  0.41369  0.47336  0.26222  1.0000
  C   C17       1.0  0.47804  0.60150  0.77800  1.0000
  C   C18       1.0  0.52195  0.39850  0.22200  1.0000
  C   C19       1.0  0.55387  0.68548  0.80306  1.0000
  C   C20       1.0  0.44613  0.31452  0.19694  1.0000
  C   C21       1.0  0.44854  0.75593  0.84530  1.0000
  C   C22       1.0  0.55146  0.24407  0.15470  1.0000
  C   C23       1.0  0.54082  0.83645  0.88017  1.0000
  C   C24       1.0  0.45918  0.16355  0.11983  1.0000
  C   C25       1.0  0.12307  0.79928  0.18802  1.0000
  C   C26       1.0  0.87693  0.20072  0.81198  1.0000
  C   C27       1.0  0.23936  0.80245  0.26660  1.0000
  C   C28       1.0  0.76064  0.19755  0.73340  1.0000
  C   C29       1.0  0.15875  0.76794  0.34406  1.0000
  C   C30       1.0  0.84126  0.23206  0.65594  1.0000
  C   C31       1.0  0.25011  0.76318  0.42371  1.0000
  C   C32       1.0  0.74990  0.23682  0.57629  1.0000
  C   C33       1.0  0.16437  0.73364  0.50393  1.0000
  C   C34       1.0  0.83564  0.26636  0.49607  1.0000
  C   C35       1.0  0.25886  0.73008  0.58006  1.0000
  C   C36       1.0  0.74115  0.26992  0.41994  1.0000
  C   C37       1.0  0.44418  0.75463  0.57926  1.0000
  C   C38       1.0  0.55583  0.24537  0.42074  1.0000
  C   C39       1.0  0.53220  0.78202  0.50233  1.0000
  C   C40       1.0  0.46780  0.21798  0.49767  1.0000
  C   C41       1.0  0.43776  0.78803  0.42295  1.0000
  C   C42       1.0  0.56225  0.21197  0.57705  1.0000
  C   C43       1.0  0.52051  0.81904  0.34306  1.0000
  C   C44       1.0  0.47950  0.18096  0.65694  1.0000
  C   C45       1.0  0.42377  0.83083  0.26658  1.0000
  C   C46       1.0  0.57623  0.16917  0.73342  1.0000
  C   C47       1.0  0.52380  0.87197  0.18728  1.0000
  C   C48       1.0  0.47620  0.12803  0.81272  1.0000
  C   C49       1.0  0.06620  0.99832  0.69559  1.0000
  C   C50       1.0  0.93380  0.00168  0.30441  1.0000
  C   C51       1.0  0.11232  0.00572  0.60817  1.0000
  C   C52       1.0  0.88768  0.99428  0.39183  1.0000
  C   C53       1.0  0.97928  0.99430  0.54696  1.0000
  C   C54       1.0  0.02072  0.00571  0.45303  1.0000
  C   C55       1.0  0.80457  0.97185  0.57964  1.0000
  C   C56       1.0  0.19543  0.02815  0.42035  1.0000
  C   C57       1.0  0.77054  0.96336  0.66819  1.0000
  C   C58       1.0  0.22946  0.03664  0.33180  1.0000
  C   C59       1.0  0.54121  0.70280  0.06253  1.0000
  C   C60       1.0  0.45879  0.29720  0.93748  1.0000
  C   C61       1.0  0.44947  0.62236  0.04660  1.0000
  C   C62       1.0  0.55053  0.37764  0.95340  1.0000
  C   C63       1.0  0.54645  0.54271  0.01059  1.0000
  C   C64       1.0  0.45355  0.45729  0.98941  1.0000
  C   C65       1.0  0.73669  0.54843  0.99501  1.0000
  C   C66       1.0  0.26331  0.45157  0.00499  1.0000
  C   C67       1.0  0.81866  0.63065  0.01402  1.0000
  C   C68       1.0  0.18134  0.36935  0.98599  1.0000
  N   N1        1.0  0.89747  0.97793  0.72552  1.0000
  N   N2        1.0  0.10253  0.02207  0.27448  1.0000
  N   N3        1.0  0.72277  0.70826  0.04630  1.0000
  N   N4        1.0  0.27722  0.29174  0.95370  1.0000
  O   O1        1.0  0.10252  0.90626  0.87758  1.0000
  O   O2        1.0  0.89748  0.09374  0.12241  1.0000
  O   O3        1.0  0.06754  0.78071  0.98144  1.0000
  O   O4        1.0  0.93245  0.21929  0.01856  1.0000
  O   O5        1.0  0.45982  0.87387  0.94396  1.0000
  O   O6        1.0  0.54018  0.12613  0.05603  1.0000
  O   O7        1.0  0.69432  0.85814  0.84540  1.0000
  O   O8        1.0  0.30568  0.14186  0.15460  1.0000
  O   O9        1.0  0.06504  0.88085  0.14242  1.0000
  O   O10       1.0  0.93496  0.11915  0.85759  1.0000
  O   O11       1.0  0.07334  0.71811  0.17296  1.0000
  O   O12       1.0  0.92666  0.28189  0.82705  1.0000
  O   O13       1.0  0.43103  0.93123  0.13173  1.0000
  O   O14       1.0  0.56897  0.06877  0.86827  1.0000
  O   O15       1.0  0.69458  0.84565  0.18073  1.0000
  O   O16       1.0  0.30541  0.15435  0.81927  1.0000
  O   O17       1.0  0.78212  0.96321  0.99929  1.0000
  O   O18       1.0  0.21788  0.03679  0.00071  1.0000
