data_image0
_chemical_formula_structural       Zn4H48C68N8O20
_chemical_formula_sum              "Zn4 H48 C68 N8 O20"
_cell_length_a       8.57493
_cell_length_b       8.49097
_cell_length_c       22.2072
_cell_angle_alpha    90
_cell_angle_beta     90
_cell_angle_gamma    97.5285

_space_group_name_H-M_alt    "P 1"
_space_group_IT_number       1

loop_
  _space_group_symop_operation_xyz
  'x, y, z'

loop_
  _atom_site_type_symbol
  _atom_site_label
  _atom_site_symmetry_multiplicity
  _atom_site_fract_x
  _atom_site_fract_y
  _atom_site_fract_z
  _atom_site_occupancy
  Zn  Zn1       1.0  0.13179  0.39314  0.70283  1.0000
  Zn  Zn2       1.0  0.39111  0.13233  0.29769  1.0000
  Zn  Zn3       1.0  0.89112  0.63233  0.20231  1.0000
  Zn  Zn4       1.0  0.63179  0.89314  0.79717  1.0000
  H   H1        1.0  0.45439  0.65317  0.62579  1.0000
  H   H2        1.0  0.65471  0.45401  0.37358  1.0000
  H   H3        1.0  0.15471  0.95400  0.12642  1.0000
  H   H4        1.0  0.95438  0.15317  0.87422  1.0000
  H   H5        1.0  0.39091  0.49359  0.53545  1.0000
  H   H6        1.0  0.49673  0.39123  0.46402  1.0000
  H   H7        1.0  0.99673  0.89122  0.03598  1.0000
  H   H8        1.0  0.89092  0.99360  0.96455  1.0000
  H   H9        1.0  0.27070  0.46117  0.43260  1.0000
  H   H10       1.0  0.46431  0.27031  0.56695  1.0000
  H   H11       1.0  0.96430  0.77031  0.93305  1.0000
  H   H12       1.0  0.77069  0.96120  0.06740  1.0000
  H   H13       1.0  0.11925  0.66715  0.39230  1.0000
  H   H14       1.0  0.66852  0.11868  0.60770  1.0000
  H   H15       1.0  0.16852  0.61868  0.89230  1.0000
  H   H16       1.0  0.61924  0.16717  0.10770  1.0000
  H   H17       1.0  0.08018  0.90119  0.45438  1.0000
  H   H18       1.0  0.90130  0.07981  0.54604  1.0000
  H   H19       1.0  0.40130  0.57980  0.95396  1.0000
  H   H20       1.0  0.58017  0.40121  0.04561  1.0000
  H   H21       1.0  0.12930  0.05712  0.55150  1.0000
  H   H22       1.0  0.05632  0.12918  0.44906  1.0000
  H   H23       1.0  0.55633  0.62918  0.05094  1.0000
  H   H24       1.0  0.62929  0.55712  0.94849  1.0000
  H   H25       1.0  0.94345  0.67363  0.71348  1.0000
  H   H26       1.0  0.67109  0.94503  0.28659  1.0000
  H   H27       1.0  0.17109  0.44503  0.21341  1.0000
  H   H28       1.0  0.44345  0.17363  0.78652  1.0000
  H   H29       1.0  0.78102  0.82075  0.64380  1.0000
  H   H30       1.0  0.81964  0.78307  0.35612  1.0000
  H   H31       1.0  0.31964  0.28307  0.14388  1.0000
  H   H32       1.0  0.28102  0.32074  0.85620  1.0000
  H   H33       1.0  0.90609  0.51940  0.49984  1.0000
  H   H34       1.0  0.51936  0.90427  0.50032  1.0000
  H   H35       1.0  0.01937  0.40427  0.99968  1.0000
  H   H36       1.0  0.40609  0.01939  0.00017  1.0000
  H   H37       1.0  0.06223  0.38401  0.57545  1.0000
  H   H38       1.0  0.38292  0.06045  0.42493  1.0000
  H   H39       1.0  0.88293  0.56045  0.07507  1.0000
  H   H40       1.0  0.56223  0.88400  0.92455  1.0000
  H   H41       1.0  0.38018  0.60649  0.73797  1.0000
  H   H42       1.0  0.60627  0.38037  0.26241  1.0000
  H   H43       1.0  0.10627  0.88037  0.23759  1.0000
  H   H44       1.0  0.88018  0.10649  0.76203  1.0000
  H   H45       1.0  0.43908  0.43977  0.72652  1.0000
  H   H46       1.0  0.44287  0.44414  0.27269  1.0000
  H   H47       1.0  0.94287  0.94413  0.22731  1.0000
  H   H48       1.0  0.93908  0.93977  0.77347  1.0000
  C   C1        1.0  0.22282  0.11004  0.66613  1.0000
  C   C2        1.0  0.10861  0.22185  0.33403  1.0000
  C   C3        1.0  0.60862  0.72186  0.16596  1.0000
  C   C4        1.0  0.72283  0.61005  0.83388  1.0000
  C   C5        1.0  0.26461  0.98338  0.62409  1.0000
  C   C6        1.0  0.98288  0.26402  0.37600  1.0000
  C   C7        1.0  0.48288  0.76402  0.12400  1.0000
  C   C8        1.0  0.76461  0.48338  0.87590  1.0000
  C   C9        1.0  0.36067  0.86972  0.64514  1.0000
  C   C10       1.0  0.86973  0.36007  0.35469  1.0000
  C   C11       1.0  0.36974  0.86006  0.14531  1.0000
  C   C12       1.0  0.86066  0.36972  0.85486  1.0000
  C   C13       1.0  0.37950  0.73927  0.61016  1.0000
  C   C14       1.0  0.74034  0.37918  0.38952  1.0000
  C   C15       1.0  0.24034  0.87917  0.11048  1.0000
  C   C16       1.0  0.87949  0.23927  0.88984  1.0000
  C   C17       1.0  0.30730  0.71678  0.55281  1.0000
  C   C18       1.0  0.71820  0.30717  0.44701  1.0000
  C   C19       1.0  0.21820  0.80717  0.05300  1.0000
  C   C20       1.0  0.80729  0.21679  0.94719  1.0000
  C   C21       1.0  0.32421  0.58264  0.51679  1.0000
  C   C22       1.0  0.58508  0.32432  0.48286  1.0000
  C   C23       1.0  0.08508  0.82431  0.01714  1.0000
  C   C24       1.0  0.82420  0.08265  0.98321  1.0000
  C   C25       1.0  0.25792  0.56539  0.46007  1.0000
  C   C26       1.0  0.56784  0.25773  0.53963  1.0000
  C   C27       1.0  0.06785  0.75772  0.96038  1.0000
  C   C28       1.0  0.75791  0.06540  0.03993  1.0000
  C   C29       1.0  0.17061  0.68221  0.43722  1.0000
  C   C30       1.0  0.68370  0.17015  0.56273  1.0000
  C   C31       1.0  0.18370  0.67015  0.93728  1.0000
  C   C32       1.0  0.67058  0.18223  0.06278  1.0000
  C   C33       1.0  0.14985  0.81299  0.47188  1.0000
  C   C34       1.0  0.81369  0.14948  0.52829  1.0000
  C   C35       1.0  0.31369  0.64948  0.97171  1.0000
  C   C36       1.0  0.64983  0.31301  0.02812  1.0000
  C   C37       1.0  0.21704  0.83451  0.53015  1.0000
  C   C38       1.0  0.83510  0.21675  0.46991  1.0000
  C   C39       1.0  0.33510  0.71675  0.03009  1.0000
  C   C40       1.0  0.71704  0.33452  0.96984  1.0000
  C   C41       1.0  0.19861  0.96666  0.56738  1.0000
  C   C42       1.0  0.96640  0.19829  0.43287  1.0000
  C   C43       1.0  0.46641  0.69829  0.06713  1.0000
  C   C44       1.0  0.69860  0.46667  0.93261  1.0000
  C   C45       1.0  0.45810  0.90233  0.70063  1.0000
  C   C46       1.0  0.90161  0.45780  0.29903  1.0000
  C   C47       1.0  0.40161  0.95780  0.20097  1.0000
  C   C48       1.0  0.95810  0.40233  0.79937  1.0000
  C   C49       1.0  0.93278  0.64528  0.66575  1.0000
  C   C50       1.0  0.64330  0.93367  0.33434  1.0000
  C   C51       1.0  0.14330  0.43367  0.16566  1.0000
  C   C52       1.0  0.43277  0.14528  0.83425  1.0000
  C   C53       1.0  0.84161  0.72443  0.62709  1.0000
  C   C54       1.0  0.72322  0.84269  0.37289  1.0000
  C   C55       1.0  0.22323  0.34269  0.12711  1.0000
  C   C56       1.0  0.34161  0.22443  0.87291  1.0000
  C   C57       1.0  0.83237  0.67966  0.56633  1.0000
  C   C58       1.0  0.67913  0.83242  0.43367  1.0000
  C   C59       1.0  0.17913  0.33241  0.06633  1.0000
  C   C60       1.0  0.33237  0.17965  0.93367  1.0000
  C   C61       1.0  0.91163  0.55514  0.54673  1.0000
  C   C62       1.0  0.55452  0.91043  0.45339  1.0000
  C   C63       1.0  0.05452  0.41042  0.04661  1.0000
  C   C64       1.0  0.41162  0.05513  0.95327  1.0000
  C   C65       1.0  0.99824  0.48142  0.58815  1.0000
  C   C66       1.0  0.48024  0.99715  0.41210  1.0000
  C   C67       1.0  0.98024  0.49715  0.08789  1.0000
  C   C68       1.0  0.49824  0.98141  0.91185  1.0000
  N   N1        1.0  0.01023  0.52632  0.64656  1.0000
  N   N2        1.0  0.52436  0.01011  0.35367  1.0000
  N   N3        1.0  0.02436  0.51011  0.14633  1.0000
  N   N4        1.0  0.51023  0.02631  0.85344  1.0000
  N   N5        1.0  0.74295  0.76624  0.52770  1.0000
  N   N6        1.0  0.76700  0.74398  0.47224  1.0000
  N   N7        1.0  0.26700  0.24397  0.02776  1.0000
  N   N8        1.0  0.24296  0.26623  0.97230  1.0000
  O   O1        1.0  0.20350  0.07819  0.72076  1.0000
  O   O2        1.0  0.07662  0.20091  0.27949  1.0000
  O   O3        1.0  0.57663  0.70091  0.22051  1.0000
  O   O4        1.0  0.70351  0.57820  0.77923  1.0000
  O   O5        1.0  0.34515  0.48760  0.73651  1.0000
  O   O6        1.0  0.48842  0.34713  0.26447  1.0000
  O   O7        1.0  0.98843  0.84713  0.23553  1.0000
  O   O8        1.0  0.84515  0.98760  0.76349  1.0000
  O   O9        1.0  0.20394  0.24571  0.64166  1.0000
  O   O10       1.0  0.24351  0.20442  0.35841  1.0000
  O   O11       1.0  0.74352  0.70442  0.14159  1.0000
  O   O12       1.0  0.70394  0.74571  0.85834  1.0000
  O   O13       1.0  0.46244  0.78849  0.73970  1.0000
  O   O14       1.0  0.78847  0.46178  0.26010  1.0000
  O   O15       1.0  0.28847  0.96178  0.23990  1.0000
  O   O16       1.0  0.96245  0.28849  0.76030  1.0000
  O   O17       1.0  0.54237  0.03360  0.70687  1.0000
  O   O18       1.0  0.03159  0.54273  0.29260  1.0000
  O   O19       1.0  0.53160  0.04273  0.20740  1.0000
  O   O20       1.0  0.04237  0.53361  0.79313  1.0000
