data_image0
_chemical_formula_structural       Cu2H26C40N12O8
_chemical_formula_sum              "Cu2 H26 C40 N12 O8"
_cell_length_a       10.2009
_cell_length_b       9.89526
_cell_length_c       10.7655
_cell_angle_alpha    79.8839
_cell_angle_beta     66.5072
_cell_angle_gamma    60.5828

_space_group_name_H-M_alt    "P 1"
_space_group_IT_number       1

loop_
  _space_group_symop_operation_xyz
  'x, y, z'

loop_
  _atom_site_type_symbol
  _atom_site_label
  _atom_site_symmetry_multiplicity
  _atom_site_fract_x
  _atom_site_fract_y
  _atom_site_fract_z
  _atom_site_occupancy
  Cu  Cu1       1.0  0.95653  0.90867  0.71884  1.0000
  Cu  Cu2       1.0  0.04317  0.09153  0.28103  1.0000
  H   H1        1.0  0.88482  0.22546  0.84556  1.0000
  H   H2        1.0  0.11499  0.77457  0.15441  1.0000
  H   H3        1.0  0.60371  0.00399  0.90836  1.0000
  H   H4        1.0  0.39589  0.99623  0.09173  1.0000
  H   H5        1.0  0.44265  0.22649  0.11411  1.0000
  H   H6        1.0  0.55716  0.77359  0.88603  1.0000
  H   H7        1.0  0.83483  0.63206  0.86100  1.0000
  H   H8        1.0  0.16475  0.36814  0.13894  1.0000
  H   H9        1.0  0.93201  0.87668  0.06470  1.0000
  H   H10       1.0  0.06822  0.12327  0.93481  1.0000
  H   H11       1.0  0.76825  0.73203  0.25611  1.0000
  H   H12       1.0  0.23241  0.26770  0.74363  1.0000
  H   H13       1.0  0.25999  0.82758  0.44395  1.0000
  H   H14       1.0  0.73878  0.17305  0.55504  1.0000
  H   H15       1.0  0.04016  0.55426  0.68124  1.0000
  H   H16       1.0  0.96116  0.44514  0.31984  1.0000
  H   H17       1.0  0.29895  0.37624  0.46156  1.0000
  H   H18       1.0  0.70276  0.62295  0.53970  1.0000
  H   H19       1.0  0.82147  0.41930  0.95197  1.0000
  H   H20       1.0  0.17840  0.58070  0.04805  1.0000
  H   H21       1.0  0.53076  0.70826  0.31403  1.0000
  H   H22       1.0  0.46951  0.29154  0.68607  1.0000
  H   H23       1.0  0.40918  0.37327  0.24691  1.0000
  H   H24       1.0  0.59080  0.62677  0.75328  1.0000
  H   H25       1.0  0.41654  0.91567  0.73682  1.0000
  H   H26       1.0  0.58328  0.08442  0.26308  1.0000
  C   C1        1.0  0.78851  0.19361  0.89499  1.0000
  C   C2        1.0  0.21129  0.80642  0.10502  1.0000
  C   C3        1.0  0.63764  0.08328  0.92848  1.0000
  C   C4        1.0  0.36207  0.91683  0.07161  1.0000
  C   C5        1.0  0.55715  0.19292  0.02976  1.0000
  C   C6        1.0  0.44266  0.80716  0.97035  1.0000
  C   C7        1.0  0.84902  0.67151  0.94036  1.0000
  C   C8        1.0  0.15083  0.32855  0.05949  1.0000
  C   C9        1.0  0.89127  0.80015  0.04996  1.0000
  C   C10       1.0  0.10888  0.19980  0.94970  1.0000
  C   C11       1.0  0.80658  0.73227  0.14682  1.0000
  C   C12       1.0  0.19376  0.26756  0.85294  1.0000
  C   C13       1.0  0.23868  0.72820  0.48270  1.0000
  C   C14       1.0  0.76078  0.27216  0.51684  1.0000
  C   C15       1.0  0.12697  0.58348  0.60126  1.0000
  C   C16       1.0  0.87372  0.41628  0.39930  1.0000
  C   C17       1.0  0.25473  0.49384  0.49269  1.0000
  C   C18       1.0  0.74619  0.50577  0.50804  1.0000
  C   C19       1.0  0.62012  0.38210  0.09026  1.0000
  C   C20       1.0  0.37986  0.61783  0.90981  1.0000
  C   C21       1.0  0.71848  0.45401  0.04684  1.0000
  C   C22       1.0  0.28145  0.54598  0.95320  1.0000
  C   C23       1.0  0.68491  0.57127  0.12753  1.0000
  C   C24       1.0  0.31519  0.42866  0.87247  1.0000
  C   C25       1.0  0.55662  0.61594  0.25225  1.0000
  C   C26       1.0  0.44357  0.38393  0.74781  1.0000
  C   C27       1.0  0.45943  0.54239  0.29336  1.0000
  C   C28       1.0  0.54070  0.45757  0.70670  1.0000
  C   C29       1.0  0.48898  0.42644  0.21311  1.0000
  C   C30       1.0  0.51107  0.57352  0.78699  1.0000
  C   C31       1.0  0.72522  0.86276  0.64158  1.0000
  C   C32       1.0  0.27459  0.13741  0.35834  1.0000
  C   C33       1.0  0.61177  0.93024  0.56512  1.0000
  C   C34       1.0  0.38804  0.06985  0.43480  1.0000
  C   C35       1.0  0.65954  0.97838  0.43069  1.0000
  C   C36       1.0  0.34028  0.02167  0.56920  1.0000
  C   C37       1.0  0.83417  0.94243  0.35294  1.0000
  C   C38       1.0  0.16564  0.05756  0.64693  1.0000
  C   C39       1.0  0.45364  0.95134  0.63225  1.0000
  C   C40       1.0  0.54616  0.04874  0.36765  1.0000
  N   N1        1.0  0.78153  0.08418  0.84623  1.0000
  N   N2        1.0  0.21817  0.91591  0.15379  1.0000
  N   N3        1.0  0.65389  0.26282  0.00815  1.0000
  N   N4        1.0  0.34599  0.73718  0.99192  1.0000
  N   N5        1.0  0.91734  0.76116  0.92173  1.0000
  N   N6        1.0  0.08252  0.23891  0.07799  1.0000
  N   N7        1.0  0.77944  0.65009  0.07587  1.0000
  N   N8        1.0  0.22070  0.34982  0.92400  1.0000
  N   N9        1.0  0.11883  0.72823  0.59396  1.0000
  N   N10       1.0  0.88098  0.27200  0.40586  1.0000
  N   N11       1.0  0.32555  0.58636  0.41781  1.0000
  N   N12       1.0  0.67457  0.41364  0.58226  1.0000
  O   O1        1.0  0.78980  0.94704  0.64001  1.0000
  O   O2        1.0  0.20992  0.05322  0.35987  1.0000
  O   O3        1.0  0.74114  0.73951  0.70460  1.0000
  O   O4        1.0  0.25874  0.26065  0.29531  1.0000
  O   O5        1.0  0.93999  0.80470  0.34915  1.0000
  O   O6        1.0  0.05976  0.19523  0.65067  1.0000
  O   O7        1.0  0.85491  0.06047  0.29517  1.0000
  O   O8        1.0  0.14495  0.93951  0.70474  1.0000
