data_image0
_chemical_formula_structural       Mn4H40C52N8Cl18O10
_chemical_formula_sum              "Mn4 H40 C52 N8 Cl18 O10"
_cell_length_a       9.19659
_cell_length_b       12.5312
_cell_length_c       16.2443
_cell_angle_alpha    112.879
_cell_angle_beta     106.998
_cell_angle_gamma    89.8461

_space_group_name_H-M_alt    "P 1"
_space_group_IT_number       1

loop_
  _space_group_symop_operation_xyz
  'x, y, z'

loop_
  _atom_site_type_symbol
  _atom_site_label
  _atom_site_symmetry_multiplicity
  _atom_site_fract_x
  _atom_site_fract_y
  _atom_site_fract_z
  _atom_site_occupancy
  Mn  Mn1       1.0  0.49991  0.13855  0.00018  1.0000
  Mn  Mn2       1.0  0.49983  0.86082  0.99999  1.0000
  Mn  Mn3       1.0  0.99961  0.99975  0.99993  1.0000
  Mn  Mn4       1.0  0.99998  0.50038  0.00007  1.0000
  H   H1        1.0  0.72724  0.28986  0.99734  1.0000
  H   H2        1.0  0.26860  0.70508  0.99509  1.0000
  H   H3        1.0  0.73162  0.70923  0.00423  1.0000
  H   H4        1.0  0.27270  0.29383  0.00298  1.0000
  H   H5        1.0  0.85954  0.43004  0.32824  1.0000
  H   H6        1.0  0.47020  0.89695  0.32598  1.0000
  H   H7        1.0  0.53013  0.57055  0.67356  1.0000
  H   H8        1.0  0.14150  0.10257  0.67242  1.0000
  H   H9        1.0  0.72213  0.39529  0.43043  1.0000
  H   H10       1.0  0.71144  0.03535  0.43025  1.0000
  H   H11       1.0  0.28938  0.60569  0.56954  1.0000
  H   H12       1.0  0.27989  0.96564  0.57002  1.0000
  H   H13       1.0  0.48032  0.25481  0.35262  1.0000
  H   H14       1.0  0.87550  0.09949  0.35463  1.0000
  H   H15       1.0  0.12476  0.74586  0.64553  1.0000
  H   H16       1.0  0.52102  0.90168  0.64756  1.0000
  H   H17       1.0  0.38927  0.15109  0.17668  1.0000
  H   H18       1.0  0.78893  0.02757  0.17885  1.0000
  H   H19       1.0  0.21040  0.84899  0.82144  1.0000
  H   H20       1.0  0.61069  0.97278  0.82334  1.0000
  H   H21       1.0  0.84036  0.40984  0.16793  1.0000
  H   H22       1.0  0.32744  0.75654  0.16512  1.0000
  H   H23       1.0  0.67246  0.59038  0.83408  1.0000
  H   H24       1.0  0.15875  0.24159  0.83260  1.0000
  H   H25       1.0  0.85967  0.25887  0.12552  1.0000
  H   H26       1.0  0.26503  0.86503  0.12280  1.0000
  H   H27       1.0  0.73465  0.74138  0.87694  1.0000
  H   H28       1.0  0.14079  0.13327  0.87505  1.0000
  H   H29       1.0  0.53188  0.41897  0.10663  1.0000
  H   H30       1.0  0.57579  0.68812  0.10641  1.0000
  H   H31       1.0  0.42467  0.58094  0.89284  1.0000
  H   H32       1.0  0.46797  0.31117  0.89338  1.0000
  H   H33       1.0  0.63794  0.46969  0.05119  1.0000
  H   H34       1.0  0.41368  0.58066  0.04983  1.0000
  H   H35       1.0  0.58704  0.53003  0.94936  1.0000
  H   H36       1.0  0.36194  0.41843  0.94858  1.0000
  H   H37       1.0  0.03905  0.27860  0.05429  1.0000
  H   H38       1.0  0.01611  0.77587  0.05341  1.0000
  H   H39       1.0  0.98255  0.72129  0.94594  1.0000
  H   H40       1.0  0.96236  0.22440  0.94682  1.0000
  C   C1        1.0  0.69704  0.30685  0.20004  1.0000
  C   C2        1.0  0.50371  0.89277  0.19897  1.0000
  C   C3        1.0  0.49603  0.69336  0.80080  1.0000
  C   C4        1.0  0.30310  0.10644  0.80032  1.0000
  C   C5        1.0  0.75555  0.36814  0.29769  1.0000
  C   C6        1.0  0.54378  0.92897  0.29646  1.0000
  C   C7        1.0  0.45633  0.63229  0.70323  1.0000
  C   C8        1.0  0.24528  0.07069  0.70278  1.0000
  C   C9        1.0  0.67858  0.34953  0.35404  1.0000
  C   C10       1.0  0.67798  0.00470  0.35393  1.0000
  C   C11       1.0  0.32238  0.65109  0.64590  1.0000
  C   C12       1.0  0.32282  0.99575  0.64634  1.0000
  C   C13       1.0  0.54452  0.27105  0.31119  1.0000
  C   C14       1.0  0.76919  0.04119  0.31231  1.0000
  C   C15       1.0  0.23088  0.72943  0.68774  1.0000
  C   C16       1.0  0.45650  0.95946  0.68907  1.0000
  C   C17       1.0  0.49304  0.21349  0.21366  1.0000
  C   C18       1.0  0.72214  0.00134  0.21483  1.0000
  C   C19       1.0  0.27744  0.78668  0.78528  1.0000
  C   C20       1.0  0.50720  0.99875  0.78651  1.0000
  C   C21       1.0  0.77613  0.32186  0.13550  1.0000
  C   C22       1.0  0.35903  0.81243  0.13335  1.0000
  C   C23       1.0  0.64074  0.67830  0.86620  1.0000
  C   C24       1.0  0.22368  0.18623  0.86494  1.0000
  C   C25       1.0  0.56945  0.39304  0.04393  1.0000
  C   C26       1.0  0.47473  0.65045  0.04313  1.0000
  C   C27       1.0  0.52570  0.60671  0.95614  1.0000
  C   C28       1.0  0.43042  0.34890  0.95607  1.0000
  C   C29       1.0  0.09791  0.14837  0.18428  1.0000
  C   C30       1.0  0.08784  0.03559  0.18395  1.0000
  C   C31       1.0  0.91133  0.85135  0.81563  1.0000
  C   C32       1.0  0.90142  0.96412  0.81589  1.0000
  C   C33       1.0  0.18277  0.23377  0.35584  1.0000
  C   C34       1.0  0.17208  0.12162  0.35548  1.0000
  C   C35       1.0  0.82751  0.76609  0.64408  1.0000
  C   C36       1.0  0.81709  0.87822  0.64433  1.0000
  C   C37       1.0  0.14675  0.24672  0.26987  1.0000
  C   C38       1.0  0.12364  0.02255  0.26912  1.0000
  C   C39       1.0  0.87549  0.75307  0.73013  1.0000
  C   C40       1.0  0.85292  0.97718  0.73062  1.0000
  C   C41       1.0  0.16903  0.58513  0.18354  1.0000
  C   C42       1.0  0.01516  0.59887  0.18282  1.0000
  C   C43       1.0  0.98478  0.41562  0.81733  1.0000
  C   C44       1.0  0.83094  0.40128  0.81655  1.0000
  C   C45       1.0  0.28674  0.61837  0.26953  1.0000
  C   C46       1.0  0.98361  0.65114  0.26815  1.0000
  C   C47       1.0  0.01628  0.38245  0.73203  1.0000
  C   C48       1.0  0.71326  0.34867  0.73047  1.0000
  C   C49       1.0  0.25386  0.66884  0.35533  1.0000
  C   C50       1.0  0.10299  0.68628  0.35462  1.0000
  C   C51       1.0  0.89694  0.33131  0.64549  1.0000
  C   C52       1.0  0.74611  0.31344  0.64471  1.0000
  N   N1        1.0  0.56776  0.23012  0.15878  1.0000
  N   N2        1.0  0.59169  0.92908  0.15887  1.0000
  N   N3        1.0  0.40778  0.76996  0.84110  1.0000
  N   N4        1.0  0.43212  0.07044  0.84147  1.0000
  N   N5        1.0  0.66569  0.29772  0.04241  1.0000
  N   N6        1.0  0.37585  0.74347  0.04073  1.0000
  N   N7        1.0  0.62420  0.70212  0.95876  1.0000
  N   N8        1.0  0.33423  0.25575  0.95794  1.0000
  Cl  Cl1       1.0  0.30054  0.00201  0.99860  1.0000
  Cl  Cl2       1.0  0.69899  0.00286  0.00161  1.0000
  Cl  Cl3       1.0  0.16764  0.38153  0.26749  1.0000
  Cl  Cl4       1.0  0.10064  0.88467  0.26549  1.0000
  Cl  Cl5       1.0  0.89820  0.61834  0.73297  1.0000
  Cl  Cl6       1.0  0.83212  0.11479  0.73376  1.0000
  Cl  Cl7       1.0  0.23867  0.35549  0.46031  1.0000
  Cl  Cl8       1.0  0.21675  0.10416  0.45948  1.0000
  Cl  Cl9       1.0  0.78332  0.64452  0.53971  1.0000
  Cl  Cl10      1.0  0.76119  0.89575  0.54025  1.0000
  Cl  Cl11      1.0  0.47038  0.59335  0.26830  1.0000
  Cl  Cl12      1.0  0.79801  0.67454  0.26527  1.0000
  Cl  Cl13      1.0  0.20186  0.40841  0.73503  1.0000
  Cl  Cl14      1.0  0.52971  0.32485  0.73155  1.0000
  Cl  Cl15      1.0  0.39952  0.70674  0.45985  1.0000
  Cl  Cl16      1.0  0.06139  0.75135  0.45820  1.0000
  Cl  Cl17      1.0  0.93847  0.29298  0.54201  1.0000
  Cl  Cl18      1.0  0.60038  0.24735  0.54011  1.0000
  O   O1        1.0  0.05884  0.15279  0.09917  1.0000
  O   O2        1.0  0.04235  0.94583  0.09856  1.0000
  O   O3        1.0  0.95693  0.84687  0.90079  1.0000
  O   O4        1.0  0.94024  0.05378  0.90122  1.0000
  O   O5        1.0  0.19065  0.53893  0.09921  1.0000
  O   O6        1.0  0.90843  0.56083  0.09791  1.0000
  O   O7        1.0  0.09152  0.46232  0.90225  1.0000
  O   O8        1.0  0.80937  0.43933  0.90084  1.0000
  O   O9        1.0  0.00111  0.30041  0.00046  1.0000
  O   O10       1.0  0.99889  0.69969  0.99979  1.0000
