data_image0
_chemical_formula_structural       CuH8C12N2O4
_chemical_formula_sum              "Cu1 H8 C12 N2 O4"
_cell_length_a       5.26943
_cell_length_b       7.88612
_cell_length_c       8.0329
_cell_angle_alpha    62.0481
_cell_angle_beta     70.7326
_cell_angle_gamma    69.6018

_space_group_name_H-M_alt    "P 1"
_space_group_IT_number       1

loop_
  _space_group_symop_operation_xyz
  'x, y, z'

loop_
  _atom_site_type_symbol
  _atom_site_label
  _atom_site_symmetry_multiplicity
  _atom_site_fract_x
  _atom_site_fract_y
  _atom_site_fract_z
  _atom_site_occupancy
  Cu  Cu1       1.0  0.49999  0.50000  0.50000  1.0000
  H   H1        1.0  0.39747  0.06289  0.35708  1.0000
  H   H2        1.0  0.60252  0.93712  0.64294  1.0000
  H   H3        1.0  0.31972  0.07099  0.06093  1.0000
  H   H4        1.0  0.68030  0.92901  0.93908  1.0000
  H   H5        1.0  0.87816  0.27223  0.94803  1.0000
  H   H6        1.0  0.12186  0.72776  0.05197  1.0000
  H   H7        1.0  0.52188  0.46210  0.14079  1.0000
  H   H8        1.0  0.47813  0.53789  0.85920  1.0000
  C   C1        1.0  0.01636  0.26701  0.58061  1.0000
  C   C2        1.0  0.98363  0.73300  0.41939  1.0000
  C   C3        1.0  0.00162  0.26127  0.39884  1.0000
  C   C4        1.0  0.99837  0.73874  0.60116  1.0000
  C   C5        1.0  0.20856  0.15226  0.30263  1.0000
  C   C6        1.0  0.79144  0.84774  0.69738  1.0000
  C   C7        1.0  0.16402  0.15587  0.13892  1.0000
  C   C8        1.0  0.83599  0.84412  0.86108  1.0000
  C   C9        1.0  0.91662  0.26668  0.07607  1.0000
  C   C10       1.0  0.08339  0.73332  0.92393  1.0000
  C   C11       1.0  0.72016  0.37231  0.17946  1.0000
  C   C12       1.0  0.27985  0.62768  0.82054  1.0000
  N   N1        1.0  0.76335  0.36864  0.33652  1.0000
  N   N2        1.0  0.23664  0.63136  0.66348  1.0000
  O   O1        1.0  0.78883  0.36070  0.65865  1.0000
  O   O2        1.0  0.21115  0.63931  0.34135  1.0000
  O   O3        1.0  0.23170  0.18671  0.64649  1.0000
  O   O4        1.0  0.76828  0.81331  0.35351  1.0000
