data_image0
_chemical_formula_structural       Cd6H36C36N24O12
_chemical_formula_sum              "Cd6 H36 C36 N24 O12"
_cell_length_a       12.6685
_cell_length_b       12.6693
_cell_length_c       12.5772
_cell_angle_alpha    96.5391
_cell_angle_beta     96.5395
_cell_angle_gamma    96.5991

_space_group_name_H-M_alt    "P 1"
_space_group_IT_number       1

loop_
  _space_group_symop_operation_xyz
  'x, y, z'

loop_
  _atom_site_type_symbol
  _atom_site_label
  _atom_site_symmetry_multiplicity
  _atom_site_fract_x
  _atom_site_fract_y
  _atom_site_fract_z
  _atom_site_occupancy
  Cd  Cd1       1.0  0.96270  0.67187  0.23224  1.0000
  Cd  Cd2       1.0  0.23207  0.96279  0.67278  1.0000
  Cd  Cd3       1.0  0.67105  0.23353  0.96276  1.0000
  Cd  Cd4       1.0  0.03730  0.32813  0.76776  1.0000
  Cd  Cd5       1.0  0.76793  0.03721  0.32722  1.0000
  Cd  Cd6       1.0  0.32895  0.76647  0.03724  1.0000
  H   H1        1.0  0.90630  0.51136  0.91735  1.0000
  H   H2        1.0  0.91893  0.90709  0.51162  1.0000
  H   H3        1.0  0.51055  0.91952  0.90746  1.0000
  H   H4        1.0  0.09370  0.48864  0.08265  1.0000
  H   H5        1.0  0.08107  0.09291  0.48839  1.0000
  H   H6        1.0  0.48945  0.08049  0.09254  1.0000
  H   H7        1.0  0.76437  0.49500  0.90925  1.0000
  H   H8        1.0  0.91081  0.76515  0.49535  1.0000
  H   H9        1.0  0.49426  0.91170  0.76448  1.0000
  H   H10       1.0  0.23563  0.50500  0.09074  1.0000
  H   H11       1.0  0.08919  0.23485  0.50465  1.0000
  H   H12       1.0  0.50574  0.08830  0.23552  1.0000
  H   H13       1.0  0.84171  0.60943  0.98868  1.0000
  H   H14       1.0  0.98976  0.84248  0.61060  1.0000
  H   H15       1.0  0.60871  0.99059  0.84237  1.0000
  H   H16       1.0  0.15829  0.39057  0.01132  1.0000
  H   H17       1.0  0.01024  0.15752  0.38940  1.0000
  H   H18       1.0  0.39129  0.00941  0.15763  1.0000
  H   H19       1.0  0.95522  0.40344  0.48534  1.0000
  H   H20       1.0  0.48329  0.95407  0.40293  1.0000
  H   H21       1.0  0.40306  0.48387  0.95449  1.0000
  H   H22       1.0  0.04478  0.59657  0.51466  1.0000
  H   H23       1.0  0.51671  0.04593  0.59707  1.0000
  H   H24       1.0  0.59694  0.51613  0.04551  1.0000
  H   H25       1.0  0.88809  0.30705  0.37368  1.0000
  H   H26       1.0  0.37226  0.88711  0.30597  1.0000
  H   H27       1.0  0.30658  0.37269  0.88750  1.0000
  H   H28       1.0  0.11191  0.69294  0.62632  1.0000
  H   H29       1.0  0.62774  0.11289  0.69403  1.0000
  H   H30       1.0  0.69341  0.62731  0.11250  1.0000
  H   H31       1.0  0.71305  0.08591  0.12432  1.0000
  H   H32       1.0  0.12443  0.71204  0.08386  1.0000
  H   H33       1.0  0.08503  0.12447  0.71320  1.0000
  H   H34       1.0  0.28695  0.91409  0.87568  1.0000
  H   H35       1.0  0.87557  0.28796  0.91614  1.0000
  H   H36       1.0  0.91497  0.87553  0.28680  1.0000
  C   C1        1.0  0.84461  0.46407  0.05934  1.0000
  C   C2        1.0  0.05977  0.84533  0.46409  1.0000
  C   C3        1.0  0.46322  0.06044  0.84547  1.0000
  C   C4        1.0  0.15539  0.53593  0.94066  1.0000
  C   C5        1.0  0.94023  0.15467  0.53591  1.0000
  C   C6        1.0  0.53678  0.93956  0.15453  1.0000
  C   C7        1.0  0.92938  0.45757  0.33886  1.0000
  C   C8        1.0  0.33780  0.92925  0.45744  1.0000
  C   C9        1.0  0.45709  0.33846  0.92921  1.0000
  C   C10       1.0  0.07062  0.54242  0.66114  1.0000
  C   C11       1.0  0.66220  0.07075  0.54256  1.0000
  C   C12       1.0  0.54291  0.66154  0.07079  1.0000
  C   C13       1.0  0.88535  0.42740  0.22395  1.0000
  C   C14       1.0  0.22341  0.88550  0.42701  1.0000
  C   C15       1.0  0.42674  0.22409  0.88552  1.0000
  C   C16       1.0  0.11465  0.57260  0.77605  1.0000
  C   C17       1.0  0.77660  0.11450  0.57299  1.0000
  C   C18       1.0  0.57325  0.77591  0.11448  1.0000
  C   C19       1.0  0.82928  0.33509  0.16095  1.0000
  C   C20       1.0  0.16061  0.82908  0.33434  1.0000
  C   C21       1.0  0.33423  0.16117  0.82990  1.0000
  C   C22       1.0  0.17072  0.66491  0.83905  1.0000
  C   C23       1.0  0.83939  0.17092  0.66566  1.0000
  C   C24       1.0  0.66577  0.83883  0.17010  1.0000
  C   C25       1.0  0.79443  0.22523  0.18389  1.0000
  C   C26       1.0  0.18344  0.79363  0.22401  1.0000
  C   C27       1.0  0.22446  0.18398  0.79465  1.0000
  C   C28       1.0  0.20557  0.77477  0.81611  1.0000
  C   C29       1.0  0.81656  0.20637  0.77599  1.0000
  C   C30       1.0  0.77555  0.81602  0.20535  1.0000
  C   C31       1.0  0.83883  0.52321  0.96350  1.0000
  C   C32       1.0  0.96469  0.83964  0.52375  1.0000
  C   C33       1.0  0.52250  0.96543  0.83956  1.0000
  C   C34       1.0  0.16117  0.47679  0.03650  1.0000
  C   C35       1.0  0.03531  0.16036  0.47625  1.0000
  C   C36       1.0  0.47750  0.03457  0.16044  1.0000
  N   N1        1.0  0.80413  0.36054  0.05805  1.0000
  N   N2        1.0  0.05839  0.80433  0.36000  1.0000
  N   N3        1.0  0.35949  0.05884  0.80531  1.0000
  N   N4        1.0  0.19587  0.63946  0.94195  1.0000
  N   N5        1.0  0.94161  0.19567  0.64000  1.0000
  N   N6        1.0  0.64052  0.94116  0.19469  1.0000
  N   N7        1.0  0.89408  0.50646  0.15781  1.0000
  N   N8        1.0  0.15765  0.89486  0.50650  1.0000
  N   N9        1.0  0.50580  0.15851  0.89438  1.0000
  N   N10       1.0  0.10592  0.49354  0.84219  1.0000
  N   N11       1.0  0.84235  0.10514  0.49350  1.0000
  N   N12       1.0  0.49420  0.84149  0.10562  1.0000
  N   N13       1.0  0.92304  0.38351  0.40565  1.0000
  N   N14       1.0  0.40410  0.92249  0.38283  1.0000
  N   N15       1.0  0.38300  0.40467  0.92270  1.0000
  N   N16       1.0  0.07696  0.61649  0.59435  1.0000
  N   N17       1.0  0.59590  0.07752  0.61717  1.0000
  N   N18       1.0  0.61700  0.59533  0.07730  1.0000
  N   N19       1.0  0.73410  0.16107  0.10498  1.0000
  N   N20       1.0  0.10489  0.73369  0.15929  1.0000
  N   N21       1.0  0.15998  0.10511  0.73498  1.0000
  N   N22       1.0  0.26590  0.83893  0.89502  1.0000
  N   N23       1.0  0.89511  0.26631  0.84071  1.0000
  N   N24       1.0  0.84002  0.89489  0.26502  1.0000
  O   O1        1.0  0.97155  0.55393  0.37099  1.0000
  O   O2        1.0  0.37005  0.97162  0.55428  1.0000
  O   O3        1.0  0.55344  0.37079  0.97140  1.0000
  O   O4        1.0  0.02845  0.44607  0.62901  1.0000
  O   O5        1.0  0.62995  0.02838  0.44572  1.0000
  O   O6        1.0  0.44656  0.62921  0.02860  1.0000
  O   O7        1.0  0.82543  0.19950  0.27829  1.0000
  O   O8        1.0  0.27765  0.82385  0.19869  1.0000
  O   O9        1.0  0.19926  0.27824  0.82454  1.0000
  O   O10       1.0  0.17457  0.80050  0.72172  1.0000
  O   O11       1.0  0.72235  0.17615  0.80131  1.0000
  O   O12       1.0  0.80074  0.72176  0.17546  1.0000
