data_image0
_chemical_formula_structural       Na2Fe2H48C40S8O4
_chemical_formula_sum              "Na2 Fe2 H48 C40 S8 O4"
_cell_length_a       8.80021
_cell_length_b       9.90291
_cell_length_c       13.6928
_cell_angle_alpha    109.401
_cell_angle_beta     98.1075
_cell_angle_gamma    103.754

_space_group_name_H-M_alt    "P 1"
_space_group_IT_number       1

loop_
  _space_group_symop_operation_xyz
  'x, y, z'

loop_
  _atom_site_type_symbol
  _atom_site_label
  _atom_site_symmetry_multiplicity
  _atom_site_fract_x
  _atom_site_fract_y
  _atom_site_fract_z
  _atom_site_occupancy
  Na  Na1       1.0  0.95098  0.13591  0.91168  1.0000
  Na  Na2       1.0  0.04903  0.86409  0.08832  1.0000
  Fe  Fe1       1.0  0.62214  0.99318  0.94153  1.0000
  Fe  Fe2       1.0  0.37786  0.00683  0.05847  1.0000
  H   H1        1.0  0.38792  0.97997  0.58527  1.0000
  H   H2        1.0  0.61207  0.02003  0.41473  1.0000
  H   H3        1.0  0.39857  0.77899  0.42150  1.0000
  H   H4        1.0  0.60142  0.22101  0.57850  1.0000
  H   H5        1.0  0.55111  0.60119  0.43604  1.0000
  H   H6        1.0  0.44889  0.39882  0.56396  1.0000
  H   H7        1.0  0.69582  0.62694  0.61387  1.0000
  H   H8        1.0  0.30418  0.37307  0.38613  1.0000
  H   H9        1.0  0.98660  0.85602  0.71033  1.0000
  H   H10       1.0  0.01341  0.14397  0.28965  1.0000
  H   H11       1.0  0.99867  0.64743  0.55195  1.0000
  H   H12       1.0  0.00136  0.35255  0.44805  1.0000
  H   H13       1.0  0.19122  0.50348  0.56909  1.0000
  H   H14       1.0  0.80879  0.49649  0.43092  1.0000
  H   H15       1.0  0.36837  0.56567  0.74637  1.0000
  H   H16       1.0  0.63163  0.43432  0.25365  1.0000
  H   H17       1.0  0.26042  0.50682  0.96962  1.0000
  H   H18       1.0  0.73959  0.49320  0.03038  1.0000
  H   H19       1.0  0.31223  0.34070  0.96713  1.0000
  H   H20       1.0  0.68778  0.65932  0.03287  1.0000
  H   H21       1.0  0.46445  0.62773  0.13024  1.0000
  H   H22       1.0  0.53555  0.37228  0.86977  1.0000
  H   H23       1.0  0.45167  0.45483  0.14777  1.0000
  H   H24       1.0  0.54833  0.54518  0.85223  1.0000
  H   H25       1.0  0.28371  0.67390  0.23823  1.0000
  H   H26       1.0  0.71629  0.32611  0.76177  1.0000
  H   H27       1.0  0.28047  0.50573  0.26026  1.0000
  H   H28       1.0  0.71954  0.49427  0.73973  1.0000
  H   H29       1.0  0.00980  0.41097  0.15541  1.0000
  H   H30       1.0  0.99020  0.58903  0.84458  1.0000
  H   H31       1.0  0.04471  0.55465  0.10164  1.0000
  H   H32       1.0  0.95530  0.44535  0.89836  1.0000
  H   H33       1.0  0.77702  0.13211  0.68158  1.0000
  H   H34       1.0  0.22297  0.86788  0.31842  1.0000
  H   H35       1.0  0.85100  0.98734  0.60779  1.0000
  H   H36       1.0  0.14900  0.01265  0.39221  1.0000
  H   H37       1.0  0.96275  0.32129  0.63974  1.0000
  H   H38       1.0  0.03723  0.67872  0.36027  1.0000
  H   H39       1.0  0.90787  0.16446  0.51697  1.0000
  H   H40       1.0  0.09211  0.83554  0.48303  1.0000
  H   H41       1.0  0.15266  0.10242  0.55956  1.0000
  H   H42       1.0  0.84734  0.89759  0.44043  1.0000
  H   H43       1.0  0.22774  0.29909  0.62756  1.0000
  H   H44       1.0  0.77224  0.70093  0.37245  1.0000
  H   H45       1.0  0.24156  0.27712  0.79615  1.0000
  H   H46       1.0  0.75843  0.72287  0.20385  1.0000
  H   H47       1.0  0.21119  0.08218  0.72669  1.0000
  H   H48       1.0  0.78880  0.91781  0.27330  1.0000
  C   C1        1.0  0.53269  0.91529  0.69218  1.0000
  C   C2        1.0  0.46731  0.08472  0.30782  1.0000
  C   C3        1.0  0.45434  0.90191  0.59128  1.0000
  C   C4        1.0  0.54565  0.09809  0.40872  1.0000
  C   C5        1.0  0.46110  0.78956  0.49951  1.0000
  C   C6        1.0  0.53889  0.21044  0.50049  1.0000
  C   C7        1.0  0.54774  0.69047  0.50759  1.0000
  C   C8        1.0  0.45225  0.30953  0.49241  1.0000
  C   C9        1.0  0.62820  0.70399  0.60736  1.0000
  C   C10       1.0  0.37179  0.29601  0.39264  1.0000
  C   C11       1.0  0.62004  0.81536  0.70028  1.0000
  C   C12       1.0  0.37996  0.18464  0.29972  1.0000
  C   C13       1.0  0.17313  0.83081  0.81758  1.0000
  C   C14       1.0  0.82687  0.16919  0.18242  1.0000
  C   C15       1.0  0.06968  0.79202  0.71787  1.0000
  C   C16       1.0  0.93034  0.20797  0.28212  1.0000
  C   C17       1.0  0.07597  0.67413  0.62949  1.0000
  C   C18       1.0  0.92405  0.32586  0.37051  1.0000
  C   C19       1.0  0.18262  0.59200  0.63907  1.0000
  C   C20       1.0  0.81739  0.40798  0.36094  1.0000
  C   C21       1.0  0.28268  0.62690  0.73798  1.0000
  C   C22       1.0  0.71732  0.37309  0.26203  1.0000
  C   C23       1.0  0.27895  0.74666  0.82693  1.0000
  C   C24       1.0  0.72105  0.25334  0.17307  1.0000
  C   C25       1.0  0.27209  0.43331  0.01403  1.0000
  C   C26       1.0  0.72792  0.56670  0.98597  1.0000
  C   C27       1.0  0.38149  0.52274  0.12598  1.0000
  C   C28       1.0  0.61852  0.47726  0.87401  1.0000
  C   C29       1.0  0.26428  0.55288  0.19887  1.0000
  C   C30       1.0  0.73572  0.44712  0.80112  1.0000
  C   C31       1.0  0.09576  0.47423  0.12366  1.0000
  C   C32       1.0  0.90425  0.52577  0.87634  1.0000
  C   C33       1.0  0.88447  0.10851  0.65729  1.0000
  C   C34       1.0  0.11552  0.89148  0.34271  1.0000
  C   C35       1.0  0.96551  0.20532  0.60216  1.0000
  C   C36       1.0  0.03448  0.79468  0.39784  1.0000
  C   C37       1.0  0.13889  0.19765  0.62334  1.0000
  C   C38       1.0  0.86110  0.80235  0.37666  1.0000
  C   C39       1.0  0.16241  0.17566  0.72975  1.0000
  C   C40       1.0  0.83758  0.82433  0.27025  1.0000
  S   S1        1.0  0.52980  0.05589  0.80943  1.0000
  S   S2        1.0  0.47020  0.94411  0.19057  1.0000
  S   S3        1.0  0.71700  0.83544  0.82740  1.0000
  S   S4        1.0  0.28299  0.16456  0.17260  1.0000
  S   S5        1.0  0.17991  0.98412  0.93009  1.0000
  S   S6        1.0  0.82009  0.01588  0.06990  1.0000
  S   S7        1.0  0.41264  0.80144  0.95141  1.0000
  S   S8        1.0  0.58737  0.19857  0.04859  1.0000
  O   O1        1.0  0.11647  0.36682  0.02880  1.0000
  O   O2        1.0  0.88354  0.63318  0.97119  1.0000
  O   O3        1.0  0.00437  0.14458  0.75328  1.0000
  O   O4        1.0  0.99562  0.85542  0.24672  1.0000
