data_image0
_chemical_formula_structural       Mn3H22C24N28
_chemical_formula_sum              "Mn3 H22 C24 N28"
_cell_length_a       10.0248
_cell_length_b       10.0251
_cell_length_c       11.1954
_cell_angle_alpha    100.337
_cell_angle_beta     109.069
_cell_angle_gamma    115.77

_space_group_name_H-M_alt    "P 1"
_space_group_IT_number       1

loop_
  _space_group_symop_operation_xyz
  'x, y, z'

loop_
  _atom_site_type_symbol
  _atom_site_label
  _atom_site_symmetry_multiplicity
  _atom_site_fract_x
  _atom_site_fract_y
  _atom_site_fract_z
  _atom_site_occupancy
  Mn  Mn1       1.0  0.90998  0.21410  0.47466  1.0000
  Mn  Mn2       1.0  0.73939  0.43529  0.52527  1.0000
  Mn  Mn3       1.0  0.36080  0.86083  0.50009  1.0000
  H   H1        1.0  0.55819  0.72620  0.50448  1.0000
  H   H2        1.0  0.22169  0.05371  0.49560  1.0000
  H   H3        1.0  0.73039  0.73279  0.61913  1.0000
  H   H4        1.0  0.11359  0.11111  0.38082  1.0000
  H   H5        1.0  0.28557  0.35443  0.70050  1.0000
  H   H6        1.0  0.65371  0.58477  0.29928  1.0000
  H   H7        1.0  0.43204  0.29781  0.89301  1.0000
  H   H8        1.0  0.40454  0.53886  0.10690  1.0000
  H   H9        1.0  0.26530  0.05806  0.93704  1.0000
  H   H10       1.0  0.12076  0.32816  0.06299  1.0000
  H   H11       1.0  0.95670  0.88225  0.78389  1.0000
  H   H12       1.0  0.09818  0.17260  0.21604  1.0000
  H   H13       1.0  0.57433  0.94678  0.23852  1.0000
  H   H14       1.0  0.70853  0.33593  0.76144  1.0000
  H   H15       1.0  0.32691  0.84387  0.02229  1.0000
  H   H16       1.0  0.82164  0.30480  0.97784  1.0000
  H   H17       1.0  0.01753  0.72491  0.89381  1.0000
  H   H18       1.0  0.83112  0.12396  0.10636  1.0000
  H   H19       1.0  0.84951  0.67151  0.02419  1.0000
  H   H20       1.0  0.64756  0.82555  0.97595  1.0000
  H   H21       1.0  0.99379  0.73362  0.27203  1.0000
  H   H22       1.0  0.46180  0.72198  0.72812  1.0000
  C   C1        1.0  0.21692  0.25078  0.72195  1.0000
  C   C2        1.0  0.52862  0.49469  0.27786  1.0000
  C   C3        1.0  0.29812  0.21840  0.82944  1.0000
  C   C4        1.0  0.38872  0.46847  0.17044  1.0000
  C   C5        1.0  0.20447  0.08457  0.85271  1.0000
  C   C6        1.0  0.23164  0.35159  0.14723  1.0000
  C   C7        1.0  0.03317  0.98753  0.76790  1.0000
  C   C8        1.0  0.21944  0.26502  0.23199  1.0000
  C   C9        1.0  0.96134  0.02707  0.66131  1.0000
  C   C10       1.0  0.36561  0.29976  0.33854  1.0000
  C   C11       1.0  0.78060  0.93256  0.56733  1.0000
  C   C12       1.0  0.36515  0.21310  0.43260  1.0000
  C   C13       1.0  0.49578  0.91018  0.28918  1.0000
  C   C14       1.0  0.62126  0.20673  0.71084  1.0000
  C   C15       1.0  0.31955  0.84677  0.21294  1.0000
  C   C16       1.0  0.63407  0.10679  0.78715  1.0000
  C   C17       1.0  0.24827  0.81743  0.07346  1.0000
  C   C18       1.0  0.74409  0.17501  0.92666  1.0000
  C   C19       1.0  0.07776  0.75289  0.00310  1.0000
  C   C20       1.0  0.74989  0.07488  0.99706  1.0000
  C   C21       1.0  0.98319  0.72119  0.07407  1.0000
  C   C22       1.0  0.64734  0.90934  0.92608  1.0000
  C   C23       1.0  0.06361  0.75510  0.21332  1.0000
  C   C24       1.0  0.54202  0.85051  0.78682  1.0000
  N   N1        1.0  0.05272  0.15701  0.63892  1.0000
  N   N2        1.0  0.51792  0.41353  0.36089  1.0000
  N   N3        1.0  0.72539  0.99893  0.48702  1.0000
  N   N4        1.0  0.51188  0.23831  0.51295  1.0000
  N   N5        1.0  0.55658  0.92149  0.41501  1.0000
  N   N6        1.0  0.50656  0.14162  0.58505  1.0000
  N   N7        1.0  0.22745  0.81637  0.28191  1.0000
  N   N8        1.0  0.53472  0.94573  0.71820  1.0000
  N   N9        1.0  0.68373  0.78963  0.56621  1.0000
  N   N10       1.0  0.22336  0.11737  0.43375  1.0000
  N   N11       1.0  0.74180  0.27510  0.36045  1.0000
  N   N12       1.0  0.91467  0.38137  0.63949  1.0000
  N   N13       1.0  0.65431  0.23379  0.24034  1.0000
  N   N14       1.0  0.99349  0.41403  0.75961  1.0000
  N   N15       1.0  0.56763  0.19438  0.12508  1.0000
  N   N16       1.0  0.06934  0.44265  0.87488  1.0000
  N   N17       1.0  0.89655  0.06198  0.30403  1.0000
  N   N18       1.0  0.75793  0.59250  0.69590  1.0000
  N   N19       1.0  0.81288  0.91784  0.25159  1.0000
  N   N20       1.0  0.66626  0.56134  0.74837  1.0000
  N   N21       1.0  0.73117  0.77827  0.19870  1.0000
  N   N22       1.0  0.57960  0.53260  0.80129  1.0000
  N   N23       1.0  0.30617  0.62337  0.45829  1.0000
  N   N24       1.0  0.16512  0.84791  0.54192  1.0000
  N   N25       1.0  0.22264  0.51279  0.48027  1.0000
  N   N26       1.0  0.03248  0.74235  0.51977  1.0000
  N   N27       1.0  0.14446  0.40211  0.50269  1.0000
  N   N28       1.0  0.89931  0.64172  0.49719  1.0000
