data_image0
_chemical_formula_structural       Cd3P2H48C42S2N6Cl6
_chemical_formula_sum              "Cd3 P2 H48 C42 S2 N6 Cl6"
_cell_length_a       9.03276
_cell_length_b       11.2281
_cell_length_c       13.1473
_cell_angle_alpha    99.869
_cell_angle_beta     109.937
_cell_angle_gamma    94.4995

_space_group_name_H-M_alt    "P 1"
_space_group_IT_number       1

loop_
  _space_group_symop_operation_xyz
  'x, y, z'

loop_
  _atom_site_type_symbol
  _atom_site_label
  _atom_site_symmetry_multiplicity
  _atom_site_fract_x
  _atom_site_fract_y
  _atom_site_fract_z
  _atom_site_occupancy
  Cd  Cd1       1.0  0.99161  0.12196  0.28979  1.0000
  Cd  Cd2       1.0  0.00839  0.87804  0.71021  1.0000
  Cd  Cd3       1.0  0.00000  1.00000  0.00000  1.0000
  P   P1        1.0  0.62830  0.98809  0.32635  1.0000
  P   P2        1.0  0.37170  0.01192  0.67365  1.0000
  H   H1        1.0  0.89291  0.37806  0.25931  1.0000
  H   H2        1.0  0.10709  0.62194  0.74069  1.0000
  H   H3        1.0  0.78971  0.55980  0.33828  1.0000
  H   H4        1.0  0.21029  0.44020  0.66171  1.0000
  H   H5        1.0  0.72079  0.55440  0.50598  1.0000
  H   H6        1.0  0.27921  0.44560  0.49401  1.0000
  H   H7        1.0  0.75053  0.36553  0.58592  1.0000
  H   H8        1.0  0.24947  0.63447  0.41408  1.0000
  H   H9        1.0  0.89455  0.18534  0.60185  1.0000
  H   H10       1.0  0.10545  0.81466  0.39815  1.0000
  H   H11       1.0  0.94793  0.11339  0.49251  1.0000
  H   H12       1.0  0.05207  0.88661  0.50749  1.0000
  H   H13       1.0  0.60041  0.11502  0.48149  1.0000
  H   H14       1.0  0.39958  0.88498  0.51851  1.0000
  H   H15       1.0  0.71639  0.99707  0.51977  1.0000
  H   H16       1.0  0.28361  0.00294  0.48023  1.0000
  H   H17       1.0  0.56147  0.81105  0.38602  1.0000
  H   H18       1.0  0.43853  0.18895  0.61399  1.0000
  H   H19       1.0  0.39088  0.88506  0.33121  1.0000
  H   H20       1.0  0.60912  0.11494  0.66879  1.0000
  H   H21       1.0  0.36844  0.79741  0.13923  1.0000
  H   H22       1.0  0.63156  0.20259  0.86077  1.0000
  H   H23       1.0  0.55332  0.74221  0.18882  1.0000
  H   H24       1.0  0.44668  0.25779  0.81118  1.0000
  H   H25       1.0  0.45285  0.41408  0.33677  1.0000
  H   H26       1.0  0.54714  0.58592  0.66322  1.0000
  H   H27       1.0  0.16395  0.34061  0.23960  1.0000
  H   H28       1.0  0.83605  0.65939  0.76040  1.0000
  H   H29       1.0  0.99610  0.46801  0.11900  1.0000
  H   H30       1.0  0.00390  0.53199  0.88099  1.0000
  H   H31       1.0  0.13143  0.66732  0.10466  1.0000
  H   H32       1.0  0.86857  0.33268  0.89534  1.0000
  H   H33       1.0  0.41626  0.10606  0.28114  1.0000
  H   H34       1.0  0.58375  0.89394  0.71886  1.0000
  H   H35       1.0  0.59256  0.17753  0.27224  1.0000
  H   H36       1.0  0.40744  0.82247  0.72776  1.0000
  H   H37       1.0  0.54180  0.01512  0.09568  1.0000
  H   H38       1.0  0.45820  0.98487  0.90432  1.0000
  H   H39       1.0  0.34917  0.97015  0.09691  1.0000
  H   H40       1.0  0.65083  0.02985  0.90309  1.0000
  H   H41       1.0  0.05211  0.24748  0.94719  1.0000
  H   H42       1.0  0.94789  0.75252  0.05281  1.0000
  H   H43       1.0  0.23592  0.42191  0.94223  1.0000
  H   H44       1.0  0.76408  0.57809  0.05778  1.0000
  H   H45       1.0  0.53320  0.41560  0.02146  1.0000
  H   H46       1.0  0.46680  0.58440  0.97854  1.0000
  H   H47       1.0  0.62459  0.23645  0.10086  1.0000
  H   H48       1.0  0.37541  0.76355  0.89914  1.0000
  C   C1        1.0  0.86008  0.37991  0.33207  1.0000
  C   C2        1.0  0.13993  0.62009  0.66794  1.0000
  C   C3        1.0  0.80404  0.48038  0.37613  1.0000
  C   C4        1.0  0.19596  0.51962  0.62387  1.0000
  C   C5        1.0  0.76358  0.47622  0.46901  1.0000
  C   C6        1.0  0.23642  0.52378  0.53099  1.0000
  C   C7        1.0  0.78087  0.37182  0.51334  1.0000
  C   C8        1.0  0.21913  0.62819  0.48666  1.0000
  C   C9        1.0  0.83819  0.27372  0.46490  1.0000
  C   C10       1.0  0.16181  0.72628  0.53510  1.0000
  C   C11       1.0  0.85438  0.15961  0.51106  1.0000
  C   C12       1.0  0.14562  0.84039  0.48894  1.0000
  C   C13       1.0  0.69923  0.06896  0.47100  1.0000
  C   C14       1.0  0.30077  0.93104  0.52900  1.0000
  C   C15       1.0  0.49587  0.85308  0.31730  1.0000
  C   C16       1.0  0.50413  0.14692  0.68270  1.0000
  C   C17       1.0  0.44611  0.76045  0.20696  1.0000
  C   C18       1.0  0.55389  0.23955  0.79304  1.0000
  C   C19       1.0  0.36142  0.64233  0.21284  1.0000
  C   C20       1.0  0.63858  0.35767  0.78716  1.0000
  C   C21       1.0  0.37785  0.46851  0.28457  1.0000
  C   C22       1.0  0.62214  0.53149  0.71543  1.0000
  C   C23       1.0  0.21522  0.42730  0.23061  1.0000
  C   C24       1.0  0.78478  0.57270  0.76938  1.0000
  C   C25       1.0  0.12318  0.49865  0.16427  1.0000
  C   C26       1.0  0.87682  0.50136  0.83572  1.0000
  C   C27       1.0  0.19729  0.60801  0.15540  1.0000
  C   C28       1.0  0.80271  0.39199  0.84459  1.0000
  C   C29       1.0  0.51248  0.09046  0.24879  1.0000
  C   C30       1.0  0.48752  0.90954  0.75121  1.0000
  C   C31       1.0  0.44610  0.04658  0.12259  1.0000
  C   C32       1.0  0.55390  0.95342  0.87741  1.0000
  C   C33       1.0  0.38698  0.15032  0.06895  1.0000
  C   C34       1.0  0.61302  0.84968  0.93105  1.0000
  C   C35       1.0  0.18038  0.25014  0.98205  1.0000
  C   C36       1.0  0.81962  0.74986  0.01795  1.0000
  C   C37       1.0  0.28365  0.34662  0.97883  1.0000
  C   C38       1.0  0.71635  0.65337  0.02118  1.0000
  C   C39       1.0  0.44667  0.34318  0.02289  1.0000
  C   C40       1.0  0.55333  0.65683  0.97711  1.0000
  C   C41       1.0  0.49824  0.24405  0.06811  1.0000
  C   C42       1.0  0.50176  0.75594  0.93189  1.0000
  S   S1        1.0  0.80144  0.93208  0.27489  1.0000
  S   S2        1.0  0.19856  0.06792  0.72511  1.0000
  N   N1        1.0  0.87690  0.27870  0.37484  1.0000
  N   N2        1.0  0.12311  0.72130  0.62516  1.0000
  N   N3        1.0  0.45085  0.57328  0.27652  1.0000
  N   N4        1.0  0.54915  0.42671  0.72348  1.0000
  N   N5        1.0  0.22913  0.15370  0.02569  1.0000
  N   N6        1.0  0.77087  0.84629  0.97431  1.0000
  Cl  Cl1       1.0  0.12486  0.94592  0.19378  1.0000
  Cl  Cl2       1.0  0.87514  0.05408  0.80622  1.0000
  Cl  Cl3       1.0  0.88888  0.18388  0.09911  1.0000
  Cl  Cl4       1.0  0.11112  0.81611  0.90089  1.0000
  Cl  Cl5       1.0  0.26648  0.21197  0.41826  1.0000
  Cl  Cl6       1.0  0.73352  0.78803  0.58174  1.0000
