data_image0
_chemical_formula_structural       Cd3P2H48C42Se2N6Cl6
_chemical_formula_sum              "Cd3 P2 H48 C42 Se2 N6 Cl6"
_cell_length_a       9.11043
_cell_length_b       11.1886
_cell_length_c       13.3476
_cell_angle_alpha    76.276
_cell_angle_beta     69.7544
_cell_angle_gamma    86.0641

_space_group_name_H-M_alt    "P 1"
_space_group_IT_number       1

loop_
  _space_group_symop_operation_xyz
  'x, y, z'

loop_
  _atom_site_type_symbol
  _atom_site_label
  _atom_site_symmetry_multiplicity
  _atom_site_fract_x
  _atom_site_fract_y
  _atom_site_fract_z
  _atom_site_occupancy
  Cd  Cd1       1.0  0.29878  0.12038  0.71007  1.0000
  Cd  Cd2       1.0  0.70122  0.87962  0.28993  1.0000
  Cd  Cd3       1.0  0.00000  0.00000  1.00000  1.0000
  P   P1        1.0  0.70289  0.98519  0.67634  1.0000
  P   P2        1.0  0.29711  0.01481  0.32366  1.0000
  H   H1        1.0  0.36966  0.37818  0.73785  1.0000
  H   H2        1.0  0.63034  0.62182  0.26215  1.0000
  H   H3        1.0  0.55309  0.56154  0.65850  1.0000
  H   H4        1.0  0.44691  0.43846  0.34150  1.0000
  H   H5        1.0  0.78965  0.55674  0.49398  1.0000
  H   H6        1.0  0.21036  0.44327  0.50602  1.0000
  H   H7        1.0  0.83855  0.36643  0.41825  1.0000
  H   H8        1.0  0.16145  0.63357  0.58175  1.0000
  H   H9        1.0  0.70744  0.18553  0.40366  1.0000
  H   H10       1.0  0.29257  0.81447  0.59634  1.0000
  H   H11       1.0  0.54705  0.11083  0.51359  1.0000
  H   H12       1.0  0.45295  0.88917  0.48641  1.0000
  H   H13       1.0  0.88181  0.11737  0.52158  1.0000
  H   H14       1.0  0.11819  0.88262  0.47842  1.0000
  H   H15       1.0  0.80451  0.99807  0.48486  1.0000
  H   H16       1.0  0.19549  0.00193  0.51514  1.0000
  H   H17       1.0  0.82793  0.81062  0.61567  1.0000
  H   H18       1.0  0.17207  0.18938  0.38433  1.0000
  H   H19       1.0  0.94591  0.88622  0.66659  1.0000
  H   H20       1.0  0.05409  0.11378  0.33341  1.0000
  H   H21       1.0  0.78647  0.79226  0.85817  1.0000
  H   H22       1.0  0.21353  0.20774  0.14183  1.0000
  H   H23       1.0  0.64782  0.73489  0.81374  1.0000
  H   H24       1.0  0.35218  0.26511  0.18626  1.0000
  H   H25       1.0  0.87917  0.40863  0.66752  1.0000
  H   H26       1.0  0.12083  0.59137  0.33248  1.0000
  H   H27       1.0  0.08333  0.33862  0.75133  1.0000
  H   H28       1.0  0.91667  0.66138  0.24867  1.0000
  H   H29       1.0  0.14870  0.47008  0.85981  1.0000
  H   H30       1.0  0.85130  0.52992  0.14019  1.0000
  H   H31       1.0  0.00405  0.66977  0.87566  1.0000
  H   H32       1.0  0.99596  0.33023  0.12434  1.0000
  H   H33       1.0  0.86633  0.10570  0.72106  1.0000
  H   H34       1.0  0.13367  0.89431  0.27894  1.0000
  H   H35       1.0  0.68244  0.17507  0.72857  1.0000
  H   H36       1.0  0.31755  0.82493  0.27143  1.0000
  H   H37       1.0  0.55604  0.01233  0.90511  1.0000
  H   H38       1.0  0.44396  0.98767  0.09489  1.0000
  H   H39       1.0  0.74740  0.96696  0.90480  1.0000
  H   H40       1.0  0.25260  0.03304  0.09520  1.0000
  H   H41       1.0  0.91334  0.25546  0.03265  1.0000
  H   H42       1.0  0.08666  0.74454  0.96735  1.0000
  H   H43       1.0  0.72309  0.42699  0.04171  1.0000
  H   H44       1.0  0.27691  0.57301  0.95829  1.0000
  H   H45       1.0  0.49547  0.41322  0.97654  1.0000
  H   H46       1.0  0.50453  0.58678  0.02346  1.0000
  H   H47       1.0  0.47675  0.23077  0.90438  1.0000
  H   H48       1.0  0.52325  0.76923  0.09562  1.0000
  C   C1        1.0  0.47502  0.38045  0.66641  1.0000
  C   C2        1.0  0.52498  0.61955  0.33359  1.0000
  C   C3        1.0  0.57607  0.48175  0.62220  1.0000
  C   C4        1.0  0.42393  0.51825  0.37780  1.0000
  C   C5        1.0  0.70927  0.47788  0.53119  1.0000
  C   C6        1.0  0.29073  0.52212  0.46881  1.0000
  C   C7        1.0  0.62898  0.27378  0.53768  1.0000
  C   C8        1.0  0.37102  0.72622  0.46232  1.0000
  C   C9        1.0  0.73564  0.37272  0.48914  1.0000
  C   C10       1.0  0.26436  0.62728  0.51086  1.0000
  C   C11       1.0  0.65822  0.15909  0.49370  1.0000
  C   C12       1.0  0.34178  0.84091  0.50629  1.0000
  C   C13       1.0  0.77342  0.06953  0.53287  1.0000
  C   C14       1.0  0.22658  0.93047  0.46713  1.0000
  C   C15       1.0  0.82757  0.85172  0.68312  1.0000
  C   C16       1.0  0.17243  0.14828  0.31688  1.0000
  C   C17       1.0  0.77259  0.75596  0.79243  1.0000
  C   C18       1.0  0.22741  0.24404  0.20757  1.0000
  C   C19       1.0  0.86363  0.63918  0.78318  1.0000
  C   C20       1.0  0.13637  0.36082  0.21682  1.0000
  C   C21       1.0  0.90903  0.46426  0.71510  1.0000
  C   C22       1.0  0.09096  0.53574  0.28490  1.0000
  C   C23       1.0  0.02478  0.42517  0.76138  1.0000
  C   C24       1.0  0.97522  0.57483  0.23862  1.0000
  C   C25       1.0  0.06046  0.49871  0.82099  1.0000
  C   C26       1.0  0.93954  0.50128  0.17901  1.0000
  C   C27       1.0  0.97949  0.60790  0.83142  1.0000
  C   C28       1.0  0.02051  0.39210  0.16859  1.0000
  C   C29       1.0  0.73879  0.08831  0.75299  1.0000
  C   C30       1.0  0.26121  0.91169  0.24701  1.0000
  C   C31       1.0  0.67820  0.04391  0.87832  1.0000
  C   C32       1.0  0.32180  0.95609  0.12169  1.0000
  C   C33       1.0  0.68612  0.14872  0.92917  1.0000
  C   C34       1.0  0.31388  0.85128  0.07083  1.0000
  C   C35       1.0  0.81470  0.25430  0.00470  1.0000
  C   C36       1.0  0.18530  0.74570  0.99530  1.0000
  C   C37       1.0  0.70778  0.34936  0.00994  1.0000
  C   C38       1.0  0.29222  0.65064  0.99006  1.0000
  C   C39       1.0  0.58358  0.34189  0.97341  1.0000
  C   C40       1.0  0.41642  0.65811  0.02659  1.0000
  C   C41       1.0  0.57327  0.24077  0.93248  1.0000
  C   C42       1.0  0.42673  0.75923  0.06752  1.0000
  Se  Se1       1.0  0.46345  0.91733  0.73361  1.0000
  Se  Se2       1.0  0.53655  0.08267  0.26639  1.0000
  N   N1        1.0  0.49995  0.27869  0.62556  1.0000
  N   N2        1.0  0.50005  0.72131  0.37444  1.0000
  N   N3        1.0  0.82896  0.56836  0.72544  1.0000
  N   N4        1.0  0.17104  0.43164  0.27456  1.0000
  N   N5        1.0  0.80489  0.15539  0.96629  1.0000
  N   N6        1.0  0.19511  0.84461  0.03371  1.0000
  Cl  Cl1       1.0  0.15429  0.20492  0.58132  1.0000
  Cl  Cl2       1.0  0.84571  0.79508  0.41868  1.0000
  Cl  Cl3       1.0  0.06554  0.94020  0.81235  1.0000
  Cl  Cl4       1.0  0.93446  0.05980  0.18765  1.0000
  Cl  Cl5       1.0  0.21439  0.18378  0.89693  1.0000
  Cl  Cl6       1.0  0.78561  0.81622  0.10307  1.0000
