data_image0
_chemical_formula_structural       Cu4H32C56N16Cl16O16
_chemical_formula_sum              "Cu4 H32 C56 N16 Cl16 O16"
_cell_length_a       11.9344
_cell_length_b       12.3201
_cell_length_c       13.074
_cell_angle_alpha    114.156
_cell_angle_beta     90
_cell_angle_gamma    90

_space_group_name_H-M_alt    "P 1"
_space_group_IT_number       1

loop_
  _space_group_symop_operation_xyz
  'x, y, z'

loop_
  _atom_site_type_symbol
  _atom_site_label
  _atom_site_symmetry_multiplicity
  _atom_site_fract_x
  _atom_site_fract_y
  _atom_site_fract_z
  _atom_site_occupancy
  Cu  Cu1       1.0  0.29808  0.92860  0.82996  1.0000
  Cu  Cu2       1.0  0.20195  0.92859  0.32999  1.0000
  Cu  Cu3       1.0  0.70195  0.07142  0.17000  1.0000
  Cu  Cu4       1.0  0.79808  0.07140  0.67005  1.0000
  H   H1        1.0  0.54286  0.92219  0.88434  1.0000
  H   H2        1.0  0.95719  0.92219  0.38443  1.0000
  H   H3        1.0  0.45719  0.07782  0.11555  1.0000
  H   H4        1.0  0.04285  0.07780  0.61567  1.0000
  H   H5        1.0  0.68591  0.75949  0.78862  1.0000
  H   H6        1.0  0.81413  0.75954  0.28864  1.0000
  H   H7        1.0  0.31413  0.24046  0.21137  1.0000
  H   H8        1.0  0.18591  0.24051  0.71137  1.0000
  H   H9        1.0  0.56584  0.57127  0.63518  1.0000
  H   H10       1.0  0.93418  0.57133  0.13515  1.0000
  H   H11       1.0  0.43418  0.42866  0.36487  1.0000
  H   H12       1.0  0.06584  0.42873  0.86480  1.0000
  H   H13       1.0  0.34868  0.65869  0.65937  1.0000
  H   H14       1.0  0.15136  0.65872  0.15940  1.0000
  H   H15       1.0  0.65137  0.34127  0.34059  1.0000
  H   H16       1.0  0.84868  0.34131  0.84063  1.0000
  H   H17       1.0  0.21935  0.02676  0.07317  1.0000
  H   H18       1.0  0.28062  0.02671  0.57315  1.0000
  H   H19       1.0  0.78062  0.97329  0.92684  1.0000
  H   H20       1.0  0.71934  0.97324  0.42682  1.0000
  H   H21       1.0  0.07509  0.05018  0.79870  1.0000
  H   H22       1.0  0.42493  0.05014  0.29870  1.0000
  H   H23       1.0  0.92493  0.94987  0.20130  1.0000
  H   H24       1.0  0.57511  0.94982  0.70131  1.0000
  H   H25       1.0  0.94986  0.19292  0.98153  1.0000
  H   H26       1.0  0.55012  0.19290  0.48156  1.0000
  H   H27       1.0  0.05011  0.80710  0.01845  1.0000
  H   H28       1.0  0.44986  0.80709  0.51848  1.0000
  H   H29       1.0  0.05853  0.17022  0.16048  1.0000
  H   H30       1.0  0.44142  0.17020  0.66050  1.0000
  H   H31       1.0  0.94142  0.82979  0.83950  1.0000
  H   H32       1.0  0.55853  0.82977  0.33952  1.0000
  C   C1        1.0  0.09356  0.75194  0.53999  1.0000
  C   C2        1.0  0.40642  0.75199  0.04002  1.0000
  C   C3        1.0  0.90643  0.24802  0.45997  1.0000
  C   C4        1.0  0.59357  0.24806  0.96001  1.0000
  C   C5        1.0  0.14470  0.64932  0.46191  1.0000
  C   C6        1.0  0.35528  0.64938  0.96192  1.0000
  C   C7        1.0  0.85530  0.35063  0.53808  1.0000
  C   C8        1.0  0.64470  0.35067  0.03809  1.0000
  C   C9        1.0  0.08063  0.55242  0.39054  1.0000
  C   C10       1.0  0.41934  0.55249  0.89058  1.0000
  C   C11       1.0  0.91935  0.44751  0.60943  1.0000
  C   C12       1.0  0.58063  0.44757  0.10946  1.0000
  C   C13       1.0  0.96312  0.55677  0.40049  1.0000
  C   C14       1.0  0.53686  0.55683  0.90055  1.0000
  C   C15       1.0  0.03687  0.44317  0.59945  1.0000
  C   C16       1.0  0.46313  0.44322  0.09951  1.0000
  C   C17       1.0  0.91178  0.66161  0.47570  1.0000
  C   C18       1.0  0.58820  0.66163  0.97576  1.0000
  C   C19       1.0  0.08821  0.33837  0.52424  1.0000
  C   C20       1.0  0.41179  0.33839  0.02430  1.0000
  C   C21       1.0  0.97646  0.75990  0.54279  1.0000
  C   C22       1.0  0.52352  0.75993  0.04288  1.0000
  C   C23       1.0  0.02352  0.24008  0.45712  1.0000
  C   C24       1.0  0.47646  0.24010  0.95722  1.0000
  C   C25       1.0  0.16354  0.85132  0.62442  1.0000
  C   C26       1.0  0.33646  0.85135  0.12447  1.0000
  C   C27       1.0  0.83646  0.14866  0.37552  1.0000
  C   C28       1.0  0.66354  0.14867  0.87558  1.0000
  C   C29       1.0  0.91758  0.87421  0.61521  1.0000
  C   C30       1.0  0.58240  0.87424  0.11530  1.0000
  C   C31       1.0  0.08240  0.12576  0.38470  1.0000
  C   C32       1.0  0.41758  0.12578  0.88479  1.0000
  C   C33       1.0  0.59753  0.75100  0.76791  1.0000
  C   C34       1.0  0.90250  0.75104  0.26792  1.0000
  C   C35       1.0  0.40250  0.24896  0.23208  1.0000
  C   C36       1.0  0.09753  0.24899  0.73208  1.0000
  C   C37       1.0  0.53499  0.65801  0.69097  1.0000
  C   C38       1.0  0.96503  0.65806  0.19097  1.0000
  C   C39       1.0  0.46504  0.34194  0.30904  1.0000
  C   C40       1.0  0.03499  0.34199  0.80902  1.0000
  C   C41       1.0  0.42473  0.70082  0.70267  1.0000
  C   C42       1.0  0.07530  0.70085  0.20269  1.0000
  C   C43       1.0  0.57531  0.29916  0.29730  1.0000
  C   C44       1.0  0.92473  0.29918  0.79733  1.0000
  C   C45       1.0  0.08632  0.06942  0.88646  1.0000
  C   C46       1.0  0.41368  0.06939  0.38647  1.0000
  C   C47       1.0  0.91369  0.93062  0.11354  1.0000
  C   C48       1.0  0.58633  0.93058  0.61354  1.0000
  C   C49       1.0  0.02452  0.14271  0.98053  1.0000
  C   C50       1.0  0.47546  0.14268  0.48055  1.0000
  C   C51       1.0  0.97546  0.85732  0.01946  1.0000
  C   C52       1.0  0.52452  0.85729  0.51947  1.0000
  C   C53       1.0  0.07750  0.13394  0.07163  1.0000
  C   C54       1.0  0.42248  0.13391  0.57164  1.0000
  C   C55       1.0  0.92247  0.86609  0.92836  1.0000
  C   C56       1.0  0.57750  0.86606  0.42837  1.0000
  N   N1        1.0  0.42054  0.81312  0.78173  1.0000
  N   N2        1.0  0.07950  0.81314  0.28179  1.0000
  N   N3        1.0  0.57951  0.18687  0.21820  1.0000
  N   N4        1.0  0.92054  0.18687  0.71828  1.0000
  N   N5        1.0  0.52625  0.84147  0.82042  1.0000
  N   N6        1.0  0.97378  0.84149  0.32046  1.0000
  N   N7        1.0  0.47379  0.15852  0.17953  1.0000
  N   N8        1.0  0.02625  0.15852  0.67959  1.0000
  N   N9        1.0  0.17179  0.01929  0.91812  1.0000
  N   N10       1.0  0.32821  0.01925  0.41812  1.0000
  N   N11       1.0  0.82822  0.98077  0.08188  1.0000
  N   N12       1.0  0.67180  0.98071  0.58188  1.0000
  N   N13       1.0  0.16606  0.06054  0.03127  1.0000
  N   N14       1.0  0.33393  0.06050  0.53127  1.0000
  N   N15       1.0  0.83393  0.93950  0.96873  1.0000
  N   N16       1.0  0.66606  0.93945  0.46873  1.0000
  Cl  Cl1       1.0  0.28852  0.64354  0.45041  1.0000
  Cl  Cl2       1.0  0.21146  0.64364  0.95040  1.0000
  Cl  Cl3       1.0  0.71147  0.35637  0.54961  1.0000
  Cl  Cl4       1.0  0.78852  0.35645  0.04959  1.0000
  Cl  Cl5       1.0  0.14373  0.43057  0.29038  1.0000
  Cl  Cl6       1.0  0.35625  0.43064  0.79039  1.0000
  Cl  Cl7       1.0  0.85627  0.56936  0.70962  1.0000
  Cl  Cl8       1.0  0.64374  0.56943  0.20961  1.0000
  Cl  Cl9       1.0  0.88473  0.43661  0.31878  1.0000
  Cl  Cl10      1.0  0.61525  0.43664  0.81887  1.0000
  Cl  Cl11      1.0  0.11526  0.56335  0.68113  1.0000
  Cl  Cl12      1.0  0.38473  0.56339  0.18122  1.0000
  Cl  Cl13      1.0  0.76795  0.67135  0.48469  1.0000
  Cl  Cl14      1.0  0.73202  0.67139  0.98480  1.0000
  Cl  Cl15      1.0  0.23203  0.32860  0.51519  1.0000
  Cl  Cl16      1.0  0.26796  0.32865  0.01531  1.0000
  O   O1        1.0  0.20319  0.82342  0.70186  1.0000
  O   O2        1.0  0.29685  0.82347  0.20191  1.0000
  O   O3        1.0  0.79685  0.17655  0.29808  1.0000
  O   O4        1.0  0.70319  0.17657  0.79815  1.0000
  O   O5        1.0  0.17391  0.94777  0.61465  1.0000
  O   O6        1.0  0.32603  0.94779  0.11468  1.0000
  O   O7        1.0  0.82602  0.05222  0.38530  1.0000
  O   O8        1.0  0.67390  0.05221  0.88534  1.0000
  O   O9        1.0  0.88584  0.89422  0.71182  1.0000
  O   O10       1.0  0.61402  0.89431  0.21195  1.0000
  O   O11       1.0  0.11402  0.10569  0.28805  1.0000
  O   O12       1.0  0.38585  0.10578  0.78819  1.0000
  O   O13       1.0  0.90272  0.94555  0.56569  1.0000
  O   O14       1.0  0.59737  0.94550  0.06574  1.0000
  O   O15       1.0  0.09736  0.05449  0.43427  1.0000
  O   O16       1.0  0.40271  0.05444  0.93431  1.0000
