data_image0
_chemical_formula_structural       Sn2H62C50N2O6
_chemical_formula_sum              "Sn2 H62 C50 N2 O6"
_cell_length_a       9.40724
_cell_length_b       11.1787
_cell_length_c       11.4277
_cell_angle_alpha    90
_cell_angle_beta     90
_cell_angle_gamma    108.944

_space_group_name_H-M_alt    "P 1"
_space_group_IT_number       1

loop_
  _space_group_symop_operation_xyz
  'x, y, z'

loop_
  _atom_site_type_symbol
  _atom_site_label
  _atom_site_symmetry_multiplicity
  _atom_site_fract_x
  _atom_site_fract_y
  _atom_site_fract_z
  _atom_site_occupancy
  Sn  Sn1       1.0  0.53884  0.07785  0.19576  1.0000
  Sn  Sn2       1.0  0.46116  0.92215  0.69576  1.0000
  H   H1        1.0  0.88391  0.16158  0.41671  1.0000
  H   H2        1.0  0.11608  0.83842  0.91672  1.0000
  H   H3        1.0  0.98549  0.28334  0.03197  1.0000
  H   H4        1.0  0.01450  0.71666  0.53197  1.0000
  H   H5        1.0  0.84407  0.38338  0.38661  1.0000
  H   H6        1.0  0.15593  0.61662  0.88661  1.0000
  H   H7        1.0  0.66295  0.30954  0.44261  1.0000
  H   H8        1.0  0.33705  0.69046  0.94261  1.0000
  H   H9        1.0  0.79427  0.25095  0.62378  1.0000
  H   H10       1.0  0.20573  0.74904  0.12378  1.0000
  H   H11       1.0  0.06623  0.45573  0.51827  1.0000
  H   H12       1.0  0.93376  0.54427  0.01827  1.0000
  H   H13       1.0  0.05122  0.29407  0.53937  1.0000
  H   H14       1.0  0.94878  0.70593  0.03937  1.0000
  H   H15       1.0  0.05737  0.39241  0.66154  1.0000
  H   H16       1.0  0.94262  0.60759  0.16154  1.0000
  H   H17       1.0  0.84487  0.47436  0.70590  1.0000
  H   H18       1.0  0.15512  0.52564  0.20590  1.0000
  H   H19       1.0  0.66976  0.41377  0.63193  1.0000
  H   H20       1.0  0.33023  0.58623  0.13193  1.0000
  H   H21       1.0  0.82425  0.52512  0.56161  1.0000
  H   H22       1.0  0.17574  0.47488  0.06161  1.0000
  H   H23       1.0  0.33200  0.17490  0.13559  1.0000
  H   H24       1.0  0.66800  0.82511  0.63559  1.0000
  H   H25       1.0  0.27456  0.09385  0.27089  1.0000
  H   H26       1.0  0.72544  0.90615  0.77089  1.0000
  H   H27       1.0  0.48334  0.82790  0.18095  1.0000
  H   H28       1.0  0.51666  0.17210  0.68095  1.0000
  H   H29       1.0  0.58892  0.90396  0.05636  1.0000
  H   H30       1.0  0.41108  0.09604  0.55636  1.0000
  H   H31       1.0  0.05761  0.33150  0.32040  1.0000
  H   H32       1.0  0.94239  0.66850  0.82040  1.0000
  H   H33       1.0  0.12580  0.29255  0.18601  1.0000
  H   H34       1.0  0.87420  0.70745  0.68601  1.0000
  H   H35       1.0  0.05123  0.17401  0.29344  1.0000
  H   H36       1.0  0.94876  0.82599  0.79344  1.0000
  H   H37       1.0  0.70072  0.21786  0.82940  1.0000
  H   H38       1.0  0.29927  0.78214  0.32940  1.0000
  H   H39       1.0  0.88504  0.32543  0.85810  1.0000
  H   H40       1.0  0.11495  0.67457  0.35810  1.0000
  H   H41       1.0  0.72134  0.37110  0.88170  1.0000
  H   H42       1.0  0.27866  0.62890  0.38170  1.0000
  H   H43       1.0  0.28659  0.21293  0.44426  1.0000
  H   H44       1.0  0.71341  0.78708  0.94425  1.0000
  H   H45       1.0  0.37018  0.41459  0.55281  1.0000
  H   H46       1.0  0.62982  0.58541  0.05282  1.0000
  H   H47       1.0  0.55216  0.60710  0.46172  1.0000
  H   H48       1.0  0.44785  0.39290  0.96173  1.0000
  H   H49       1.0  0.64964  0.59329  0.26176  1.0000
  H   H50       1.0  0.35036  0.40671  0.76176  1.0000
  H   H51       1.0  0.56639  0.38884  0.15329  1.0000
  H   H52       1.0  0.43361  0.61116  0.65329  1.0000
  H   H53       1.0  0.62176  0.82910  0.37465  1.0000
  H   H54       1.0  0.37824  0.17090  0.87465  1.0000
  H   H55       1.0  0.85925  0.82945  0.46865  1.0000
  H   H56       1.0  0.14075  0.17055  0.96865  1.0000
  H   H57       1.0  0.09782  0.89188  0.35497  1.0000
  H   H58       1.0  0.90218  0.10812  0.85497  1.0000
  H   H59       1.0  0.09635  0.95195  0.14415  1.0000
  H   H60       1.0  0.90365  0.04805  0.64415  1.0000
  H   H61       1.0  0.86092  0.96034  0.05319  1.0000
  H   H62       1.0  0.13908  0.03966  0.55320  1.0000
  C   C1        1.0  0.65055  0.07327  0.44702  1.0000
  C   C2        1.0  0.34945  0.92673  0.94703  1.0000
  C   C3        1.0  0.77979  0.17990  0.39276  1.0000
  C   C4        1.0  0.22021  0.82010  0.89277  1.0000
  C   C5        1.0  0.88410  0.22730  0.19887  1.0000
  C   C6        1.0  0.11590  0.77270  0.69887  1.0000
  C   C7        1.0  0.87789  0.24829  0.07665  1.0000
  C   C8        1.0  0.12211  0.75171  0.57665  1.0000
  C   C9        1.0  0.77899  0.30727  0.44574  1.0000
  C   C10       1.0  0.22101  0.69273  0.94574  1.0000
  C   C11       1.0  0.84214  0.33642  0.57011  1.0000
  C   C12       1.0  0.15786  0.66358  0.07011  1.0000
  C   C13       1.0  0.01344  0.37115  0.57203  1.0000
  C   C14       1.0  0.98656  0.62885  0.07203  1.0000
  C   C15       1.0  0.79227  0.44296  0.62072  1.0000
  C   C16       1.0  0.20773  0.55704  0.12072  1.0000
  C   C17       1.0  0.75184  0.24415  0.01112  1.0000
  C   C18       1.0  0.24815  0.75585  0.51112  1.0000
  C   C19       1.0  0.36663  0.16460  0.22561  1.0000
  C   C20       1.0  0.63338  0.83541  0.72561  1.0000
  C   C21       1.0  0.58470  0.90294  0.15209  1.0000
  C   C22       1.0  0.41530  0.09706  0.65209  1.0000
  C   C23       1.0  0.03816  0.25868  0.25226  1.0000
  C   C24       1.0  0.96184  0.74132  0.75226  1.0000
  C   C25       1.0  0.76808  0.29299  0.88794  1.0000
  C   C26       1.0  0.23192  0.70701  0.38794  1.0000
  C   C27       1.0  0.41953  0.28645  0.29049  1.0000
  C   C28       1.0  0.58047  0.71355  0.79049  1.0000
  C   C29       1.0  0.36670  0.29607  0.40387  1.0000
  C   C30       1.0  0.63331  0.70393  0.90387  1.0000
  C   C31       1.0  0.41358  0.41022  0.46504  1.0000
  C   C32       1.0  0.58642  0.58978  0.96504  1.0000
  C   C33       1.0  0.51535  0.51771  0.41418  1.0000
  C   C34       1.0  0.48466  0.48229  0.91418  1.0000
  C   C35       1.0  0.56964  0.50959  0.30155  1.0000
  C   C36       1.0  0.43036  0.49041  0.80155  1.0000
  C   C37       1.0  0.52243  0.39544  0.24051  1.0000
  C   C38       1.0  0.47758  0.60456  0.74052  1.0000
  C   C39       1.0  0.72404  0.89461  0.20697  1.0000
  C   C40       1.0  0.27596  0.10539  0.70697  1.0000
  C   C41       1.0  0.72576  0.85613  0.32403  1.0000
  C   C42       1.0  0.27424  0.14387  0.82402  1.0000
  C   C43       1.0  0.85957  0.85626  0.37679  1.0000
  C   C44       1.0  0.14043  0.14374  0.87678  1.0000
  C   C45       1.0  0.99368  0.89182  0.31310  1.0000
  C   C46       1.0  0.00632  0.10817  0.81310  1.0000
  C   C47       1.0  0.99304  0.92678  0.19558  1.0000
  C   C48       1.0  0.00696  0.07322  0.69558  1.0000
  C   C49       1.0  0.85981  0.92922  0.14390  1.0000
  C   C50       1.0  0.14019  0.07078  0.64390  1.0000
  N   N1        1.0  0.76319  0.18338  0.26589  1.0000
  N   N2        1.0  0.23681  0.81662  0.76589  1.0000
  O   O1        1.0  0.52793  0.03032  0.38806  1.0000
  O   O2        1.0  0.47207  0.96968  0.88807  1.0000
  O   O3        1.0  0.66931  0.03813  0.54879  1.0000
  O   O4        1.0  0.33069  0.96187  0.04879  1.0000
  O   O5        1.0  0.61409  0.20377  0.04911  1.0000
  O   O6        1.0  0.38591  0.79622  0.54912  1.0000
