data_image0
_chemical_formula_structural       Fe2H42C62S4N22O4
_chemical_formula_sum              "Fe2 H42 C62 S4 N22 O4"
_cell_length_a       11.9868
_cell_length_b       12.7896
_cell_length_c       13.168
_cell_angle_alpha    83.9433
_cell_angle_beta     65.7226
_cell_angle_gamma    86.829

_space_group_name_H-M_alt    "P 1"
_space_group_IT_number       1

loop_
  _space_group_symop_operation_xyz
  'x, y, z'

loop_
  _atom_site_type_symbol
  _atom_site_label
  _atom_site_symmetry_multiplicity
  _atom_site_fract_x
  _atom_site_fract_y
  _atom_site_fract_z
  _atom_site_occupancy
  Fe  Fe1       1.0  0.00009  0.99947  1.00000  1.0000
  Fe  Fe2       1.0  0.48302  0.50421  0.50984  1.0000
  H   H1        1.0  0.24242  0.80751  0.19401  1.0000
  H   H2        1.0  0.75709  0.19231  0.80563  1.0000
  H   H3        1.0  0.97910  0.78364  0.95430  1.0000
  H   H4        1.0  0.02065  0.21538  0.04587  1.0000
  H   H5        1.0  0.14469  0.03573  0.12509  1.0000
  H   H6        1.0  0.85568  0.96357  0.87477  1.0000
  H   H7        1.0  0.98906  0.06451  0.39995  1.0000
  H   H8        1.0  0.01083  0.93446  0.60069  1.0000
  H   H9        1.0  0.40965  0.66924  0.37445  1.0000
  H   H10       1.0  0.59914  0.32857  0.63435  1.0000
  H   H11       1.0  0.48468  0.16941  0.88326  1.0000
  H   H12       1.0  0.51502  0.83079  0.11623  1.0000
  H   H13       1.0  0.28626  0.94285  0.60108  1.0000
  H   H14       1.0  0.71402  0.05562  0.39899  1.0000
  H   H15       1.0  0.22777  0.75693  0.60963  1.0000
  H   H16       1.0  0.77146  0.24164  0.39056  1.0000
  H   H17       1.0  0.34692  0.10940  0.08472  1.0000
  H   H18       1.0  0.65323  0.89063  0.91485  1.0000
  H   H19       1.0  0.01709  0.64680  0.49254  1.0000
  H   H20       1.0  0.99294  0.35505  0.49277  1.0000
  H   H21       1.0  0.40783  0.14863  0.73437  1.0000
  H   H22       1.0  0.59177  0.85106  0.26528  1.0000
  H   H23       1.0  0.06922  0.91377  0.28543  1.0000
  H   H24       1.0  0.93046  0.08535  0.71505  1.0000
  H   H25       1.0  0.06942  0.67466  0.79221  1.0000
  H   H26       1.0  0.92998  0.32423  0.20802  1.0000
  H   H27       1.0  0.52608  0.55289  0.70142  1.0000
  H   H28       1.0  0.47007  0.45661  0.28807  1.0000
  H   H29       1.0  0.42566  0.95509  0.28184  1.0000
  H   H30       1.0  0.57441  0.04426  0.71770  1.0000
  H   H31       1.0  0.02767  0.49249  0.62537  1.0000
  H   H32       1.0  0.97061  0.50960  0.36576  1.0000
  H   H33       1.0  0.21236  0.43849  0.99540  1.0000
  H   H34       1.0  0.80058  0.55731  0.00437  1.0000
  H   H35       1.0  0.12259  0.38624  0.86452  1.0000
  H   H36       1.0  0.88058  0.60870  0.14214  1.0000
  H   H37       1.0  0.21640  0.73508  0.36407  1.0000
  H   H38       1.0  0.80112  0.26251  0.62857  1.0000
  H   H39       1.0  0.34559  0.10493  0.39713  1.0000
  H   H40       1.0  0.65449  0.89408  0.60312  1.0000
  H   H41       1.0  0.41893  0.52467  0.90977  1.0000
  H   H42       1.0  0.59131  0.47782  0.07987  1.0000
  C   C1        1.0  0.18969  0.14438  0.69344  1.0000
  C   C2        1.0  0.80859  0.85465  0.30755  1.0000
  C   C3        1.0  0.92582  0.19423  0.88294  1.0000
  C   C4        1.0  0.07324  0.80484  0.11808  1.0000
  C   C5        1.0  0.16029  0.96068  0.77084  1.0000
  C   C6        1.0  0.83995  0.03800  0.22915  1.0000
  C   C7        1.0  0.14862  0.20128  0.54559  1.0000
  C   C8        1.0  0.84947  0.79789  0.45557  1.0000
  C   C9        1.0  0.19854  0.31608  0.63604  1.0000
  C   C10       1.0  0.79417  0.68353  0.36825  1.0000
  C   C11       1.0  0.22209  0.50097  0.56623  1.0000
  C   C12       1.0  0.77453  0.49874  0.43727  1.0000
  C   C13       1.0  0.04545  0.81606  0.87364  1.0000
  C   C14       1.0  0.95438  0.18283  0.12652  1.0000
  C   C15       1.0  0.16282  0.09446  0.40352  1.0000
  C   C16       1.0  0.83728  0.90460  0.59672  1.0000
  C   C17       1.0  0.23738  0.08468  0.85329  1.0000
  C   C18       1.0  0.76257  0.91442  0.14661  1.0000
  C   C19       1.0  0.20522  0.06374  0.04030  1.0000
  C   C20       1.0  0.79501  0.93561  0.95952  1.0000
  C   C21       1.0  0.08499  0.04126  0.37292  1.0000
  C   C22       1.0  0.91494  0.95781  0.62749  1.0000
  C   C23       1.0  0.32320  0.63139  0.42691  1.0000
  C   C24       1.0  0.68387  0.36719  0.57766  1.0000
  C   C25       1.0  0.39354  0.13899  0.90575  1.0000
  C   C26       1.0  0.60627  0.86088  0.09386  1.0000
  C   C27       1.0  0.21616  0.90534  0.67648  1.0000
  C   C28       1.0  0.78388  0.09326  0.32357  1.0000
  C   C29       1.0  0.18357  0.80157  0.68226  1.0000
  C   C30       1.0  0.81610  0.19711  0.31791  1.0000
  C   C31       1.0  0.31840  0.10540  0.01660  1.0000
  C   C32       1.0  0.68167  0.89438  0.98306  1.0000
  C   C33       1.0  0.25407  0.92619  0.27306  1.0000
  C   C34       1.0  0.74584  0.07334  0.72666  1.0000
  C   C35       1.0  0.10428  0.61893  0.49341  1.0000
  C   C36       1.0  0.90303  0.38181  0.49774  1.0000
  C   C37       1.0  0.35244  0.12754  0.82295  1.0000
  C   C38       1.0  0.64732  0.87204  0.17676  1.0000
  C   C39       1.0  0.27886  0.43943  0.71854  1.0000
  C   C40       1.0  0.71562  0.56119  0.28376  1.0000
  C   C41       1.0  0.13067  0.95640  0.30800  1.0000
  C   C42       1.0  0.86913  0.04279  0.69224  1.0000
  C   C43       1.0  0.09669  0.75619  0.78308  1.0000
  C   C44       1.0  0.90292  0.24264  0.21713  1.0000
  C   C45       1.0  0.43787  0.51439  0.74226  1.0000
  C   C46       1.0  0.56058  0.49155  0.25080  1.0000
  C   C47       1.0  0.33053  0.97972  0.30647  1.0000
  C   C48       1.0  0.66949  0.01956  0.69332  1.0000
  C   C49       1.0  0.10923  0.53427  0.56690  1.0000
  C   C50       1.0  0.89158  0.46683  0.42747  1.0000
  C   C51       1.0  0.26252  0.45065  0.90494  1.0000
  C   C52       1.0  0.74486  0.54744  0.09418  1.0000
  C   C53       1.0  0.21241  0.42173  0.83388  1.0000
  C   C54       1.0  0.78978  0.57590  0.16924  1.0000
  C   C55       1.0  0.51094  0.74157  0.50674  1.0000
  C   C56       1.0  0.47851  0.26548  0.50069  1.0000
  C   C57       1.0  0.21402  0.66793  0.42259  1.0000
  C   C58       1.0  0.79697  0.33052  0.57343  1.0000
  C   C59       1.0  0.28534  0.06408  0.37121  1.0000
  C   C60       1.0  0.71475  0.93501  0.62896  1.0000
  C   C61       1.0  0.37715  0.49839  0.85765  1.0000
  C   C62       1.0  0.62851  0.50348  0.13578  1.0000
  S   S1        1.0  0.87889  0.29991  0.83055  1.0000
  S   S2        1.0  0.11886  0.69919  0.17173  1.0000
  S   S3        1.0  0.51416  0.86862  0.48768  1.0000
  S   S4        1.0  0.48765  0.13830  0.51240  1.0000
  N   N1        1.0  0.19667  0.06455  0.77003  1.0000
  N   N2        1.0  0.80337  0.93422  0.22992  1.0000
  N   N3        1.0  0.96065  0.11610  0.91810  1.0000
  N   N4        1.0  0.03936  0.88293  0.08201  1.0000
  N   N5        1.0  0.07451  0.91816  0.86829  1.0000
  N   N6        1.0  0.92561  0.08067  0.13175  1.0000
  N   N7        1.0  0.22727  0.41735  0.64389  1.0000
  N   N8        1.0  0.76172  0.58314  0.36295  1.0000
  N   N9        1.0  0.16483  0.30213  0.55289  1.0000
  N   N10       1.0  0.82934  0.69744  0.45062  1.0000
  N   N11       1.0  0.21226  0.24137  0.70884  1.0000
  N   N12       1.0  0.78231  0.75811  0.29431  1.0000
  N   N13       1.0  0.16302  0.05497  0.96053  1.0000
  N   N14       1.0  0.83713  0.94408  0.03941  1.0000
  N   N15       1.0  0.15713  0.11885  0.61311  1.0000
  N   N16       1.0  0.84316  0.88001  0.38670  1.0000
  N   N17       1.0  0.51083  0.64811  0.51839  1.0000
  N   N18       1.0  0.47039  0.35868  0.49366  1.0000
  N   N19       1.0  0.32933  0.54756  0.49746  1.0000
  N   N20       1.0  0.67245  0.45140  0.51169  1.0000
  N   N21       1.0  0.39139  0.48352  0.67185  1.0000
  N   N22       1.0  0.60234  0.52196  0.32372  1.0000
  O   O1        1.0  0.11819  0.18533  0.46005  1.0000
  O   O2        1.0  0.88186  0.81391  0.53998  1.0000
  O   O3        1.0  0.30518  0.84552  0.20690  1.0000
  O   O4        1.0  0.69466  0.15444  0.79209  1.0000
