data_image0
_chemical_formula_structural       Fe2H42C62S4N22O2
_chemical_formula_sum              "Fe2 H42 C62 S4 N22 O2"
_cell_length_a       11.7332
_cell_length_b       12.6608
_cell_length_c       12.894
_cell_angle_alpha    84.5303
_cell_angle_beta     67.9668
_cell_angle_gamma    87.4761

_space_group_name_H-M_alt    "P 1"
_space_group_IT_number       1

loop_
  _space_group_symop_operation_xyz
  'x, y, z'

loop_
  _atom_site_type_symbol
  _atom_site_label
  _atom_site_symmetry_multiplicity
  _atom_site_fract_x
  _atom_site_fract_y
  _atom_site_fract_z
  _atom_site_occupancy
  Fe  Fe1       1.0  0.99987  0.00066  0.99985  1.0000
  Fe  Fe2       1.0  0.51652  0.49546  0.48951  1.0000
  H   H1        1.0  0.98055  0.78263  0.94980  1.0000
  H   H2        1.0  0.01972  0.21848  0.04984  1.0000
  H   H3        1.0  0.14318  0.04042  0.13364  1.0000
  H   H4        1.0  0.85649  0.96006  0.86620  1.0000
  H   H5        1.0  0.40705  0.15894  0.74739  1.0000
  H   H6        1.0  0.59344  0.84151  0.25279  1.0000
  H   H7        1.0  0.29222  0.94377  0.60460  1.0000
  H   H8        1.0  0.70786  0.05776  0.39528  1.0000
  H   H9        1.0  0.98811  0.05576  0.39687  1.0000
  H   H10       1.0  0.01192  0.94505  0.60252  1.0000
  H   H11       1.0  0.47864  0.18833  0.90471  1.0000
  H   H12       1.0  0.52178  0.81133  0.09566  1.0000
  H   H13       1.0  0.06973  0.90149  0.28392  1.0000
  H   H14       1.0  0.93059  0.09910  0.71586  1.0000
  H   H15       1.0  0.12252  0.40218  0.86154  1.0000
  H   H16       1.0  0.87267  0.60232  0.13256  1.0000
  H   H17       1.0  0.34164  0.12341  0.10340  1.0000
  H   H18       1.0  0.65835  0.87623  0.89685  1.0000
  H   H19       1.0  0.53833  0.55292  0.71405  1.0000
  H   H20       1.0  0.46428  0.43803  0.29856  1.0000
  H   H21       1.0  0.02768  0.50027  0.63470  1.0000
  H   H22       1.0  0.97559  0.49987  0.37484  1.0000
  H   H23       1.0  0.29137  0.85483  0.21934  1.0000
  H   H24       1.0  0.70862  0.14496  0.78189  1.0000
  H   H25       1.0  0.23488  0.75597  0.60892  1.0000
  H   H26       1.0  0.76656  0.24540  0.39092  1.0000
  H   H27       1.0  0.40227  0.66245  0.35261  1.0000
  H   H28       1.0  0.59006  0.33773  0.63658  1.0000
  H   H29       1.0  0.35054  0.11004  0.39283  1.0000
  H   H30       1.0  0.64923  0.89095  0.60700  1.0000
  H   H31       1.0  0.07338  0.67264  0.78771  1.0000
  H   H32       1.0  0.92771  0.32843  0.21202  1.0000
  H   H33       1.0  0.20962  0.46053  0.99918  1.0000
  H   H34       1.0  0.77548  0.54343  0.00194  1.0000
  H   H35       1.0  0.19780  0.72717  0.35035  1.0000
  H   H36       1.0  0.78670  0.27485  0.65503  1.0000
  H   H37       1.0  0.42154  0.53859  0.92300  1.0000
  H   H38       1.0  0.56637  0.45895  0.08927  1.0000
  H   H39       1.0  0.00547  0.64524  0.49494  1.0000
  H   H40       1.0  0.98623  0.35495  0.51983  1.0000
  H   H41       1.0  0.43181  0.95841  0.27801  1.0000
  H   H42       1.0  0.56804  0.04195  0.72293  1.0000
  C   C1        1.0  0.15247  0.20201  0.54147  1.0000
  C   C2        1.0  0.84944  0.79896  0.45716  1.0000
  C   C3        1.0  0.19333  0.14718  0.69405  1.0000
  C   C4        1.0  0.80841  0.85387  0.30476  1.0000
  C   C5        1.0  0.16285  0.96212  0.77217  1.0000
  C   C6        1.0  0.83699  0.03929  0.22760  1.0000
  C   C7        1.0  0.20583  0.31964  0.63324  1.0000
  C   C8        1.0  0.80142  0.68089  0.36245  1.0000
  C   C9        1.0  0.22486  0.50438  0.56122  1.0000
  C   C10       1.0  0.77949  0.49605  0.43509  1.0000
  C   C11       1.0  0.23775  0.08968  0.86052  1.0000
  C   C12       1.0  0.76230  0.91136  0.13931  1.0000
  C   C13       1.0  0.04750  0.81569  0.87065  1.0000
  C   C14       1.0  0.95275  0.18550  0.12902  1.0000
  C   C15       1.0  0.28648  0.44626  0.71956  1.0000
  C   C16       1.0  0.71791  0.55309  0.27935  1.0000
  C   C17       1.0  0.92739  0.20257  0.88450  1.0000
  C   C18       1.0  0.07390  0.79871  0.11379  1.0000
  C   C19       1.0  0.20364  0.07009  0.05021  1.0000
  C   C20       1.0  0.79620  0.93043  0.94969  1.0000
  C   C21       1.0  0.35146  0.13685  0.83525  1.0000
  C   C22       1.0  0.64883  0.86368  0.16483  1.0000
  C   C23       1.0  0.16524  0.09200  0.39895  1.0000
  C   C24       1.0  0.83457  0.90890  0.60080  1.0000
  C   C25       1.0  0.22102  0.90590  0.67814  1.0000
  C   C26       1.0  0.77924  0.09549  0.32172  1.0000
  C   C27       1.0  0.08510  0.03416  0.36996  1.0000
  C   C28       1.0  0.91490  0.96664  0.62969  1.0000
  C   C29       1.0  0.39009  0.15189  0.92233  1.0000
  C   C30       1.0  0.61015  0.84818  0.07787  1.0000
  C   C31       1.0  0.13162  0.94749  0.30680  1.0000
  C   C32       1.0  0.86855  0.05310  0.69319  1.0000
  C   C33       1.0  0.21469  0.43471  0.83434  1.0000
  C   C34       1.0  0.78152  0.56730  0.16357  1.0000
  C   C35       1.0  0.31500  0.11661  0.03198  1.0000
  C   C36       1.0  0.68502  0.88343  0.96817  1.0000
  C   C37       1.0  0.44679  0.51855  0.75181  1.0000
  C   C38       1.0  0.55348  0.47572  0.25696  1.0000
  C   C39       1.0  0.10735  0.53851  0.56949  1.0000
  C   C40       1.0  0.89330  0.46179  0.43625  1.0000
  C   C41       1.0  0.25634  0.92077  0.27173  1.0000
  C   C42       1.0  0.74370  0.07950  0.72884  1.0000
  C   C43       1.0  0.48781  0.25521  0.50238  1.0000
  C   C44       1.0  0.52230  0.73726  0.48962  1.0000
  C   C45       1.0  0.18893  0.80089  0.68155  1.0000
  C   C46       1.0  0.81186  0.20039  0.31826  1.0000
  C   C47       1.0  0.31649  0.62739  0.41143  1.0000
  C   C48       1.0  0.67756  0.37295  0.58260  1.0000
  C   C49       1.0  0.28968  0.06533  0.36701  1.0000
  C   C50       1.0  0.71013  0.93552  0.63294  1.0000
  C   C51       1.0  0.10050  0.75510  0.78007  1.0000
  C   C52       1.0  0.90023  0.24608  0.21965  1.0000
  C   C53       1.0  0.26364  0.46662  0.90922  1.0000
  C   C54       1.0  0.72729  0.53499  0.09279  1.0000
  C   C55       1.0  0.20287  0.66405  0.41187  1.0000
  C   C56       1.0  0.78760  0.33757  0.59099  1.0000
  C   C57       1.0  0.38146  0.51016  0.86717  1.0000
  C   C58       1.0  0.61142  0.48785  0.14103  1.0000
  C   C59       1.0  0.09607  0.61871  0.49235  1.0000
  C   C60       1.0  0.89821  0.38191  0.51627  1.0000
  C   C61       1.0  0.33479  0.97923  0.30292  1.0000
  C   C62       1.0  0.66512  0.02129  0.69760  1.0000
  S   S1        1.0  0.48772  0.12739  0.52636  1.0000
  S   S2        1.0  0.51030  0.86518  0.47331  1.0000
  S   S3        1.0  0.88582  0.31562  0.83802  1.0000
  S   S4        1.0  0.11718  0.68553  0.15836  1.0000
  N   N1        1.0  0.15998  0.11989  0.61131  1.0000
  N   N2        1.0  0.83968  0.88133  0.38862  1.0000
  N   N3        1.0  0.17080  0.30385  0.54769  1.0000
  N   N4        1.0  0.83504  0.69679  0.44865  1.0000
  N   N5        1.0  0.21836  0.24534  0.70891  1.0000
  N   N6        1.0  0.78706  0.75525  0.28784  1.0000
  N   N7        1.0  0.07579  0.91911  0.86741  1.0000
  N   N8        1.0  0.92408  0.08218  0.13228  1.0000
  N   N9        1.0  0.32762  0.54706  0.48364  1.0000
  N   N10       1.0  0.67159  0.45280  0.50615  1.0000
  N   N11       1.0  0.19862  0.06760  0.77333  1.0000
  N   N12       1.0  0.80133  0.93373  0.22647  1.0000
  N   N13       1.0  0.40089  0.48520  0.67931  1.0000
  N   N14       1.0  0.60414  0.50976  0.32695  1.0000
  N   N15       1.0  0.23730  0.42165  0.63944  1.0000
  N   N16       1.0  0.77360  0.57791  0.35414  1.0000
  N   N17       1.0  0.16278  0.05880  0.96654  1.0000
  N   N18       1.0  0.83708  0.94225  0.03324  1.0000
  N   N19       1.0  0.95925  0.11935  0.91587  1.0000
  N   N20       1.0  0.04074  0.88193  0.08372  1.0000
  N   N21       1.0  0.48566  0.34926  0.48705  1.0000
  N   N22       1.0  0.53247  0.64350  0.50022  1.0000
  O   O1        1.0  0.11968  0.18379  0.45432  1.0000
  O   O2        1.0  0.88020  0.81700  0.54543  1.0000
