data_image0
_chemical_formula_structural       Mn4H24C16O24
_chemical_formula_sum              "Mn4 H24 C16 O24"
_cell_length_a       7.59418
_cell_length_b       9.06401
_cell_length_c       9.29168
_cell_angle_alpha    89.9997
_cell_angle_beta     89.9998
_cell_angle_gamma    89.9994

_space_group_name_H-M_alt    "P 1"
_space_group_IT_number       1

loop_
  _space_group_symop_operation_xyz
  'x, y, z'

loop_
  _atom_site_type_symbol
  _atom_site_label
  _atom_site_symmetry_multiplicity
  _atom_site_fract_x
  _atom_site_fract_y
  _atom_site_fract_z
  _atom_site_occupancy
  Mn  Mn1       1.0  0.85561  0.77731  0.75263  1.0000
  Mn  Mn2       1.0  0.64439  0.22269  0.25264  1.0000
  Mn  Mn3       1.0  0.14441  0.27732  0.74737  1.0000
  Mn  Mn4       1.0  0.35559  0.72269  0.24737  1.0000
  H   H1        1.0  0.83659  0.56708  0.52948  1.0000
  H   H2        1.0  0.66339  0.43291  0.02949  1.0000
  H   H3        1.0  0.16340  0.06709  0.97051  1.0000
  H   H4        1.0  0.33661  0.93292  0.47050  1.0000
  H   H5        1.0  0.71681  0.69427  0.46484  1.0000
  H   H6        1.0  0.78319  0.30572  0.96484  1.0000
  H   H7        1.0  0.28318  0.19428  0.03516  1.0000
  H   H8        1.0  0.21682  0.80572  0.53516  1.0000
  H   H9        1.0  0.54659  0.13300  0.82564  1.0000
  H   H10       1.0  0.95343  0.86699  0.32564  1.0000
  H   H11       1.0  0.45341  0.63302  0.67436  1.0000
  H   H12       1.0  0.04658  0.36698  0.17435  1.0000
  H   H13       1.0  0.67451  0.05177  0.96521  1.0000
  H   H14       1.0  0.82551  0.94823  0.46522  1.0000
  H   H15       1.0  0.32550  0.55177  0.53478  1.0000
  H   H16       1.0  0.17449  0.44823  0.03478  1.0000
  H   H17       1.0  0.35521  0.82354  0.84090  1.0000
  H   H18       1.0  0.14481  0.17646  0.34088  1.0000
  H   H19       1.0  0.64479  0.32355  0.65915  1.0000
  H   H20       1.0  0.85520  0.67645  0.15914  1.0000
  H   H21       1.0  0.45989  0.90506  0.99137  1.0000
  H   H22       1.0  0.04013  0.09494  0.49136  1.0000
  H   H23       1.0  0.54015  0.40508  0.50866  1.0000
  H   H24       1.0  0.95984  0.59492  0.00864  1.0000
  C   C1        1.0  0.82210  0.09772  0.77692  1.0000
  C   C2        1.0  0.67790  0.90228  0.27692  1.0000
  C   C3        1.0  0.17789  0.59774  0.72307  1.0000
  C   C4        1.0  0.32210  0.40227  0.22308  1.0000
  C   C5        1.0  0.65214  0.05333  0.84824  1.0000
  C   C6        1.0  0.84786  0.94666  0.34824  1.0000
  C   C7        1.0  0.34785  0.55335  0.65175  1.0000
  C   C8        1.0  0.15214  0.44666  0.15175  1.0000
  C   C9        1.0  0.48264  0.83743  0.89542  1.0000
  C   C10       1.0  0.01737  0.16257  0.39542  1.0000
  C   C11       1.0  0.51736  0.33744  0.60460  1.0000
  C   C12       1.0  0.98262  0.66256  0.10459  1.0000
  C   C13       1.0  0.55547  0.68852  0.94114  1.0000
  C   C14       1.0  0.94455  0.31148  0.44113  1.0000
  C   C15       1.0  0.44454  0.18852  0.55888  1.0000
  C   C16       1.0  0.05544  0.81147  0.05886  1.0000
  O   O1        1.0  0.89914  0.00871  0.69316  1.0000
  O   O2        1.0  0.60087  0.99130  0.19317  1.0000
  O   O3        1.0  0.10085  0.50872  0.80682  1.0000
  O   O4        1.0  0.39914  0.49128  0.30683  1.0000
  O   O5        1.0  0.69122  0.63811  0.87680  1.0000
  O   O6        1.0  0.80878  0.36188  0.37681  1.0000
  O   O7        1.0  0.30878  0.13813  0.62322  1.0000
  O   O8        1.0  0.19121  0.86187  0.12320  1.0000
  O   O9        1.0  0.60368  0.90940  0.79931  1.0000
  O   O10       1.0  0.89631  0.09060  0.29932  1.0000
  O   O11       1.0  0.39630  0.40942  0.70069  1.0000
  O   O12       1.0  0.10368  0.59059  0.20068  1.0000
  O   O13       1.0  0.88071  0.22609  0.80952  1.0000
  O   O14       1.0  0.61929  0.77391  0.30953  1.0000
  O   O15       1.0  0.11928  0.72611  0.69045  1.0000
  O   O16       1.0  0.38071  0.27390  0.19046  1.0000
  O   O17       1.0  0.47638  0.62013  0.04089  1.0000
  O   O18       1.0  0.02365  0.37986  0.54088  1.0000
  O   O19       1.0  0.52363  0.12016  0.45910  1.0000
  O   O20       1.0  0.97637  0.87984  0.95910  1.0000
  O   O21       1.0  0.77420  0.65869  0.55469  1.0000
  O   O22       1.0  0.72579  0.34130  0.05469  1.0000
  O   O23       1.0  0.22580  0.15870  0.94531  1.0000
  O   O24       1.0  0.27422  0.84130  0.44531  1.0000
