data_image0
_chemical_formula_structural       Mn4H48C64N8O20
_chemical_formula_sum              "Mn4 H48 C64 N8 O20"
_cell_length_a       9.46845
_cell_length_b       10.2909
_cell_length_c       18.144
_cell_angle_alpha    90
_cell_angle_beta     90
_cell_angle_gamma    95.7857

_space_group_name_H-M_alt    "P 1"
_space_group_IT_number       1

loop_
  _space_group_symop_operation_xyz
  'x, y, z'

loop_
  _atom_site_type_symbol
  _atom_site_label
  _atom_site_symmetry_multiplicity
  _atom_site_fract_x
  _atom_site_fract_y
  _atom_site_fract_z
  _atom_site_occupancy
  Mn  Mn1       1.0  0.29291  0.80098  0.86014  1.0000
  Mn  Mn2       1.0  0.79289  0.80091  0.63986  1.0000
  Mn  Mn3       1.0  0.70728  0.19903  0.13999  1.0000
  Mn  Mn4       1.0  0.20731  0.19904  0.36000  1.0000
  H   H1        1.0  0.49202  0.06960  0.86435  1.0000
  H   H2        1.0  0.99197  0.06959  0.63561  1.0000
  H   H3        1.0  0.50800  0.93046  0.13579  1.0000
  H   H4        1.0  0.00801  0.93042  0.36424  1.0000
  H   H5        1.0  0.53512  0.26580  0.94813  1.0000
  H   H6        1.0  0.03494  0.26585  0.55186  1.0000
  H   H7        1.0  0.46470  0.73427  0.05199  1.0000
  H   H8        1.0  0.96476  0.73419  0.44803  1.0000
  H   H9        1.0  0.39686  0.27229  0.06362  1.0000
  H   H10       1.0  0.89671  0.27232  0.43636  1.0000
  H   H11       1.0  0.60296  0.72768  0.93650  1.0000
  H   H12       1.0  0.10308  0.72763  0.56352  1.0000
  H   H13       1.0  0.19973  0.16336  0.14580  1.0000
  H   H14       1.0  0.69961  0.16333  0.35417  1.0000
  H   H15       1.0  0.80018  0.83649  0.85432  1.0000
  H   H16       1.0  0.30023  0.83650  0.64569  1.0000
  H   H17       1.0  0.01329  0.98279  0.16756  1.0000
  H   H18       1.0  0.51322  0.98273  0.33241  1.0000
  H   H19       1.0  0.98664  0.01704  0.83252  1.0000
  H   H20       1.0  0.48663  0.01708  0.66750  1.0000
  H   H21       1.0  0.87487  0.77353  0.12205  1.0000
  H   H22       1.0  0.37480  0.77343  0.37795  1.0000
  H   H23       1.0  0.12512  0.22627  0.87797  1.0000
  H   H24       1.0  0.62510  0.22627  0.62205  1.0000
  H   H25       1.0  0.84744  0.59752  0.02776  1.0000
  H   H26       1.0  0.34741  0.59749  0.47229  1.0000
  H   H27       1.0  0.15252  0.40239  0.97221  1.0000
  H   H28       1.0  0.65254  0.40242  0.52780  1.0000
  H   H29       1.0  0.02125  0.60188  0.92301  1.0000
  H   H30       1.0  0.52135  0.60184  0.57698  1.0000
  H   H31       1.0  0.97870  0.39811  0.07696  1.0000
  H   H32       1.0  0.47870  0.39811  0.42304  1.0000
  H   H33       1.0  0.97383  0.62501  0.76612  1.0000
  H   H34       1.0  0.47385  0.62498  0.73388  1.0000
  H   H35       1.0  0.02630  0.37526  0.23381  1.0000
  H   H36       1.0  0.52630  0.37528  0.26621  1.0000
  H   H37       1.0  0.07574  0.63744  0.68369  1.0000
  H   H38       1.0  0.57573  0.63747  0.81630  1.0000
  H   H39       1.0  0.92447  0.36290  0.31626  1.0000
  H   H40       1.0  0.42454  0.36288  0.18374  1.0000
  H   H41       1.0  0.23250  0.45550  0.75216  1.0000
  H   H42       1.0  0.73246  0.45563  0.74796  1.0000
  H   H43       1.0  0.76757  0.54466  0.24780  1.0000
  H   H44       1.0  0.26756  0.54468  0.25219  1.0000
  H   H45       1.0  0.10328  0.46614  0.82275  1.0000
  H   H46       1.0  0.60317  0.46620  0.67739  1.0000
  H   H47       1.0  0.89679  0.53400  0.17720  1.0000
  H   H48       1.0  0.39678  0.53399  0.32279  1.0000
  C   C1        1.0  0.43186  0.07749  0.91516  1.0000
  C   C2        1.0  0.93179  0.07747  0.58479  1.0000
  C   C3        1.0  0.56814  0.92254  0.08497  1.0000
  C   C4        1.0  0.06817  0.92248  0.41505  1.0000
  C   C5        1.0  0.45659  0.18538  0.96250  1.0000
  C   C6        1.0  0.95646  0.18541  0.53746  1.0000
  C   C7        1.0  0.54331  0.81465  0.03761  1.0000
  C   C8        1.0  0.04335  0.81458  0.46239  1.0000
  C   C9        1.0  0.37776  0.18929  0.02633  1.0000
  C   C10       1.0  0.87763  0.18928  0.47363  1.0000
  C   C11       1.0  0.62212  0.81070  0.97378  1.0000
  C   C12       1.0  0.12219  0.81063  0.52623  1.0000
  C   C13       1.0  0.27287  0.08576  0.04254  1.0000
  C   C14       1.0  0.77278  0.08574  0.45742  1.0000
  C   C15       1.0  0.72708  0.91416  0.95757  1.0000
  C   C16       1.0  0.22713  0.91412  0.54242  1.0000
  C   C17       1.0  0.25462  0.98103  0.99141  1.0000
  C   C18       1.0  0.75457  0.98101  0.50855  1.0000
  C   C19       1.0  0.74542  0.01888  0.00871  1.0000
  C   C20       1.0  0.24548  0.01883  0.49129  1.0000
  C   C21       1.0  0.18445  0.08271  0.10668  1.0000
  C   C22       1.0  0.68435  0.08267  0.39328  1.0000
  C   C23       1.0  0.81544  0.91718  0.89342  1.0000
  C   C24       1.0  0.31548  0.91717  0.60659  1.0000
  C   C25       1.0  0.08164  0.98218  0.11920  1.0000
  C   C26       1.0  0.58157  0.98211  0.38076  1.0000
  C   C27       1.0  0.91826  0.01770  0.88086  1.0000
  C   C28       1.0  0.41827  0.01772  0.61914  1.0000
  C   C29       1.0  0.05911  0.87625  0.06804  1.0000
  C   C30       1.0  0.55908  0.87618  0.43193  1.0000
  C   C31       1.0  0.94083  0.12365  0.93202  1.0000
  C   C32       1.0  0.44083  0.12364  0.56798  1.0000
  C   C33       1.0  0.14718  0.87418  0.00457  1.0000
  C   C34       1.0  0.64715  0.87412  0.49540  1.0000
  C   C35       1.0  0.85289  0.12569  0.99553  1.0000
  C   C36       1.0  0.35291  0.12567  0.50447  1.0000
  C   C37       1.0  0.94944  0.77361  0.07611  1.0000
  C   C38       1.0  0.44940  0.77352  0.42389  1.0000
  C   C39       1.0  0.05055  0.22627  0.92391  1.0000
  C   C40       1.0  0.55055  0.22628  0.57611  1.0000
  C   C41       1.0  0.93423  0.67520  0.02386  1.0000
  C   C42       1.0  0.43423  0.67514  0.47615  1.0000
  C   C43       1.0  0.06573  0.32474  0.97613  1.0000
  C   C44       1.0  0.56574  0.32475  0.52389  1.0000
  C   C45       1.0  0.02961  0.67930  0.96441  1.0000
  C   C46       1.0  0.52963  0.67925  0.53558  1.0000
  C   C47       1.0  0.97043  0.32060  0.03561  1.0000
  C   C48       1.0  0.47044  0.32060  0.46440  1.0000
  C   C49       1.0  0.06616  0.82082  0.74266  1.0000
  C   C50       1.0  0.56612  0.82083  0.75732  1.0000
  C   C51       1.0  0.93394  0.17945  0.25737  1.0000
  C   C52       1.0  0.43397  0.17946  0.24265  1.0000
  C   C53       1.0  0.07188  0.67285  0.74082  1.0000
  C   C54       1.0  0.57188  0.67288  0.75918  1.0000
  C   C55       1.0  0.92828  0.32743  0.25915  1.0000
  C   C56       1.0  0.42831  0.32743  0.24086  1.0000
  C   C57       1.0  0.20515  0.51215  0.80072  1.0000
  C   C58       1.0  0.70513  0.51218  0.69935  1.0000
  C   C59       1.0  0.79494  0.48797  0.19925  1.0000
  C   C60       1.0  0.29493  0.48797  0.30073  1.0000
  C   C61       1.0  0.32071  0.50895  0.86016  1.0000
  C   C62       1.0  0.82064  0.50885  0.63988  1.0000
  C   C63       1.0  0.67935  0.49106  0.13981  1.0000
  C   C64       1.0  0.17934  0.49106  0.36019  1.0000
  N   N1        1.0  0.33432  0.97772  0.92926  1.0000
  N   N2        1.0  0.83426  0.97770  0.57070  1.0000
  N   N3        1.0  0.66577  0.02227  0.07088  1.0000
  N   N4        1.0  0.16579  0.02220  0.42914  1.0000
  N   N5        1.0  0.13255  0.77579  0.95445  1.0000
  N   N6        1.0  0.63258  0.77575  0.54551  1.0000
  N   N7        1.0  0.86759  0.22407  0.04563  1.0000
  N   N8        1.0  0.36761  0.22406  0.45437  1.0000
  O   O1        1.0  0.15145  0.88733  0.78521  1.0000
  O   O2        1.0  0.65146  0.88733  0.71479  1.0000
  O   O3        1.0  0.84786  0.11285  0.21524  1.0000
  O   O4        1.0  0.34785  0.11285  0.28474  1.0000
  O   O5        1.0  0.36425  0.61916  0.89055  1.0000
  O   O6        1.0  0.86408  0.61902  0.60942  1.0000
  O   O7        1.0  0.63593  0.38080  0.10944  1.0000
  O   O8        1.0  0.13594  0.38080  0.39055  1.0000
  O   O9        1.0  0.19342  0.64520  0.78177  1.0000
  O   O10       1.0  0.69344  0.64527  0.71826  1.0000
  O   O11       1.0  0.80670  0.35496  0.21825  1.0000
  O   O12       1.0  0.30669  0.35497  0.28173  1.0000
  O   O13       1.0  0.97542  0.86849  0.70211  1.0000
  O   O14       1.0  0.47530  0.86851  0.79779  1.0000
  O   O15       1.0  0.02535  0.13179  0.29747  1.0000
  O   O16       1.0  0.52544  0.13180  0.20258  1.0000
  O   O17       1.0  0.36142  0.40043  0.87415  1.0000
  O   O18       1.0  0.86136  0.40031  0.62596  1.0000
  O   O19       1.0  0.63852  0.59952  0.12582  1.0000
  O   O20       1.0  0.13847  0.59952  0.37415  1.0000
