data_image0
_chemical_formula_structural       Zn2H48C44N8O8
_chemical_formula_sum              "Zn2 H48 C44 N8 O8"
_cell_length_a       8.798
_cell_length_b       10.7861
_cell_length_c       14.126
_cell_angle_alpha    75.2316
_cell_angle_beta     77.574
_cell_angle_gamma    79.8925

_space_group_name_H-M_alt    "P 1"
_space_group_IT_number       1

loop_
  _space_group_symop_operation_xyz
  'x, y, z'

loop_
  _atom_site_type_symbol
  _atom_site_label
  _atom_site_symmetry_multiplicity
  _atom_site_fract_x
  _atom_site_fract_y
  _atom_site_fract_z
  _atom_site_occupancy
  Zn  Zn1       1.0  0.60082  0.07478  0.19208  1.0000
  Zn  Zn2       1.0  0.39918  0.92522  0.80792  1.0000
  H   H1        1.0  0.41330  0.31478  0.29781  1.0000
  H   H2        1.0  0.58669  0.68524  0.70220  1.0000
  H   H3        1.0  0.32743  0.44264  0.43068  1.0000
  H   H4        1.0  0.67258  0.55737  0.56932  1.0000
  H   H5        1.0  0.41986  0.36727  0.59123  1.0000
  H   H6        1.0  0.58014  0.63274  0.40877  1.0000
  H   H7        1.0  0.60469  0.16478  0.62607  1.0000
  H   H8        1.0  0.39530  0.83522  0.37393  1.0000
  H   H9        1.0  0.77098  0.90058  0.36209  1.0000
  H   H10       1.0  0.22903  0.09944  0.63790  1.0000
  H   H11       1.0  0.82696  0.83840  0.53669  1.0000
  H   H12       1.0  0.17302  0.16160  0.46331  1.0000
  H   H13       1.0  0.71914  0.92761  0.62365  1.0000
  H   H14       1.0  0.28085  0.07240  0.37635  1.0000
  H   H15       1.0  0.52889  0.11156  0.97711  1.0000
  H   H16       1.0  0.47113  0.88844  0.02287  1.0000
  H   H17       1.0  0.50946  0.21539  0.80116  1.0000
  H   H18       1.0  0.49057  0.78461  0.19882  1.0000
  H   H19       1.0  0.58812  0.43287  0.72321  1.0000
  H   H20       1.0  0.41191  0.56714  0.27678  1.0000
  H   H21       1.0  0.69184  0.55610  0.81979  1.0000
  H   H22       1.0  0.30817  0.44391  0.18021  1.0000
  H   H23       1.0  0.71829  0.35536  0.17969  1.0000
  H   H24       1.0  0.28172  0.64462  0.82031  1.0000
  H   H25       1.0  0.75547  0.58657  0.08495  1.0000
  H   H26       1.0  0.24451  0.41343  0.91505  1.0000
  H   H27       1.0  0.71033  0.63876  0.96326  1.0000
  H   H28       1.0  0.28966  0.36123  0.03675  1.0000
  H   H29       1.0  0.15328  0.96403  0.16314  1.0000
  H   H30       1.0  0.84674  0.03597  0.83684  1.0000
  H   H31       1.0  0.11989  0.11918  0.08480  1.0000
  H   H32       1.0  0.88012  0.88084  0.91520  1.0000
  H   H33       1.0  0.02704  0.09297  0.21098  1.0000
  H   H34       1.0  0.97296  0.90701  0.78902  1.0000
  H   H35       1.0  0.03109  0.85973  0.04695  1.0000
  H   H36       1.0  0.96892  0.14026  0.95306  1.0000
  H   H37       1.0  0.94498  0.71240  0.09086  1.0000
  H   H38       1.0  0.05504  0.28760  0.90915  1.0000
  H   H39       1.0  0.06153  0.75170  0.16316  1.0000
  H   H40       1.0  0.93847  0.24829  0.83686  1.0000
  H   H41       1.0  0.98745  0.64517  0.94851  1.0000
  H   H42       1.0  0.01254  0.35483  0.05151  1.0000
  H   H43       1.0  0.91040  0.08825  0.56953  1.0000
  H   H44       1.0  0.08960  0.91175  0.43046  1.0000
  H   H45       1.0  0.96392  0.52158  0.89432  1.0000
  H   H46       1.0  0.03607  0.47842  0.10569  1.0000
  H   H47       1.0  0.00187  0.92977  0.60974  1.0000
  H   H48       1.0  0.99813  0.07022  0.39026  1.0000
  C   C1        1.0  0.56432  0.17369  0.38596  1.0000
  C   C2        1.0  0.43566  0.82631  0.61404  1.0000
  C   C3        1.0  0.45957  0.28679  0.36684  1.0000
  C   C4        1.0  0.54042  0.71322  0.63316  1.0000
  C   C5        1.0  0.41148  0.35529  0.44186  1.0000
  C   C6        1.0  0.58851  0.64472  0.55815  1.0000
  C   C7        1.0  0.46490  0.31305  0.53350  1.0000
  C   C8        1.0  0.53509  0.68695  0.46651  1.0000
  C   C9        1.0  0.56873  0.20017  0.55367  1.0000
  C   C10       1.0  0.43125  0.79983  0.44633  1.0000
  C   C11       1.0  0.61677  0.13173  0.47837  1.0000
  C   C12       1.0  0.38322  0.86827  0.52163  1.0000
  C   C13       1.0  0.71217  0.98859  0.38522  1.0000
  C   C14       1.0  0.28782  0.01142  0.61477  1.0000
  C   C15       1.0  0.79696  0.93586  0.55102  1.0000
  C   C16       1.0  0.20302  0.06415  0.44898  1.0000
  C   C17       1.0  0.94398  0.99333  0.54996  1.0000
  C   C18       1.0  0.05601  0.00667  0.45004  1.0000
  C   C19       1.0  0.61687  0.27732  0.99803  1.0000
  C   C20       1.0  0.38313  0.72268  0.00197  1.0000
  C   C21       1.0  0.56249  0.20778  0.94370  1.0000
  C   C22       1.0  0.43753  0.79222  0.05628  1.0000
  C   C23       1.0  0.55313  0.26669  0.84486  1.0000
  C   C24       1.0  0.44688  0.73332  0.15512  1.0000
  C   C25       1.0  0.59868  0.39060  0.80064  1.0000
  C   C26       1.0  0.40134  0.60940  0.19935  1.0000
  C   C27       1.0  0.65591  0.46037  0.85307  1.0000
  C   C28       1.0  0.34410  0.53963  0.14693  1.0000
  C   C29       1.0  0.66284  0.40126  0.95247  1.0000
  C   C30       1.0  0.33716  0.59874  0.04753  1.0000
  C   C31       1.0  0.69141  0.34740  0.11015  1.0000
  C   C32       1.0  0.30858  0.65259  0.88984  1.0000
  C   C33       1.0  0.77562  0.56201  0.01202  1.0000
  C   C34       1.0  0.22436  0.43799  0.98799  1.0000
  C   C35       1.0  0.94967  0.54865  0.96616  1.0000
  C   C36       1.0  0.05032  0.45135  0.03385  1.0000
  C   C37       1.0  0.27466  0.11059  0.18546  1.0000
  C   C38       1.0  0.72534  0.88940  0.81454  1.0000
  C   C39       1.0  0.13535  0.06769  0.16064  1.0000
  C   C40       1.0  0.86466  0.93231  0.83936  1.0000
  C   C41       1.0  0.82994  0.85892  0.16860  1.0000
  C   C42       1.0  0.17008  0.14107  0.83141  1.0000
  C   C43       1.0  0.97677  0.79344  0.11315  1.0000
  C   C44       1.0  0.02325  0.20655  0.88686  1.0000
  N   N1        1.0  0.62713  0.08177  0.32937  1.0000
  N   N2        1.0  0.37286  0.91824  0.67062  1.0000
  N   N3        1.0  0.70935  0.01378  0.47490  1.0000
  N   N4        1.0  0.29064  0.98622  0.52510  1.0000
  N   N5        1.0  0.63597  0.24726  0.09701  1.0000
  N   N6        1.0  0.36403  0.75272  0.90298  1.0000
  N   N7        1.0  0.70928  0.44251  0.02607  1.0000
  N   N8        1.0  0.29071  0.55748  0.97393  1.0000
  O   O1        1.0  0.39923  0.02480  0.18759  1.0000
  O   O2        1.0  0.60077  0.97519  0.81242  1.0000
  O   O3        1.0  0.26566  0.22083  0.20145  1.0000
  O   O4        1.0  0.73434  0.77917  0.79855  1.0000
  O   O5        1.0  0.77704  0.97310  0.12162  1.0000
  O   O6        1.0  0.22294  0.02688  0.87838  1.0000
  O   O7        1.0  0.76843  0.80261  0.25371  1.0000
  O   O8        1.0  0.23160  0.19739  0.74632  1.0000
