data_image0
_chemical_formula_structural       Zn4H46C58N10O22
_chemical_formula_sum              "Zn4 H46 C58 N10 O22"
_cell_length_a       10.7136
_cell_length_b       10.5776
_cell_length_c       13.4408
_cell_angle_alpha    94.4179
_cell_angle_beta     89.9995
_cell_angle_gamma    90.0006

_space_group_name_H-M_alt    "P 1"
_space_group_IT_number       1

loop_
  _space_group_symop_operation_xyz
  'x, y, z'

loop_
  _atom_site_type_symbol
  _atom_site_label
  _atom_site_symmetry_multiplicity
  _atom_site_fract_x
  _atom_site_fract_y
  _atom_site_fract_z
  _atom_site_occupancy
  Zn  Zn1       1.0  0.39409  0.23843  0.89273  1.0000
  Zn  Zn2       1.0  0.89409  0.76157  0.10726  1.0000
  Zn  Zn3       1.0  0.69445  0.71000  0.53731  1.0000
  Zn  Zn4       1.0  0.19445  0.29000  0.46269  1.0000
  H   H1        1.0  0.59403  0.48004  0.53359  1.0000
  H   H2        1.0  0.09403  0.51996  0.46641  1.0000
  H   H3        1.0  0.65553  0.47920  0.42582  1.0000
  H   H4        1.0  0.15552  0.52080  0.57418  1.0000
  H   H5        1.0  0.92710  0.63504  0.47041  1.0000
  H   H6        1.0  0.42709  0.36496  0.52959  1.0000
  H   H7        1.0  0.87504  0.57822  0.57324  1.0000
  H   H8        1.0  0.37505  0.42179  0.42676  1.0000
  H   H9        1.0  0.77953  0.73413  0.34123  1.0000
  H   H10       1.0  0.27953  0.26587  0.65877  1.0000
  H   H11       1.0  0.63906  0.69034  0.33791  1.0000
  H   H12       1.0  0.13906  0.30967  0.66209  1.0000
  H   H13       1.0  0.83339  0.56701  0.87728  1.0000
  H   H14       1.0  0.33340  0.43302  0.12272  1.0000
  H   H15       1.0  0.68887  0.14785  0.90331  1.0000
  H   H16       1.0  0.18887  0.85215  0.09670  1.0000
  H   H17       1.0  0.80465  0.94071  0.91193  1.0000
  H   H18       1.0  0.30465  0.05929  0.08807  1.0000
  H   H19       1.0  0.68311  0.73974  0.89601  1.0000
  H   H20       1.0  0.18310  0.26026  0.10398  1.0000
  H   H21       1.0  0.45241  0.74718  0.87457  1.0000
  H   H22       1.0  0.95240  0.25281  0.12542  1.0000
  H   H23       1.0  0.26547  0.76908  0.83862  1.0000
  H   H24       1.0  0.76548  0.23091  0.16139  1.0000
  H   H25       1.0  0.04130  0.81100  0.81446  1.0000
  H   H26       1.0  0.54130  0.18899  0.18556  1.0000
  H   H27       1.0  0.96388  0.03745  0.82996  1.0000
  H   H28       1.0  0.46388  0.96254  0.17005  1.0000
  H   H29       1.0  0.12176  0.21301  0.86472  1.0000
  H   H30       1.0  0.62175  0.78698  0.13528  1.0000
  H   H31       1.0  0.40676  0.64264  0.50260  1.0000
  H   H32       1.0  0.90676  0.35735  0.49739  1.0000
  H   H33       1.0  0.20241  0.74845  0.54660  1.0000
  H   H34       1.0  0.70242  0.25153  0.45339  1.0000
  H   H35       1.0  0.20616  0.97309  0.62586  1.0000
  H   H36       1.0  0.70617  0.02688  0.37414  1.0000
  H   H37       1.0  0.40950  0.07926  0.65724  1.0000
  H   H38       1.0  0.90952  0.92072  0.34277  1.0000
  H   H39       1.0  0.58042  0.15540  0.67799  1.0000
  H   H40       1.0  0.08043  0.84459  0.32202  1.0000
  H   H41       1.0  0.79682  0.24234  0.69715  1.0000
  H   H42       1.0  0.29683  0.75766  0.30286  1.0000
  H   H43       1.0  0.97798  0.09698  0.65174  1.0000
  H   H44       1.0  0.47799  0.90304  0.34827  1.0000
  H   H45       1.0  0.93079  0.87119  0.58692  1.0000
  H   H46       1.0  0.43080  0.12882  0.41308  1.0000
  C   C1        1.0  0.49874  0.35802  0.70539  1.0000
  C   C2        1.0  0.99874  0.64199  0.29461  1.0000
  C   C3        1.0  0.58002  0.39922  0.79312  1.0000
  C   C4        1.0  0.08001  0.60080  0.20688  1.0000
  C   C5        1.0  0.68606  0.47650  0.78955  1.0000
  C   C6        1.0  0.18605  0.52351  0.21044  1.0000
  C   C7        1.0  0.75019  0.50779  0.87880  1.0000
  C   C8        1.0  0.25019  0.49223  0.12120  1.0000
  C   C9        1.0  0.70576  0.46939  0.96980  1.0000
  C   C10       1.0  0.20576  0.53061  0.03019  1.0000
  C   C11       1.0  0.59834  0.39308  0.96679  1.0000
  C   C12       1.0  0.09834  0.60692  0.03321  1.0000
  C   C13       1.0  0.53291  0.35050  0.05890  1.0000
  C   C14       1.0  0.03292  0.64950  0.94109  1.0000
  C   C15       1.0  0.73177  0.53032  0.69561  1.0000
  C   C16       1.0  0.23177  0.46970  0.30439  1.0000
  C   C17       1.0  0.77355  0.51115  0.06558  1.0000
  C   C18       1.0  0.27356  0.48885  0.93442  1.0000
  C   C19       1.0  0.64018  0.05689  0.89558  1.0000
  C   C20       1.0  0.14018  0.94310  0.10443  1.0000
  C   C21       1.0  0.70408  0.94273  0.90014  1.0000
  C   C22       1.0  0.20408  0.05726  0.09986  1.0000
  C   C23       1.0  0.63587  0.83014  0.89139  1.0000
  C   C24       1.0  0.13587  0.16986  0.10860  1.0000
  C   C25       1.0  0.50683  0.83466  0.87872  1.0000
  C   C26       1.0  0.00683  0.16533  0.12128  1.0000
  C   C27       1.0  0.44995  0.95350  0.87391  1.0000
  C   C28       1.0  0.94995  0.04649  0.12609  1.0000
  C   C29       1.0  0.31343  0.96929  0.86057  1.0000
  C   C30       1.0  0.81342  0.03071  0.13943  1.0000
  C   C31       1.0  0.23181  0.86672  0.84221  1.0000
  C   C32       1.0  0.73181  0.13327  0.15780  1.0000
  C   C33       1.0  0.10508  0.89051  0.82908  1.0000
  C   C34       1.0  0.60508  0.10949  0.17093  1.0000
  C   C35       1.0  0.06242  0.01542  0.83756  1.0000
  C   C36       1.0  0.56242  0.98457  0.16245  1.0000
  C   C37       1.0  0.14816  0.11308  0.85607  1.0000
  C   C38       1.0  0.64815  0.88691  0.14393  1.0000
  C   C39       1.0  0.40344  0.73790  0.53965  1.0000
  C   C40       1.0  0.90344  0.26210  0.46034  1.0000
  C   C41       1.0  0.29011  0.79764  0.56390  1.0000
  C   C42       1.0  0.79012  0.20235  0.43610  1.0000
  C   C43       1.0  0.29215  0.92171  0.60688  1.0000
  C   C44       1.0  0.79217  0.07827  0.39312  1.0000
  C   C45       1.0  0.40658  0.98195  0.62436  1.0000
  C   C46       1.0  0.90660  0.01804  0.37564  1.0000
  C   C47       1.0  0.51666  0.91557  0.59955  1.0000
  C   C48       1.0  0.01667  0.08443  0.40045  1.0000
  C   C49       1.0  0.64247  0.97205  0.61724  1.0000
  C   C50       1.0  0.14248  0.02796  0.38276  1.0000
  C   C51       1.0  0.66061  0.09661  0.65719  1.0000
  C   C52       1.0  0.16063  0.90340  0.34281  1.0000
  C   C53       1.0  0.78153  0.14372  0.66973  1.0000
  C   C54       1.0  0.28155  0.85628  0.33028  1.0000
  C   C55       1.0  0.88194  0.06379  0.64422  1.0000
  C   C56       1.0  0.38196  0.93622  0.35578  1.0000
  C   C57       1.0  0.85715  0.93978  0.60684  1.0000
  C   C58       1.0  0.35716  0.06023  0.39316  1.0000
  N   N1        1.0  0.54304  0.35786  0.88002  1.0000
  N   N2        1.0  0.04304  0.64214  0.11997  1.0000
  N   N3        1.0  0.51658  0.06217  0.88192  1.0000
  N   N4        1.0  0.01658  0.93782  0.11809  1.0000
  N   N5        1.0  0.27058  0.09015  0.86597  1.0000
  N   N6        1.0  0.77057  0.90985  0.13402  1.0000
  N   N7        1.0  0.51362  0.79532  0.55745  1.0000
  N   N8        1.0  0.01362  0.20468  0.44254  1.0000
  N   N9        1.0  0.74063  0.89615  0.59264  1.0000
  N   N10       1.0  0.24065  0.10385  0.40736  1.0000
  O   O1        1.0  0.41135  0.27930  0.72024  1.0000
  O   O2        1.0  0.91135  0.72070  0.27975  1.0000
  O   O3        1.0  0.52172  0.40014  0.62144  1.0000
  O   O4        1.0  0.02171  0.59987  0.37856  1.0000
  O   O5        1.0  0.81760  0.47158  0.64677  1.0000
  O   O6        1.0  0.31761  0.52843  0.35322  1.0000
  O   O7        1.0  0.68070  0.63479  0.67664  1.0000
  O   O8        1.0  0.18069  0.36523  0.32336  1.0000
  O   O9        1.0  0.75272  0.62795  0.09575  1.0000
  O   O10       1.0  0.25272  0.37205  0.90425  1.0000
  O   O11       1.0  0.84689  0.43513  0.10129  1.0000
  O   O12       1.0  0.34689  0.56487  0.89871  1.0000
  O   O13       1.0  0.56701  0.39696  0.14252  1.0000
  O   O14       1.0  0.06702  0.60304  0.85748  1.0000
  O   O15       1.0  0.44287  0.26981  0.04246  1.0000
  O   O16       1.0  0.94287  0.73019  0.95753  1.0000
  O   O17       1.0  0.61128  0.53214  0.47652  1.0000
  O   O18       1.0  0.11127  0.46786  0.52348  1.0000
  O   O19       1.0  0.88032  0.65592  0.53437  1.0000
  O   O20       1.0  0.38032  0.34409  0.46563  1.0000
  O   O21       1.0  0.69608  0.74769  0.37551  1.0000
  O   O22       1.0  0.19608  0.25232  0.62450  1.0000
