data_image0
_chemical_formula_structural       Y2H34C22N4O18
_chemical_formula_sum              "Y2 H34 C22 N4 O18"
_cell_length_a       9.97464
_cell_length_b       10.1562
_cell_length_c       10.405
_cell_angle_alpha    76.0574
_cell_angle_beta     73.6418
_cell_angle_gamma    66.2946

_space_group_name_H-M_alt    "P 1"
_space_group_IT_number       1

loop_
  _space_group_symop_operation_xyz
  'x, y, z'

loop_
  _atom_site_type_symbol
  _atom_site_label
  _atom_site_symmetry_multiplicity
  _atom_site_fract_x
  _atom_site_fract_y
  _atom_site_fract_z
  _atom_site_occupancy
  Y   Y1        1.0  0.56535  0.41148  0.33800  1.0000
  Y   Y2        1.0  0.43465  0.58851  0.66201  1.0000
  H   H1        1.0  0.75065  0.49127  0.85748  1.0000
  H   H2        1.0  0.24934  0.50875  0.14252  1.0000
  H   H3        1.0  0.25773  0.46731  0.34547  1.0000
  H   H4        1.0  0.74226  0.53268  0.65455  1.0000
  H   H5        1.0  0.32346  0.59194  0.25394  1.0000
  H   H6        1.0  0.67654  0.40805  0.74609  1.0000
  H   H7        1.0  0.38999  0.21321  0.21106  1.0000
  H   H8        1.0  0.61002  0.78678  0.78891  1.0000
  H   H9        1.0  0.37738  0.21344  0.38405  1.0000
  H   H10       1.0  0.62262  0.78656  0.61593  1.0000
  H   H11       1.0  0.52783  0.89892  0.22040  1.0000
  H   H12       1.0  0.47217  0.10106  0.77959  1.0000
  H   H13       1.0  0.34797  0.94384  0.18749  1.0000
  H   H14       1.0  0.65202  0.05614  0.81252  1.0000
  H   H15       1.0  0.16134  0.99401  0.44361  1.0000
  H   H16       1.0  0.83866  0.00600  0.55638  1.0000
  H   H17       1.0  0.17764  0.14008  0.49400  1.0000
  H   H18       1.0  0.82237  0.85993  0.50600  1.0000
  H   H19       1.0  0.14296  0.14619  0.20778  1.0000
  H   H20       1.0  0.85704  0.85382  0.79222  1.0000
  H   H21       1.0  0.13920  0.29212  0.27432  1.0000
  H   H22       1.0  0.86081  0.70789  0.72567  1.0000
  H   H23       1.0  0.90725  0.26160  0.45659  1.0000
  H   H24       1.0  0.09276  0.73840  0.54340  1.0000
  H   H25       1.0  0.90232  0.14961  0.35292  1.0000
  H   H26       1.0  0.09769  0.85039  0.64708  1.0000
  H   H27       1.0  0.92120  0.23801  0.11840  1.0000
  H   H28       1.0  0.07881  0.76201  0.88158  1.0000
  H   H29       1.0  0.00329  0.37288  0.07726  1.0000
  H   H30       1.0  0.99671  0.62715  0.92274  1.0000
  H   H31       1.0  0.80330  0.59619  0.22091  1.0000
  H   H32       1.0  0.19669  0.40382  0.77911  1.0000
  H   H33       1.0  0.97311  0.49804  0.27901  1.0000
  H   H34       1.0  0.02689  0.50196  0.72100  1.0000
  C   C1        1.0  0.59484  0.09807  0.27605  1.0000
  C   C2        1.0  0.40516  0.90193  0.72393  1.0000
  C   C3        1.0  0.42374  0.14232  0.30525  1.0000
  C   C4        1.0  0.57627  0.85768  0.69473  1.0000
  C   C5        1.0  0.40960  0.91809  0.26980  1.0000
  C   C6        1.0  0.59039  0.08189  0.73020  1.0000
  C   C7        1.0  0.40839  0.77238  0.35102  1.0000
  C   C8        1.0  0.59160  0.22761  0.64901  1.0000
  C   C9        1.0  0.19894  0.08698  0.40580  1.0000
  C   C10       1.0  0.80106  0.91302  0.59420  1.0000
  C   C11       1.0  0.10888  0.19466  0.30125  1.0000
  C   C12       1.0  0.89113  0.80535  0.69874  1.0000
  C   C13       1.0  0.93967  0.23808  0.35208  1.0000
  C   C14       1.0  0.06033  0.76193  0.64791  1.0000
  C   C15       1.0  0.89928  0.35152  0.12611  1.0000
  C   C16       1.0  0.10073  0.64850  0.87389  1.0000
  C   C17       1.0  0.77901  0.44110  0.04658  1.0000
  C   C18       1.0  0.22098  0.55892  0.95342  1.0000
  C   C19       1.0  0.85773  0.50403  0.29300  1.0000
  C   C20       1.0  0.14227  0.49597  0.70701  1.0000
  C   C21       1.0  0.77158  0.53545  0.43512  1.0000
  C   C22       1.0  0.22842  0.46455  0.56489  1.0000
  N   N1        1.0  0.36054  0.02938  0.35408  1.0000
  N   N2        1.0  0.63947  0.97062  0.64591  1.0000
  N   N3        1.0  0.84899  0.36945  0.26972  1.0000
  N   N4        1.0  0.15101  0.63056  0.73028  1.0000
  O   O1        1.0  0.63371  0.21203  0.25352  1.0000
  O   O2        1.0  0.36629  0.78796  0.74648  1.0000
  O   O3        1.0  0.68338  0.97184  0.26900  1.0000
  O   O4        1.0  0.31664  0.02815  0.73096  1.0000
  O   O5        1.0  0.37926  0.75857  0.47887  1.0000
  O   O6        1.0  0.62075  0.24144  0.52113  1.0000
  O   O7        1.0  0.44252  0.66925  0.28301  1.0000
  O   O8        1.0  0.55746  0.33073  0.71701  1.0000
  O   O9        1.0  0.64188  0.52182  0.46974  1.0000
  O   O10       1.0  0.35812  0.47816  0.53027  1.0000
  O   O11       1.0  0.82576  0.56968  0.51132  1.0000
  O   O12       1.0  0.17422  0.43033  0.48870  1.0000
  O   O13       1.0  0.64471  0.48817  0.10130  1.0000
  O   O14       1.0  0.35529  0.51183  0.89870  1.0000
  O   O15       1.0  0.83161  0.45765  0.91534  1.0000
  O   O16       1.0  0.16838  0.54238  0.08466  1.0000
  O   O17       1.0  0.32615  0.49279  0.25504  1.0000
  O   O18       1.0  0.67383  0.50720  0.74497  1.0000
