data_image0
_chemical_formula_structural       Zn4H56C52N12O20
_chemical_formula_sum              "Zn4 H56 C52 N12 O20"
_cell_length_a       6.0497
_cell_length_b       9.16886
_cell_length_c       25.154
_cell_angle_alpha    90
_cell_angle_beta     96.916
_cell_angle_gamma    90

_space_group_name_H-M_alt    "P 1"
_space_group_IT_number       1

loop_
  _space_group_symop_operation_xyz
  'x, y, z'

loop_
  _atom_site_type_symbol
  _atom_site_label
  _atom_site_symmetry_multiplicity
  _atom_site_fract_x
  _atom_site_fract_y
  _atom_site_fract_z
  _atom_site_occupancy
  Zn  Zn1       1.0  0.03153  0.38944  0.27925  1.0000
  Zn  Zn2       1.0  0.96846  0.88944  0.22075  1.0000
  Zn  Zn3       1.0  0.96847  0.61056  0.72075  1.0000
  Zn  Zn4       1.0  0.03154  0.11056  0.77925  1.0000
  H   H1        1.0  0.71936  0.10309  0.29753  1.0000
  H   H2        1.0  0.28063  0.60309  0.20247  1.0000
  H   H3        1.0  0.28064  0.89691  0.70247  1.0000
  H   H4        1.0  0.71937  0.39691  0.79753  1.0000
  H   H5        1.0  0.73500  0.57167  0.50265  1.0000
  H   H6        1.0  0.26500  0.07168  0.99735  1.0000
  H   H7        1.0  0.26499  0.42832  0.49735  1.0000
  H   H8        1.0  0.73502  0.92832  0.00265  1.0000
  H   H9        1.0  0.07809  0.37931  0.41042  1.0000
  H   H10       1.0  0.92190  0.87931  0.08957  1.0000
  H   H11       1.0  0.92190  0.62069  0.58957  1.0000
  H   H12       1.0  0.07810  0.12069  0.91043  1.0000
  H   H13       1.0  0.13945  0.74727  0.38803  1.0000
  H   H14       1.0  0.86054  0.24726  0.11197  1.0000
  H   H15       1.0  0.86054  0.25274  0.61197  1.0000
  H   H16       1.0  0.13947  0.75274  0.88803  1.0000
  H   H17       1.0  0.45515  0.49032  0.42707  1.0000
  H   H18       1.0  0.54485  0.99033  0.07293  1.0000
  H   H19       1.0  0.54485  0.50967  0.57293  1.0000
  H   H20       1.0  0.45516  0.00967  0.92707  1.0000
  H   H21       1.0  0.57909  0.92757  0.35911  1.0000
  H   H22       1.0  0.42090  0.42757  0.14089  1.0000
  H   H23       1.0  0.42090  0.07243  0.64089  1.0000
  H   H24       1.0  0.57909  0.57243  0.85911  1.0000
  H   H25       1.0  0.73394  0.91104  0.42323  1.0000
  H   H26       1.0  0.26606  0.41104  0.07677  1.0000
  H   H27       1.0  0.26606  0.08896  0.57678  1.0000
  H   H28       1.0  0.73394  0.58896  0.92322  1.0000
  H   H29       1.0  0.07876  0.69997  0.48303  1.0000
  H   H30       1.0  0.92124  0.19997  0.01697  1.0000
  H   H31       1.0  0.92123  0.30003  0.51698  1.0000
  H   H32       1.0  0.07877  0.80004  0.98303  1.0000
  H   H33       1.0  0.34226  0.12281  0.39994  1.0000
  H   H34       1.0  0.65774  0.62281  0.10006  1.0000
  H   H35       1.0  0.65774  0.87719  0.60006  1.0000
  H   H36       1.0  0.34226  0.37719  0.89994  1.0000
  H   H37       1.0  0.30082  0.93944  0.41636  1.0000
  H   H38       1.0  0.69918  0.43944  0.08364  1.0000
  H   H39       1.0  0.69919  0.06056  0.58364  1.0000
  H   H40       1.0  0.30081  0.56055  0.91636  1.0000
  H   H41       1.0  0.30259  0.10737  0.49411  1.0000
  H   H42       1.0  0.69741  0.60737  0.00589  1.0000
  H   H43       1.0  0.69742  0.89264  0.50589  1.0000
  H   H44       1.0  0.30259  0.39263  0.99411  1.0000
  H   H45       1.0  0.58230  0.15479  0.48941  1.0000
  H   H46       1.0  0.41770  0.65479  0.01059  1.0000
  H   H47       1.0  0.41771  0.84521  0.51059  1.0000
  H   H48       1.0  0.58229  0.34521  0.98941  1.0000
  H   H49       1.0  0.62043  0.27082  0.22822  1.0000
  H   H50       1.0  0.37957  0.77081  0.27178  1.0000
  H   H51       1.0  0.37958  0.72919  0.77178  1.0000
  H   H52       1.0  0.62043  0.22919  0.72822  1.0000
  H   H53       1.0  0.59903  0.43993  0.23968  1.0000
  H   H54       1.0  0.40096  0.93993  0.26032  1.0000
  H   H55       1.0  0.40097  0.56007  0.76032  1.0000
  H   H56       1.0  0.59904  0.06007  0.73968  1.0000
  C   C1        1.0  0.82748  0.65186  0.35494  1.0000
  C   C2        1.0  0.17251  0.15186  0.14506  1.0000
  C   C3        1.0  0.17252  0.34814  0.64506  1.0000
  C   C4        1.0  0.82749  0.84814  0.85494  1.0000
  C   C5        1.0  0.87117  0.69334  0.29924  1.0000
  C   C6        1.0  0.12882  0.19334  0.20076  1.0000
  C   C7        1.0  0.12883  0.30666  0.70076  1.0000
  C   C8        1.0  0.87117  0.80666  0.79924  1.0000
  C   C9        1.0  0.46305  0.52884  0.32160  1.0000
  C   C10       1.0  0.53694  0.02885  0.17840  1.0000
  C   C11       1.0  0.53695  0.47115  0.67840  1.0000
  C   C12       1.0  0.46306  0.97116  0.82160  1.0000
  C   C13       1.0  0.63454  0.57828  0.36616  1.0000
  C   C14       1.0  0.36546  0.07829  0.13384  1.0000
  C   C15       1.0  0.36546  0.42172  0.63384  1.0000
  C   C16       1.0  0.63454  0.92171  0.86616  1.0000
  C   C17       1.0  0.79159  0.15403  0.33466  1.0000
  C   C18       1.0  0.20840  0.65403  0.16534  1.0000
  C   C19       1.0  0.20840  0.84597  0.66534  1.0000
  C   C20       1.0  0.79160  0.34597  0.83466  1.0000
  C   C21       1.0  0.76203  0.59340  0.46133  1.0000
  C   C22       1.0  0.23797  0.09340  0.03867  1.0000
  C   C23       1.0  0.23796  0.40660  0.53867  1.0000
  C   C24       1.0  0.76204  0.90660  0.96133  1.0000
  C   C25       1.0  0.97296  0.29151  0.39326  1.0000
  C   C26       1.0  0.02704  0.79151  0.10674  1.0000
  C   C27       1.0  0.02704  0.70849  0.60674  1.0000
  C   C28       1.0  0.97297  0.20849  0.89326  1.0000
  C   C29       1.0  0.98899  0.69186  0.39717  1.0000
  C   C30       1.0  0.01099  0.19186  0.10283  1.0000
  C   C31       1.0  0.01099  0.30814  0.60283  1.0000
  C   C32       1.0  0.98901  0.80814  0.89717  1.0000
  C   C33       1.0  0.60468  0.54921  0.41955  1.0000
  C   C34       1.0  0.39531  0.04921  0.08045  1.0000
  C   C35       1.0  0.39531  0.45079  0.58045  1.0000
  C   C36       1.0  0.60469  0.95079  0.91954  1.0000
  C   C37       1.0  0.62674  0.98441  0.39712  1.0000
  C   C38       1.0  0.37326  0.48441  0.10288  1.0000
  C   C39       1.0  0.37326  0.01559  0.60288  1.0000
  C   C40       1.0  0.62674  0.51559  0.89712  1.0000
  C   C41       1.0  0.95633  0.66409  0.45020  1.0000
  C   C42       1.0  0.04365  0.16409  0.04980  1.0000
  C   C43       1.0  0.04365  0.33591  0.54980  1.0000
  C   C44       1.0  0.95636  0.83592  0.95020  1.0000
  C   C45       1.0  0.42059  0.02995  0.42261  1.0000
  C   C46       1.0  0.57941  0.52995  0.07739  1.0000
  C   C47       1.0  0.57941  0.97005  0.57739  1.0000
  C   C48       1.0  0.42059  0.47005  0.92261  1.0000
  C   C49       1.0  0.46033  0.06549  0.48247  1.0000
  C   C50       1.0  0.53967  0.56549  0.01754  1.0000
  C   C51       1.0  0.53968  0.93451  0.51754  1.0000
  C   C52       1.0  0.46032  0.43450  0.98246  1.0000
  N   N1        1.0  0.92454  0.27133  0.33929  1.0000
  N   N2        1.0  0.07545  0.77133  0.16071  1.0000
  N   N3        1.0  0.07545  0.72867  0.66071  1.0000
  N   N4        1.0  0.92456  0.22867  0.83929  1.0000
  N   N5        1.0  0.76296  0.10749  0.38382  1.0000
  N   N6        1.0  0.23704  0.60749  0.11618  1.0000
  N   N7        1.0  0.23704  0.89251  0.61618  1.0000
  N   N8        1.0  0.76296  0.39251  0.88382  1.0000
  N   N9        1.0  0.87757  0.19386  0.42199  1.0000
  N   N10       1.0  0.12244  0.69387  0.07801  1.0000
  N   N11       1.0  0.12243  0.80614  0.57801  1.0000
  N   N12       1.0  0.87757  0.30614  0.92199  1.0000
  O   O1        1.0  0.96261  0.60430  0.27003  1.0000
  O   O2        1.0  0.03739  0.10430  0.22997  1.0000
  O   O3        1.0  0.03740  0.39570  0.72998  1.0000
  O   O4        1.0  0.96262  0.89570  0.77003  1.0000
  O   O5        1.0  0.83190  0.82590  0.28588  1.0000
  O   O6        1.0  0.16808  0.32590  0.21412  1.0000
  O   O7        1.0  0.16809  0.17411  0.71412  1.0000
  O   O8        1.0  0.83191  0.67410  0.78588  1.0000
  O   O9        1.0  0.69964  0.36511  0.22763  1.0000
  O   O10       1.0  0.30036  0.86511  0.27237  1.0000
  O   O11       1.0  0.30036  0.63489  0.77237  1.0000
  O   O12       1.0  0.69965  0.13489  0.72763  1.0000
  O   O13       1.0  0.47293  0.58311  0.27527  1.0000
  O   O14       1.0  0.52706  0.08312  0.22473  1.0000
  O   O15       1.0  0.52707  0.41688  0.72472  1.0000
  O   O16       1.0  0.47294  0.91688  0.77528  1.0000
  O   O17       1.0  0.32188  0.43447  0.33294  1.0000
  O   O18       1.0  0.67811  0.93448  0.16706  1.0000
  O   O19       1.0  0.67811  0.56552  0.66706  1.0000
  O   O20       1.0  0.32189  0.06552  0.83294  1.0000
