data_image0
_chemical_formula_structural       CdH24C18N6O6
_chemical_formula_sum              "Cd1 H24 C18 N6 O6"
_cell_length_a       5.42999
_cell_length_b       8.85818
_cell_length_c       10.8378
_cell_angle_alpha    71.9902
_cell_angle_beta     85.2262
_cell_angle_gamma    78.019

_space_group_name_H-M_alt    "P 1"
_space_group_IT_number       1

loop_
  _space_group_symop_operation_xyz
  'x, y, z'

loop_
  _atom_site_type_symbol
  _atom_site_label
  _atom_site_symmetry_multiplicity
  _atom_site_fract_x
  _atom_site_fract_y
  _atom_site_fract_z
  _atom_site_occupancy
  Cd  Cd1       1.0  1.00000  0.50000  1.00000  1.0000
  H   H1        1.0  0.77251  0.69240  0.78507  1.0000
  H   H2        1.0  0.22749  0.30760  0.21492  1.0000
  H   H3        1.0  0.33336  0.56668  0.27898  1.0000
  H   H4        1.0  0.66663  0.43334  0.72101  1.0000
  H   H5        1.0  0.93305  0.34191  0.54766  1.0000
  H   H6        1.0  0.06694  0.65810  0.45232  1.0000
  H   H7        1.0  0.77662  0.00749  0.50957  1.0000
  H   H8        1.0  0.22339  0.99249  0.49044  1.0000
  H   H9        1.0  0.55701  0.15693  0.40398  1.0000
  H   H10       1.0  0.44300  0.84306  0.59604  1.0000
  H   H11       1.0  0.70585  0.80343  0.40404  1.0000
  H   H12       1.0  0.29416  0.19656  0.59597  1.0000
  H   H13       1.0  0.51184  0.96054  0.28859  1.0000
  H   H14       1.0  0.48816  0.03946  0.71142  1.0000
  H   H15       1.0  0.71595  0.74564  0.19000  1.0000
  H   H16       1.0  0.28405  0.25436  0.81000  1.0000
  H   H17       1.0  0.86772  0.10920  0.21663  1.0000
  H   H18       1.0  0.13227  0.89079  0.78337  1.0000
  H   H19       1.0  0.06054  0.96412  0.33822  1.0000
  H   H20       1.0  0.93946  0.03588  0.66178  1.0000
  H   H21       1.0  0.40971  0.78029  0.98841  1.0000
  H   H22       1.0  0.59030  0.21970  0.01160  1.0000
  H   H23       1.0  0.53328  0.61595  0.84935  1.0000
  H   H24       1.0  0.46672  0.38405  0.15064  1.0000
  C   C1        1.0  0.40572  0.53819  0.37578  1.0000
  C   C2        1.0  0.59428  0.46182  0.62421  1.0000
  C   C3        1.0  0.74225  0.41032  0.52848  1.0000
  C   C4        1.0  0.25773  0.58968  0.47151  1.0000
  C   C5        1.0  0.81655  0.39403  0.30113  1.0000
  C   C6        1.0  0.18345  0.60597  0.69886  1.0000
  C   C7        1.0  0.64983  0.44792  0.40346  1.0000
  C   C8        1.0  0.35015  0.55208  0.59653  1.0000
  C   C9        1.0  0.60698  0.02641  0.45359  1.0000
  C   C10       1.0  0.39304  0.97358  0.54642  1.0000
  C   C11       1.0  0.67150  0.93428  0.35318  1.0000
  C   C12       1.0  0.32851  0.06571  0.64683  1.0000
  C   C13       1.0  0.89571  0.77773  0.15338  1.0000
  C   C14       1.0  0.10430  0.22227  0.84663  1.0000
  C   C15       1.0  0.90397  0.98110  0.27426  1.0000
  C   C16       1.0  0.09603  0.01890  0.72575  1.0000
  C   C17       1.0  0.24737  0.79877  0.05192  1.0000
  C   C18       1.0  0.75263  0.20123  0.94809  1.0000
  N   N1        1.0  0.99704  0.88609  0.18535  1.0000
  N   N2        1.0  0.00296  0.11391  0.81466  1.0000
  N   N3        1.0  0.05076  0.71896  0.06910  1.0000
  N   N4        1.0  0.94924  0.28104  0.93091  1.0000
  N   N5        1.0  0.22181  0.90156  0.12124  1.0000
  N   N6        1.0  0.77819  0.09844  0.87877  1.0000
  O   O1        1.0  0.73038  0.44215  0.18467  1.0000
  O   O2        1.0  0.26962  0.55786  0.81532  1.0000
  O   O3        1.0  0.03072  0.30820  0.33381  1.0000
  O   O4        1.0  0.96928  0.69180  0.66618  1.0000
  O   O5        1.0  0.66636  0.66779  0.86784  1.0000
  O   O6        1.0  0.33363  0.33222  0.13215  1.0000
