data_image0
_chemical_formula_structural       CoH28C40N10O6
_chemical_formula_sum              "Co1 H28 C40 N10 O6"
_cell_length_a       8.48642
_cell_length_b       10.068
_cell_length_c       11.7582
_cell_angle_alpha    93.6731
_cell_angle_beta     98.8916
_cell_angle_gamma    91.4869

_space_group_name_H-M_alt    "P 1"
_space_group_IT_number       1

loop_
  _space_group_symop_operation_xyz
  'x, y, z'

loop_
  _atom_site_type_symbol
  _atom_site_label
  _atom_site_symmetry_multiplicity
  _atom_site_fract_x
  _atom_site_fract_y
  _atom_site_fract_z
  _atom_site_occupancy
  Co  Co1       1.0  0.00000  0.50000  1.00000  1.0000
  H   H1        1.0  0.67691  0.65646  0.97203  1.0000
  H   H2        1.0  0.32308  0.34354  0.02797  1.0000
  H   H3        1.0  0.94338  0.99417  0.13821  1.0000
  H   H4        1.0  0.05663  0.00583  0.86179  1.0000
  H   H5        1.0  0.14345  0.77894  0.13166  1.0000
  H   H6        1.0  0.85655  0.22106  0.86833  1.0000
  H   H7        1.0  0.79711  0.87868  0.84329  1.0000
  H   H8        1.0  0.20290  0.12132  0.15671  1.0000
  H   H9        1.0  0.72974  0.96620  0.65331  1.0000
  H   H10       1.0  0.27026  0.03381  0.34669  1.0000
  H   H11       1.0  0.49174  0.10588  0.60824  1.0000
  H   H12       1.0  0.50825  0.89412  0.39176  1.0000
  H   H13       1.0  0.31847  0.15474  0.75532  1.0000
  H   H14       1.0  0.68153  0.84526  0.24469  1.0000
  H   H15       1.0  0.12670  0.44764  0.25887  1.0000
  H   H16       1.0  0.87329  0.55235  0.74112  1.0000
  H   H17       1.0  0.34753  0.62404  0.00503  1.0000
  H   H18       1.0  0.65247  0.37596  0.99497  1.0000
  H   H19       1.0  0.57354  0.61127  0.20515  1.0000
  H   H20       1.0  0.42645  0.38873  0.79486  1.0000
  H   H21       1.0  0.22679  0.71426  0.35316  1.0000
  H   H22       1.0  0.77320  0.28574  0.64684  1.0000
  H   H23       1.0  0.15461  0.86736  0.50690  1.0000
  H   H24       1.0  0.84539  0.13265  0.49310  1.0000
  H   H25       1.0  0.27127  0.84506  0.71291  1.0000
  H   H26       1.0  0.72873  0.15495  0.28709  1.0000
  H   H27       1.0  0.45858  0.67086  0.76564  1.0000
  H   H28       1.0  0.54142  0.32914  0.23436  1.0000
  C   C1        1.0  0.77911  0.71525  0.01639  1.0000
  C   C2        1.0  0.22089  0.28475  0.98361  1.0000
  C   C3        1.0  0.92111  0.89106  0.10518  1.0000
  C   C4        1.0  0.07890  0.10894  0.89481  1.0000
  C   C5        1.0  0.01684  0.78341  0.10149  1.0000
  C   C6        1.0  0.98316  0.21659  0.89850  1.0000
  C   C7        1.0  0.63305  0.92329  0.02525  1.0000
  C   C8        1.0  0.36696  0.07671  0.97475  1.0000
  C   C9        1.0  0.59754  0.96825  0.91376  1.0000
  C   C10       1.0  0.40247  0.03176  0.08625  1.0000
  C   C11       1.0  0.69311  0.93985  0.82603  1.0000
  C   C12       1.0  0.30690  0.06016  0.17398  1.0000
  C   C13       1.0  0.65512  0.98887  0.71918  1.0000
  C   C14       1.0  0.34488  0.01113  0.28082  1.0000
  C   C15       1.0  0.51952  0.06771  0.69347  1.0000
  C   C16       1.0  0.48047  0.93229  0.30653  1.0000
  C   C17       1.0  0.42379  0.09579  0.77541  1.0000
  C   C18       1.0  0.57622  0.90422  0.22460  1.0000
  C   C19       1.0  0.54043  0.95182  0.11223  1.0000
  C   C20       1.0  0.45958  0.04818  0.88777  1.0000
  C   C21       1.0  0.21542  0.49701  0.21757  1.0000
  C   C22       1.0  0.78457  0.50298  0.78242  1.0000
  C   C23       1.0  0.33816  0.58472  0.08753  1.0000
  C   C24       1.0  0.66183  0.41528  0.91247  1.0000
  C   C25       1.0  0.44855  0.58075  0.18543  1.0000
  C   C26       1.0  0.55144  0.41925  0.81457  1.0000
  C   C27       1.0  0.43482  0.51167  0.38490  1.0000
  C   C28       1.0  0.56517  0.48832  0.61510  1.0000
  C   C29       1.0  0.38740  0.60035  0.46969  1.0000
  C   C30       1.0  0.61259  0.39965  0.53032  1.0000
  C   C31       1.0  0.27828  0.70355  0.44273  1.0000
  C   C32       1.0  0.72172  0.29644  0.55727  1.0000
  C   C33       1.0  0.23829  0.78906  0.52859  1.0000
  C   C34       1.0  0.76171  0.21094  0.47141  1.0000
  C   C35       1.0  0.30413  0.77682  0.64572  1.0000
  C   C36       1.0  0.69587  0.22318  0.35428  1.0000
  C   C37       1.0  0.40942  0.67902  0.67529  1.0000
  C   C38       1.0  0.59057  0.32097  0.32470  1.0000
  C   C39       1.0  0.54502  0.41181  0.41089  1.0000
  C   C40       1.0  0.45497  0.58818  0.58911  1.0000
  N   N1        1.0  0.77102  0.84582  0.05092  1.0000
  N   N2        1.0  0.22898  0.15418  0.94908  1.0000
  N   N3        1.0  0.92730  0.67411  0.04530  1.0000
  N   N4        1.0  0.07270  0.32589  0.95469  1.0000
  N   N5        1.0  0.19359  0.53172  0.10891  1.0000
  N   N6        1.0  0.80641  0.46828  0.89109  1.0000
  N   N7        1.0  0.36961  0.52564  0.26699  1.0000
  N   N8        1.0  0.63039  0.47436  0.73302  1.0000
  N   N9        1.0  0.88069  0.28419  0.15111  1.0000
  N   N10       1.0  0.11931  0.71581  0.84889  1.0000
  O   O1        1.0  0.87772  0.41124  0.14300  1.0000
  O   O2        1.0  0.12228  0.58876  0.85699  1.0000
  O   O3        1.0  0.99899  0.23468  0.21070  1.0000
  O   O4        1.0  0.00101  0.76532  0.78930  1.0000
  O   O5        1.0  0.76513  0.21097  0.09999  1.0000
  O   O6        1.0  0.23487  0.78903  0.90001  1.0000
