data_image0
_chemical_formula_structural       Bi4H40C20S8I8N4
_chemical_formula_sum              "Bi4 H40 C20 S8 I8 N4"
_cell_length_a       8.13669
_cell_length_b       10.3808
_cell_length_c       14.7544
_cell_angle_alpha    90.0001
_cell_angle_beta     90.0003
_cell_angle_gamma    90.9554

_space_group_name_H-M_alt    "P 1"
_space_group_IT_number       1

loop_
  _space_group_symop_operation_xyz
  'x, y, z'

loop_
  _atom_site_type_symbol
  _atom_site_label
  _atom_site_symmetry_multiplicity
  _atom_site_fract_x
  _atom_site_fract_y
  _atom_site_fract_z
  _atom_site_occupancy
  Bi  Bi1       1.0  0.77795  0.21907  0.21091  1.0000
  Bi  Bi2       1.0  0.72205  0.78093  0.71091  1.0000
  Bi  Bi3       1.0  0.22204  0.78093  0.78909  1.0000
  Bi  Bi4       1.0  0.27796  0.21907  0.28908  1.0000
  H   H1        1.0  0.18680  0.31763  0.02687  1.0000
  H   H2        1.0  0.31320  0.68237  0.52687  1.0000
  H   H3        1.0  0.81320  0.68237  0.97313  1.0000
  H   H4        1.0  0.68680  0.31764  0.47313  1.0000
  H   H5        1.0  0.19248  0.36578  0.91127  1.0000
  H   H6        1.0  0.30752  0.63422  0.41127  1.0000
  H   H7        1.0  0.80752  0.63422  0.08873  1.0000
  H   H8        1.0  0.69248  0.36579  0.58873  1.0000
  H   H9        1.0  0.06747  0.23206  0.94537  1.0000
  H   H10       1.0  0.43253  0.76795  0.44537  1.0000
  H   H11       1.0  0.93253  0.76795  0.05463  1.0000
  H   H12       1.0  0.56747  0.23206  0.55463  1.0000
  H   H13       1.0  0.76279  0.22686  0.84707  1.0000
  H   H14       1.0  0.73721  0.77314  0.34707  1.0000
  H   H15       1.0  0.23721  0.77315  0.15293  1.0000
  H   H16       1.0  0.26279  0.22685  0.65293  1.0000
  H   H17       1.0  0.58361  0.17731  0.78586  1.0000
  H   H18       1.0  0.91639  0.82269  0.28586  1.0000
  H   H19       1.0  0.41640  0.82269  0.21414  1.0000
  H   H20       1.0  0.08360  0.17731  0.71414  1.0000
  H   H21       1.0  0.68614  0.32472  0.75799  1.0000
  H   H22       1.0  0.81387  0.67528  0.25799  1.0000
  H   H23       1.0  0.31386  0.67528  0.24201  1.0000
  H   H24       1.0  0.18614  0.32471  0.74201  1.0000
  H   H25       1.0  0.32411  0.15184  0.87111  1.0000
  H   H26       1.0  0.17589  0.84815  0.37110  1.0000
  H   H27       1.0  0.67589  0.84815  0.12890  1.0000
  H   H28       1.0  0.82411  0.15185  0.62889  1.0000
  H   H29       1.0  0.31514  0.10591  0.98647  1.0000
  H   H30       1.0  0.18485  0.89409  0.48647  1.0000
  H   H31       1.0  0.68486  0.89409  0.01353  1.0000
  H   H32       1.0  0.81514  0.10592  0.51353  1.0000
  H   H33       1.0  0.43562  0.37295  0.84693  1.0000
  H   H34       1.0  0.06438  0.62704  0.34693  1.0000
  H   H35       1.0  0.56438  0.62704  0.15307  1.0000
  H   H36       1.0  0.93562  0.37295  0.65307  1.0000
  H   H37       1.0  0.61255  0.41792  0.90913  1.0000
  H   H38       1.0  0.88744  0.58208  0.40913  1.0000
  H   H39       1.0  0.38744  0.58208  0.09087  1.0000
  H   H40       1.0  0.11256  0.41792  0.59087  1.0000
  C   C1        1.0  0.57366  0.23880  0.03055  1.0000
  C   C2        1.0  0.92634  0.76119  0.53056  1.0000
  C   C3        1.0  0.42634  0.76119  0.96944  1.0000
  C   C4        1.0  0.07367  0.23881  0.46944  1.0000
  C   C5        1.0  0.32513  0.18911  0.94086  1.0000
  C   C6        1.0  0.17487  0.81089  0.44086  1.0000
  C   C7        1.0  0.67487  0.81088  0.05914  1.0000
  C   C8        1.0  0.82513  0.18912  0.55913  1.0000
  C   C9        1.0  0.18548  0.28209  0.95683  1.0000
  C   C10       1.0  0.31452  0.71791  0.45683  1.0000
  C   C11       1.0  0.81453  0.71791  0.04317  1.0000
  C   C12       1.0  0.68548  0.28209  0.54317  1.0000
  C   C13       1.0  0.54462  0.33501  0.88065  1.0000
  C   C14       1.0  0.95538  0.66499  0.38065  1.0000
  C   C15       1.0  0.45538  0.66499  0.11935  1.0000
  C   C16       1.0  0.04462  0.33501  0.61935  1.0000
  C   C17       1.0  0.65051  0.26083  0.81421  1.0000
  C   C18       1.0  0.84949  0.73917  0.31421  1.0000
  C   C19       1.0  0.34949  0.73917  0.18579  1.0000
  C   C20       1.0  0.15051  0.26083  0.68579  1.0000
  S   S1        1.0  0.51262  0.13194  0.11548  1.0000
  S   S2        1.0  0.98738  0.86806  0.61548  1.0000
  S   S3        1.0  0.48738  0.86805  0.88452  1.0000
  S   S4        1.0  0.01262  0.13195  0.38452  1.0000
  S   S5        1.0  0.75444  0.32537  0.04637  1.0000
  S   S6        1.0  0.74556  0.67463  0.54637  1.0000
  S   S7        1.0  0.24556  0.67463  0.95363  1.0000
  S   S8        1.0  0.25444  0.32537  0.45363  1.0000
  I   I1        1.0  0.06969  0.43412  0.20173  1.0000
  I   I2        1.0  0.43031  0.56588  0.70173  1.0000
  I   I3        1.0  0.93031  0.56588  0.79826  1.0000
  I   I4        1.0  0.56969  0.43412  0.29826  1.0000
  I   I5        1.0  0.04399  0.03000  0.14972  1.0000
  I   I6        1.0  0.45601  0.97000  0.64972  1.0000
  I   I7        1.0  0.95601  0.96999  0.85028  1.0000
  I   I8        1.0  0.54399  0.03001  0.35028  1.0000
  N   N1        1.0  0.48601  0.25260  0.95539  1.0000
  N   N2        1.0  0.01399  0.74739  0.45539  1.0000
  N   N3        1.0  0.51399  0.74739  0.04461  1.0000
  N   N4        1.0  0.98601  0.25261  0.54461  1.0000
