data_image0
_chemical_formula_structural       In2H50C76N4O16
_chemical_formula_sum              "In2 H50 C76 N4 O16"
_cell_length_a       9.81034
_cell_length_b       12.8665
_cell_length_c       13.2297
_cell_angle_alpha    82.4128
_cell_angle_beta     85.4076
_cell_angle_gamma    80.5258

_space_group_name_H-M_alt    "P 1"
_space_group_IT_number       1

loop_
  _space_group_symop_operation_xyz
  'x, y, z'

loop_
  _atom_site_type_symbol
  _atom_site_label
  _atom_site_symmetry_multiplicity
  _atom_site_fract_x
  _atom_site_fract_y
  _atom_site_fract_z
  _atom_site_occupancy
  In  In1       1.0  0.36915  0.73173  0.44632  1.0000
  In  In2       1.0  0.63085  0.26825  0.55368  1.0000
  H   H1        1.0  0.21833  0.91023  0.58197  1.0000
  H   H2        1.0  0.78167  0.08977  0.41804  1.0000
  H   H3        1.0  0.27096  0.00978  0.72198  1.0000
  H   H4        1.0  0.72905  0.99021  0.27802  1.0000
  H   H5        1.0  0.52299  0.00546  0.75502  1.0000
  H   H6        1.0  0.47702  0.99454  0.24497  1.0000
  H   H7        1.0  0.70344  0.90655  0.64875  1.0000
  H   H8        1.0  0.29657  0.09345  0.35123  1.0000
  H   H9        1.0  0.84329  0.82773  0.55479  1.0000
  H   H10       1.0  0.15671  0.17227  0.44520  1.0000
  H   H11       1.0  0.00601  0.72470  0.43749  1.0000
  H   H12       1.0  0.99399  0.27531  0.56251  1.0000
  H   H13       1.0  0.90757  0.63464  0.30839  1.0000
  H   H14       1.0  0.09243  0.36536  0.69161  1.0000
  H   H15       1.0  0.64922  0.64932  0.30691  1.0000
  H   H16       1.0  0.35079  0.35069  0.69308  1.0000
  H   H17       1.0  0.03940  0.04650  0.41895  1.0000
  H   H18       1.0  0.96060  0.95350  0.58105  1.0000
  H   H19       1.0  0.91299  0.21242  0.32768  1.0000
  H   H20       1.0  0.08700  0.78758  0.67233  1.0000
  H   H21       1.0  0.91811  0.23501  0.13755  1.0000
  H   H22       1.0  0.08188  0.76499  0.86246  1.0000
  H   H23       1.0  0.03723  0.09044  0.04109  1.0000
  H   H24       1.0  0.96277  0.90956  0.95892  1.0000
  H   H25       1.0  0.07190  0.78795  0.20472  1.0000
  H   H26       1.0  0.92810  0.21206  0.79528  1.0000
  H   H27       1.0  0.16285  0.64267  0.09950  1.0000
  H   H28       1.0  0.83715  0.35734  0.90049  1.0000
  H   H29       1.0  0.31594  0.67744  0.94382  1.0000
  H   H30       1.0  0.68406  0.32256  0.05618  1.0000
  H   H31       1.0  0.38512  0.85722  0.89782  1.0000
  H   H32       1.0  0.61489  0.14278  0.10218  1.0000
  H   H33       1.0  0.89696  0.51404  0.64890  1.0000
  H   H34       1.0  0.10304  0.48596  0.35111  1.0000
  H   H35       1.0  0.92912  0.67608  0.72477  1.0000
  H   H36       1.0  0.07088  0.32392  0.27523  1.0000
  H   H37       1.0  0.73604  0.76634  0.83197  1.0000
  H   H38       1.0  0.26396  0.23366  0.16803  1.0000
  H   H39       1.0  0.51537  0.69492  0.86143  1.0000
  H   H40       1.0  0.48463  0.30508  0.13857  1.0000
  H   H41       1.0  0.51098  0.43693  0.93931  1.0000
  H   H42       1.0  0.48902  0.56306  0.06069  1.0000
  H   H43       1.0  0.28106  0.38915  0.99884  1.0000
  H   H44       1.0  0.71894  0.61083  0.00115  1.0000
  H   H45       1.0  0.07774  0.45538  0.89184  1.0000
  H   H46       1.0  0.92226  0.54462  0.10816  1.0000
  H   H47       1.0  0.11297  0.56555  0.72429  1.0000
  H   H48       1.0  0.88703  0.43445  0.27571  1.0000
  H   H49       1.0  0.37452  0.12401  0.89356  1.0000
  H   H50       1.0  0.62547  0.87600  0.10645  1.0000
  C   C1        1.0  0.20420  0.89017  0.34173  1.0000
  C   C2        1.0  0.79579  0.10983  0.65828  1.0000
  C   C3        1.0  0.67550  0.41996  0.66200  1.0000
  C   C4        1.0  0.32451  0.58004  0.33800  1.0000
  C   C5        1.0  0.34129  0.62383  0.63428  1.0000
  C   C6        1.0  0.65871  0.37617  0.36572  1.0000
  C   C7        1.0  0.32399  0.91186  0.60015  1.0000
  C   C8        1.0  0.67601  0.08814  0.39984  1.0000
  C   C9        1.0  0.35439  0.96710  0.67703  1.0000
  C   C10       1.0  0.64562  0.03289  0.32297  1.0000
  C   C11       1.0  0.49296  0.96463  0.69532  1.0000
  C   C12       1.0  0.50704  0.03536  0.30468  1.0000
  C   C13       1.0  0.59515  0.90861  0.63538  1.0000
  C   C14       1.0  0.40486  0.09139  0.36461  1.0000
  C   C15       1.0  0.55756  0.85467  0.55942  1.0000
  C   C16       1.0  0.44244  0.14533  0.44057  1.0000
  C   C17       1.0  0.66030  0.79391  0.49233  1.0000
  C   C18       1.0  0.33970  0.20609  0.50766  1.0000
  C   C19       1.0  0.80307  0.78821  0.49861  1.0000
  C   C20       1.0  0.19693  0.21179  0.50138  1.0000
  C   C21       1.0  0.89460  0.73065  0.43281  1.0000
  C   C22       1.0  0.10540  0.26935  0.56718  1.0000
  C   C23       1.0  0.84034  0.68083  0.36131  1.0000
  C   C24       1.0  0.15967  0.31918  0.63868  1.0000
  C   C25       1.0  0.69705  0.68907  0.35924  1.0000
  C   C26       1.0  0.30295  0.31093  0.64075  1.0000
  C   C27       1.0  0.11691  0.97913  0.28156  1.0000
  C   C28       1.0  0.88308  0.02088  0.71845  1.0000
  C   C29       1.0  0.04099  0.05837  0.33571  1.0000
  C   C30       1.0  0.95900  0.94163  0.66429  1.0000
  C   C31       1.0  0.97096  0.15089  0.28474  1.0000
  C   C32       1.0  0.02903  0.84912  0.71526  1.0000
  C   C33       1.0  0.97301  0.16313  0.17822  1.0000
  C   C34       1.0  0.02699  0.83686  0.82178  1.0000
  C   C35       1.0  0.04205  0.08247  0.12392  1.0000
  C   C36       1.0  0.95794  0.91753  0.87609  1.0000
  C   C37       1.0  0.11588  0.98987  0.17416  1.0000
  C   C38       1.0  0.88412  0.01014  0.82584  1.0000
  C   C39       1.0  0.18041  0.90355  0.11382  1.0000
  C   C40       1.0  0.81959  0.09645  0.88619  1.0000
  C   C41       1.0  0.14246  0.80230  0.13817  1.0000
  C   C42       1.0  0.85754  0.19771  0.86183  1.0000
  C   C43       1.0  0.19232  0.72117  0.07848  1.0000
  C   C44       1.0  0.80768  0.27883  0.92152  1.0000
  C   C45       1.0  0.27928  0.74064  0.99146  1.0000
  C   C46       1.0  0.72072  0.25936  0.00854  1.0000
  C   C47       1.0  0.31685  0.84101  0.96510  1.0000
  C   C48       1.0  0.68316  0.15899  0.03490  1.0000
  C   C49       1.0  0.26962  0.92225  0.02644  1.0000
  C   C50       1.0  0.73039  0.07775  0.97356  1.0000
  C   C51       1.0  0.32321  0.02519  0.00325  1.0000
  C   C52       1.0  0.67679  0.97481  0.99676  1.0000
  C   C53       1.0  0.69053  0.51255  0.71448  1.0000
  C   C54       1.0  0.30947  0.48745  0.28553  1.0000
  C   C55       1.0  0.81538  0.55347  0.69795  1.0000
  C   C56       1.0  0.18462  0.44654  0.30205  1.0000
  C   C57       1.0  0.83269  0.64395  0.73968  1.0000
  C   C58       1.0  0.16731  0.35606  0.26032  1.0000
  C   C59       1.0  0.72463  0.69498  0.79908  1.0000
  C   C60       1.0  0.27537  0.30502  0.20091  1.0000
  C   C61       1.0  0.60006  0.65463  0.81571  1.0000
  C   C62       1.0  0.39994  0.34537  0.18429  1.0000
  C   C63       1.0  0.58050  0.56386  0.77408  1.0000
  C   C64       1.0  0.41950  0.43614  0.22592  1.0000
  C   C65       1.0  0.32938  0.56238  0.73778  1.0000
  C   C66       1.0  0.67061  0.43762  0.26223  1.0000
  C   C67       1.0  0.44355  0.52711  0.79867  1.0000
  C   C68       1.0  0.55645  0.47289  0.20133  1.0000
  C   C69       1.0  0.42307  0.46472  0.89220  1.0000
  C   C70       1.0  0.57694  0.53527  0.10780  1.0000
  C   C71       1.0  0.29339  0.43769  0.92562  1.0000
  C   C72       1.0  0.70661  0.56230  0.07438  1.0000
  C   C73       1.0  0.18005  0.47471  0.86602  1.0000
  C   C74       1.0  0.81995  0.52529  0.13398  1.0000
  C   C75       1.0  0.19890  0.53671  0.77292  1.0000
  C   C76       1.0  0.80110  0.46329  0.22708  1.0000
  N   N1        1.0  0.42272  0.85650  0.54395  1.0000
  N   N2        1.0  0.57727  0.14349  0.45605  1.0000
  N   N3        1.0  0.60948  0.74404  0.42340  1.0000
  N   N4        1.0  0.39052  0.25596  0.57659  1.0000
  O   O1        1.0  0.16182  0.85781  0.43219  1.0000
  O   O2        1.0  0.83816  0.14218  0.56781  1.0000
  O   O3        1.0  0.32306  0.85084  0.30394  1.0000
  O   O4        1.0  0.67693  0.14917  0.69607  1.0000
  O   O5        1.0  0.55974  0.38522  0.66978  1.0000
  O   O6        1.0  0.44026  0.61479  0.33019  1.0000
  O   O7        1.0  0.77699  0.37717  0.60721  1.0000
  O   O8        1.0  0.22303  0.62280  0.39281  1.0000
  O   O9        1.0  0.45626  0.61480  0.58067  1.0000
  O   O10       1.0  0.54374  0.38519  0.41932  1.0000
  O   O11       1.0  0.23460  0.68408  0.59929  1.0000
  O   O12       1.0  0.76540  0.31592  0.40072  1.0000
  O   O13       1.0  0.36156  0.07392  0.06649  1.0000
  O   O14       1.0  0.63843  0.92609  0.93351  1.0000
  O   O15       1.0  0.32918  0.06060  0.90145  1.0000
  O   O16       1.0  0.67083  0.93940  0.09855  1.0000
