data_image0
_chemical_formula_structural       Co2H40C44N4O8
_chemical_formula_sum              "Co2 H40 C44 N4 O8"
_cell_length_a       8.79825
_cell_length_b       10.1544
_cell_length_c       11.6818
_cell_angle_alpha    68.6424
_cell_angle_beta     84.865
_cell_angle_gamma    78.0655

_space_group_name_H-M_alt    "P 1"
_space_group_IT_number       1

loop_
  _space_group_symop_operation_xyz
  'x, y, z'

loop_
  _atom_site_type_symbol
  _atom_site_label
  _atom_site_symmetry_multiplicity
  _atom_site_fract_x
  _atom_site_fract_y
  _atom_site_fract_z
  _atom_site_occupancy
  Co  Co1       1.0  0.35806  0.84324  0.05689  1.0000
  Co  Co2       1.0  0.64193  0.15675  0.94312  1.0000
  H   H1        1.0  0.37753  0.39585  0.02884  1.0000
  H   H2        1.0  0.62246  0.60414  0.97116  1.0000
  H   H3        1.0  0.01779  0.14482  0.16810  1.0000
  H   H4        1.0  0.98220  0.85518  0.83190  1.0000
  H   H5        1.0  0.96007  0.56967  0.18618  1.0000
  H   H6        1.0  0.03992  0.43033  0.81382  1.0000
  H   H7        1.0  0.72042  0.38372  0.17185  1.0000
  H   H8        1.0  0.27957  0.61627  0.82816  1.0000
  H   H9        1.0  0.78289  0.39427  0.30833  1.0000
  H   H10       1.0  0.21711  0.60572  0.69167  1.0000
  H   H11       1.0  0.80524  0.22502  0.28966  1.0000
  H   H12       1.0  0.19476  0.77497  0.71034  1.0000
  H   H13       1.0  0.46798  0.84146  0.80799  1.0000
  H   H14       1.0  0.53203  0.15854  0.19201  1.0000
  H   H15       1.0  0.40397  0.97841  0.58879  1.0000
  H   H16       1.0  0.59604  0.02160  0.41121  1.0000
  H   H17       1.0  0.99858  0.21660  0.71247  1.0000
  H   H18       1.0  0.00143  0.78341  0.28752  1.0000
  H   H19       1.0  0.07994  0.07294  0.92388  1.0000
  H   H20       1.0  0.92005  0.92707  0.07612  1.0000
  H   H21       1.0  0.06175  0.29299  0.49326  1.0000
  H   H22       1.0  0.93826  0.70702  0.50674  1.0000
  H   H23       1.0  0.09131  0.13141  0.46449  1.0000
  H   H24       1.0  0.90869  0.86860  0.53551  1.0000
  H   H25       1.0  0.37768  0.14946  0.41713  1.0000
  H   H26       1.0  0.62232  0.85054  0.58287  1.0000
  H   H27       1.0  0.23954  0.27234  0.31214  1.0000
  H   H28       1.0  0.76047  0.72766  0.68786  1.0000
  H   H29       1.0  0.43080  0.39949  0.33225  1.0000
  H   H30       1.0  0.56920  0.60050  0.66775  1.0000
  H   H31       1.0  0.25306  0.46398  0.39388  1.0000
  H   H32       1.0  0.74695  0.53603  0.60611  1.0000
  H   H33       1.0  0.36046  0.36293  0.81256  1.0000
  H   H34       1.0  0.63955  0.63706  0.18744  1.0000
  H   H35       1.0  0.23205  0.44353  0.60916  1.0000
  H   H36       1.0  0.76796  0.55647  0.39084  1.0000
  H   H37       1.0  0.64501  0.22192  0.48195  1.0000
  H   H38       1.0  0.35501  0.77808  0.51805  1.0000
  H   H39       1.0  0.75459  0.14855  0.69134  1.0000
  H   H40       1.0  0.24541  0.85145  0.30866  1.0000
  C   C1        1.0  0.17337  0.49568  0.10506  1.0000
  C   C2        1.0  0.82662  0.50431  0.89494  1.0000
  C   C3        1.0  0.26289  0.38438  0.07069  1.0000
  C   C4        1.0  0.73710  0.61562  0.92932  1.0000
  C   C5        1.0  0.20584  0.25801  0.09376  1.0000
  C   C6        1.0  0.79415  0.74199  0.90624  1.0000
  C   C7        1.0  0.05974  0.24434  0.15048  1.0000
  C   C8        1.0  0.94026  0.75565  0.84952  1.0000
  C   C9        1.0  0.96859  0.35512  0.18408  1.0000
  C   C10       1.0  0.03141  0.64486  0.81593  1.0000
  C   C11       1.0  0.02717  0.48076  0.16096  1.0000
  C   C12       1.0  0.97281  0.51923  0.83904  1.0000
  C   C13       1.0  0.23592  0.62867  0.08455  1.0000
  C   C14       1.0  0.76407  0.37133  0.91545  1.0000
  C   C15       1.0  0.30051  0.13573  0.06123  1.0000
  C   C16       1.0  0.69947  0.86427  0.93878  1.0000
  C   C17       1.0  0.81117  0.33893  0.24212  1.0000
  C   C18       1.0  0.18883  0.66106  0.75788  1.0000
  C   C19       1.0  0.36559  0.92681  0.78237  1.0000
  C   C20       1.0  0.63441  0.07319  0.21763  1.0000
  C   C21       1.0  0.32796  0.00339  0.65996  1.0000
  C   C22       1.0  0.67205  0.99661  0.34005  1.0000
  C   C23       1.0  0.19514  0.11191  0.62886  1.0000
  C   C24       1.0  0.80486  0.88809  0.37114  1.0000
  C   C25       1.0  0.10403  0.13451  0.72699  1.0000
  C   C26       1.0  0.89597  0.86550  0.27301  1.0000
  C   C27       1.0  0.14919  0.05369  0.84750  1.0000
  C   C28       1.0  0.85081  0.94632  0.15250  1.0000
  C   C29       1.0  0.15012  0.19728  0.49681  1.0000
  C   C30       1.0  0.84988  0.80273  0.50320  1.0000
  C   C31       1.0  0.28256  0.24245  0.40499  1.0000
  C   C32       1.0  0.71744  0.75755  0.59501  1.0000
  C   C33       1.0  0.34793  0.36996  0.40944  1.0000
  C   C34       1.0  0.65208  0.63004  0.59055  1.0000
  C   C35       1.0  0.41924  0.33497  0.73616  1.0000
  C   C36       1.0  0.58076  0.66502  0.26384  1.0000
  C   C37       1.0  0.34915  0.37905  0.62292  1.0000
  C   C38       1.0  0.65086  0.62096  0.37708  1.0000
  C   C39       1.0  0.42633  0.33711  0.52830  1.0000
  C   C40       1.0  0.57368  0.66290  0.47170  1.0000
  C   C41       1.0  0.57715  0.25590  0.55261  1.0000
  C   C42       1.0  0.42287  0.74411  0.44739  1.0000
  C   C43       1.0  0.63978  0.21571  0.66819  1.0000
  C   C44       1.0  0.36023  0.78428  0.33181  1.0000
  N   N1        1.0  0.27915  0.95164  0.87610  1.0000
  N   N2        1.0  0.72085  0.04836  0.12390  1.0000
  N   N3        1.0  0.56143  0.25189  0.76028  1.0000
  N   N4        1.0  0.43857  0.74811  0.23972  1.0000
  O   O1        1.0  0.16103  0.72675  0.12333  1.0000
  O   O2        1.0  0.83898  0.27325  0.87667  1.0000
  O   O3        1.0  0.36705  0.64271  0.02934  1.0000
  O   O4        1.0  0.63293  0.35729  0.97067  1.0000
  O   O5        1.0  0.42189  0.15638  0.99490  1.0000
  O   O6        1.0  0.57810  0.84361  0.00510  1.0000
  O   O7        1.0  0.25244  0.01613  0.10179  1.0000
  O   O8        1.0  0.74757  0.98386  0.89821  1.0000
