data_image0
_chemical_formula_structural       Sm2H40C36N4O22
_chemical_formula_sum              "Sm2 H40 C36 N4 O22"
_cell_length_a       10.565
_cell_length_b       11.0397
_cell_length_c       12.7396
_cell_angle_alpha    103.976
_cell_angle_beta     109.612
_cell_angle_gamma    96.8145

_space_group_name_H-M_alt    "P 1"
_space_group_IT_number       1

loop_
  _space_group_symop_operation_xyz
  'x, y, z'

loop_
  _atom_site_type_symbol
  _atom_site_label
  _atom_site_symmetry_multiplicity
  _atom_site_fract_x
  _atom_site_fract_y
  _atom_site_fract_z
  _atom_site_occupancy
  Sm  Sm1       1.0  0.10064  0.54569  0.68116  1.0000
  Sm  Sm2       1.0  0.89936  0.45431  0.31884  1.0000
  H   H1        1.0  0.92666  0.14013  0.30118  1.0000
  H   H2        1.0  0.07334  0.85987  0.69882  1.0000
  H   H3        1.0  0.23564  0.39005  0.26237  1.0000
  H   H4        1.0  0.76436  0.60995  0.73764  1.0000
  H   H5        1.0  0.17833  0.89947  0.93454  1.0000
  H   H6        1.0  0.82167  0.10053  0.06546  1.0000
  H   H7        1.0  0.00699  0.16277  0.67541  1.0000
  H   H8        1.0  0.99300  0.83723  0.32459  1.0000
  H   H9        1.0  0.40167  0.57304  0.65014  1.0000
  H   H10       1.0  0.59833  0.42696  0.34986  1.0000
  H   H11       1.0  0.56092  0.82206  0.87733  1.0000
  H   H12       1.0  0.43908  0.17794  0.12267  1.0000
  H   H13       1.0  0.45527  0.51760  0.82772  1.0000
  H   H14       1.0  0.54473  0.48240  0.17228  1.0000
  H   H15       1.0  0.63738  0.45671  0.91275  1.0000
  H   H16       1.0  0.36262  0.54329  0.08725  1.0000
  H   H17       1.0  0.64145  0.29232  0.86328  1.0000
  H   H18       1.0  0.35855  0.70768  0.13672  1.0000
  H   H19       1.0  0.60489  0.34977  0.99080  1.0000
  H   H20       1.0  0.39511  0.65023  0.00920  1.0000
  H   H21       1.0  0.25972  0.19514  0.74139  1.0000
  H   H22       1.0  0.74027  0.80487  0.25861  1.0000
  H   H23       1.0  0.36754  0.17419  0.87574  1.0000
  H   H24       1.0  0.63246  0.82581  0.12426  1.0000
  H   H25       1.0  0.41135  0.13393  0.75011  1.0000
  H   H26       1.0  0.58864  0.86607  0.24989  1.0000
  H   H27       1.0  0.87996  0.35589  0.74890  1.0000
  H   H28       1.0  0.12004  0.64411  0.25110  1.0000
  H   H29       1.0  0.79573  0.18637  0.77741  1.0000
  H   H30       1.0  0.20427  0.81363  0.22259  1.0000
  H   H31       1.0  0.84081  0.20025  0.92949  1.0000
  H   H32       1.0  0.15919  0.79975  0.07051  1.0000
  H   H33       1.0  0.91729  0.10222  0.84570  1.0000
  H   H34       1.0  0.08271  0.89778  0.15430  1.0000
  H   H35       1.0  0.19236  0.39391  0.99588  1.0000
  H   H36       1.0  0.80764  0.60609  0.00411  1.0000
  H   H37       1.0  0.15021  0.22741  0.98457  1.0000
  H   H38       1.0  0.84979  0.77259  0.01543  1.0000
  H   H39       1.0  0.08857  0.34185  0.06960  1.0000
  H   H40       1.0  0.91143  0.65815  0.93040  1.0000
  C   C1        1.0  0.97059  0.02816  0.39246  1.0000
  C   C2        1.0  0.02941  0.97184  0.60754  1.0000
  C   C3        1.0  0.97392  0.12021  0.49347  1.0000
  C   C4        1.0  0.02609  0.87979  0.50653  1.0000
  C   C5        1.0  0.00319  0.09046  0.59866  1.0000
  C   C6        1.0  0.99681  0.90954  0.40134  1.0000
  C   C7        1.0  0.95164  0.24986  0.49122  1.0000
  C   C8        1.0  0.04836  0.75014  0.50878  1.0000
  C   C9        1.0  0.41291  0.44359  0.38096  1.0000
  C   C10       1.0  0.58709  0.55641  0.61904  1.0000
  C   C11       1.0  0.35694  0.48259  0.46769  1.0000
  C   C12       1.0  0.64306  0.51741  0.53231  1.0000
  C   C13       1.0  0.44473  0.53931  0.58480  1.0000
  C   C14       1.0  0.55527  0.46069  0.41520  1.0000
  C   C15       1.0  0.20632  0.46358  0.43517  1.0000
  C   C16       1.0  0.79368  0.53642  0.56483  1.0000
  C   C17       1.0  0.36333  0.99042  0.99630  1.0000
  C   C18       1.0  0.63667  0.00958  0.00370  1.0000
  C   C19       1.0  0.39994  0.88941  0.92741  1.0000
  C   C20       1.0  0.60006  0.11059  0.07259  1.0000
  C   C21       1.0  0.53511  0.90033  0.93136  1.0000
  C   C22       1.0  0.46489  0.09967  0.06864  1.0000
  C   C23       1.0  0.29673  0.77000  0.85266  1.0000
  C   C24       1.0  0.70327  0.23000  0.14734  1.0000
  C   C25       1.0  0.38472  0.42301  0.79676  1.0000
  C   C26       1.0  0.61528  0.57700  0.20324  1.0000
  C   C27       1.0  0.58986  0.35910  0.90373  1.0000
  C   C28       1.0  0.41014  0.64090  0.09627  1.0000
  C   C29       1.0  0.36581  0.20096  0.79768  1.0000
  C   C30       1.0  0.63419  0.79904  0.20233  1.0000
  C   C31       1.0  0.97869  0.38128  0.82438  1.0000
  C   C32       1.0  0.02131  0.61872  0.17562  1.0000
  C   C33       1.0  0.87948  0.19112  0.85859  1.0000
  C   C34       1.0  0.12052  0.80888  0.14141  1.0000
  C   C35       1.0  0.11330  0.31689  0.99092  1.0000
  C   C36       1.0  0.88670  0.68311  0.00908  1.0000
  N   N1        1.0  0.44429  0.33125  0.83098  1.0000
  N   N2        1.0  0.55571  0.66875  0.16902  1.0000
  N   N3        1.0  0.99055  0.30031  0.88810  1.0000
  N   N4        1.0  0.00945  0.69969  0.11190  1.0000
  O   O1        1.0  0.96909  0.33256  0.58622  1.0000
  O   O2        1.0  0.03091  0.66744  0.41378  1.0000
  O   O3        1.0  0.91698  0.27151  0.39147  1.0000
  O   O4        1.0  0.08302  0.72848  0.60853  1.0000
  O   O5        1.0  0.94298  0.05083  0.28785  1.0000
  O   O6        1.0  0.05702  0.94917  0.71215  1.0000
  O   O7        1.0  0.15378  0.48585  0.51236  1.0000
  O   O8        1.0  0.84622  0.51415  0.48764  1.0000
  O   O9        1.0  0.12820  0.42463  0.32540  1.0000
  O   O10       1.0  0.87180  0.57537  0.67460  1.0000
  O   O11       1.0  0.33228  0.39027  0.26575  1.0000
  O   O12       1.0  0.66772  0.60973  0.73425  1.0000
  O   O13       1.0  0.17278  0.75699  0.85091  1.0000
  O   O14       1.0  0.82722  0.24301  0.14909  1.0000
  O   O15       1.0  0.33050  0.67956  0.79118  1.0000
  O   O16       1.0  0.66949  0.32044  0.20882  1.0000
  O   O17       1.0  0.23308  0.98436  0.99320  1.0000
  O   O18       1.0  0.76692  0.01564  0.00680  1.0000
  O   O19       1.0  0.25980  0.40584  0.73522  1.0000
  O   O20       1.0  0.74021  0.59416  0.26478  1.0000
  O   O21       1.0  0.06950  0.47771  0.84426  1.0000
  O   O22       1.0  0.93050  0.52229  0.15574  1.0000
