data_image0
_chemical_formula_structural       Gd2H40C36N4O22
_chemical_formula_sum              "Gd2 H40 C36 N4 O22"
_cell_length_a       10.6189
_cell_length_b       10.9456
_cell_length_c       12.7711
_cell_angle_alpha    103.966
_cell_angle_beta     109.835
_cell_angle_gamma    96.8439

_space_group_name_H-M_alt    "P 1"
_space_group_IT_number       1

loop_
  _space_group_symop_operation_xyz
  'x, y, z'

loop_
  _atom_site_type_symbol
  _atom_site_label
  _atom_site_symmetry_multiplicity
  _atom_site_fract_x
  _atom_site_fract_y
  _atom_site_fract_z
  _atom_site_occupancy
  Gd  Gd1       1.0  0.10092  0.54547  0.68267  1.0000
  Gd  Gd2       1.0  0.89908  0.45453  0.31733  1.0000
  H   H1        1.0  0.93154  0.14157  0.30147  1.0000
  H   H2        1.0  0.06846  0.85843  0.69853  1.0000
  H   H3        1.0  0.22922  0.39362  0.26765  1.0000
  H   H4        1.0  0.77078  0.60639  0.73235  1.0000
  H   H5        1.0  0.17937  0.90020  0.93541  1.0000
  H   H6        1.0  0.82062  0.09980  0.06458  1.0000
  H   H7        1.0  0.00423  0.16396  0.67387  1.0000
  H   H8        1.0  0.99577  0.83604  0.32613  1.0000
  H   H9        1.0  0.41020  0.57297  0.65521  1.0000
  H   H10       1.0  0.58981  0.42704  0.34480  1.0000
  H   H11       1.0  0.55748  0.82148  0.87426  1.0000
  H   H12       1.0  0.44252  0.17852  0.12574  1.0000
  H   H13       1.0  0.44793  0.51689  0.82682  1.0000
  H   H14       1.0  0.55206  0.48310  0.17317  1.0000
  H   H15       1.0  0.63218  0.45703  0.90516  1.0000
  H   H16       1.0  0.36782  0.54297  0.09484  1.0000
  H   H17       1.0  0.63683  0.29136  0.85618  1.0000
  H   H18       1.0  0.36316  0.70864  0.14383  1.0000
  H   H19       1.0  0.60675  0.35029  0.98637  1.0000
  H   H20       1.0  0.39324  0.64971  0.01363  1.0000
  H   H21       1.0  0.25777  0.18948  0.74218  1.0000
  H   H22       1.0  0.74223  0.81052  0.25783  1.0000
  H   H23       1.0  0.36960  0.16996  0.87555  1.0000
  H   H24       1.0  0.63040  0.83003  0.12445  1.0000
  H   H25       1.0  0.40959  0.13057  0.74852  1.0000
  H   H26       1.0  0.59041  0.86943  0.25148  1.0000
  H   H27       1.0  0.87646  0.35850  0.75051  1.0000
  H   H28       1.0  0.12356  0.64150  0.24949  1.0000
  H   H29       1.0  0.79600  0.18831  0.78294  1.0000
  H   H30       1.0  0.20400  0.81169  0.21705  1.0000
  H   H31       1.0  0.84838  0.20581  0.93590  1.0000
  H   H32       1.0  0.15162  0.79419  0.06410  1.0000
  H   H33       1.0  0.91849  0.10352  0.84921  1.0000
  H   H34       1.0  0.08151  0.89648  0.15079  1.0000
  H   H35       1.0  0.19683  0.39427  0.98798  1.0000
  H   H36       1.0  0.80317  0.60573  0.01202  1.0000
  H   H37       1.0  0.15367  0.22715  0.97906  1.0000
  H   H38       1.0  0.84633  0.77285  0.02094  1.0000
  H   H39       1.0  0.10060  0.34571  0.06813  1.0000
  H   H40       1.0  0.89940  0.65429  0.93186  1.0000
  C   C1        1.0  0.97244  0.02848  0.39282  1.0000
  C   C2        1.0  0.02756  0.97152  0.60718  1.0000
  C   C3        1.0  0.97441  0.12129  0.49304  1.0000
  C   C4        1.0  0.02558  0.87871  0.50696  1.0000
  C   C5        1.0  0.00180  0.09111  0.59786  1.0000
  C   C6        1.0  0.99819  0.90889  0.40214  1.0000
  C   C7        1.0  0.95351  0.25233  0.49053  1.0000
  C   C8        1.0  0.04649  0.74767  0.50947  1.0000
  C   C9        1.0  0.40892  0.44536  0.38188  1.0000
  C   C10       1.0  0.59109  0.55465  0.61813  1.0000
  C   C11       1.0  0.35825  0.48425  0.47165  1.0000
  C   C12       1.0  0.64176  0.51576  0.52836  1.0000
  C   C13       1.0  0.44988  0.53918  0.58785  1.0000
  C   C14       1.0  0.55012  0.46083  0.41216  1.0000
  C   C15       1.0  0.20900  0.46696  0.44376  1.0000
  C   C16       1.0  0.79100  0.53304  0.55624  1.0000
  C   C17       1.0  0.36430  0.99077  0.99720  1.0000
  C   C18       1.0  0.63569  0.00923  0.00279  1.0000
  C   C19       1.0  0.39909  0.88943  0.92668  1.0000
  C   C20       1.0  0.60091  0.11057  0.07331  1.0000
  C   C21       1.0  0.53320  0.90007  0.92960  1.0000
  C   C22       1.0  0.46679  0.09993  0.07040  1.0000
  C   C23       1.0  0.29499  0.76985  0.85134  1.0000
  C   C24       1.0  0.70500  0.23015  0.14866  1.0000
  C   C25       1.0  0.37862  0.42119  0.79735  1.0000
  C   C26       1.0  0.62138  0.57881  0.20265  1.0000
  C   C27       1.0  0.58707  0.35865  0.89842  1.0000
  C   C28       1.0  0.41292  0.64135  0.10158  1.0000
  C   C29       1.0  0.36461  0.19707  0.79709  1.0000
  C   C30       1.0  0.63539  0.80292  0.20291  1.0000
  C   C31       1.0  0.97692  0.38399  0.82395  1.0000
  C   C32       1.0  0.02309  0.61601  0.17605  1.0000
  C   C33       1.0  0.88237  0.19384  0.86256  1.0000
  C   C34       1.0  0.11763  0.80616  0.13744  1.0000
  C   C35       1.0  0.11898  0.31844  0.98681  1.0000
  C   C36       1.0  0.88102  0.68156  0.01319  1.0000
  N   N1        1.0  0.44070  0.32905  0.82922  1.0000
  N   N2        1.0  0.55929  0.67095  0.17078  1.0000
  N   N3        1.0  0.99275  0.30234  0.88754  1.0000
  N   N4        1.0  0.00726  0.69766  0.11245  1.0000
  O   O1        1.0  0.96853  0.33549  0.58484  1.0000
  O   O2        1.0  0.03146  0.66451  0.41516  1.0000
  O   O3        1.0  0.92287  0.27488  0.39141  1.0000
  O   O4        1.0  0.07713  0.72512  0.60859  1.0000
  O   O5        1.0  0.94643  0.05109  0.28840  1.0000
  O   O6        1.0  0.05357  0.94891  0.71160  1.0000
  O   O7        1.0  0.16294  0.49031  0.52439  1.0000
  O   O8        1.0  0.83707  0.50970  0.47561  1.0000
  O   O9        1.0  0.12709  0.42837  0.33503  1.0000
  O   O10       1.0  0.87292  0.57163  0.66498  1.0000
  O   O11       1.0  0.32409  0.39361  0.26747  1.0000
  O   O12       1.0  0.67592  0.60641  0.73254  1.0000
  O   O13       1.0  0.17189  0.75681  0.85011  1.0000
  O   O14       1.0  0.82811  0.24319  0.14989  1.0000
  O   O15       1.0  0.32728  0.67893  0.78868  1.0000
  O   O16       1.0  0.67272  0.32107  0.21132  1.0000
  O   O17       1.0  0.23500  0.98523  0.99475  1.0000
  O   O18       1.0  0.76500  0.01477  0.00525  1.0000
  O   O19       1.0  0.25289  0.40353  0.73953  1.0000
  O   O20       1.0  0.74711  0.59647  0.26046  1.0000
  O   O21       1.0  0.06613  0.48156  0.84211  1.0000
  O   O22       1.0  0.93388  0.51844  0.15789  1.0000
