data_image0
_chemical_formula_structural       Er2H40C36N4O22
_chemical_formula_sum              "Er2 H40 C36 N4 O22"
_cell_length_a       10.6478
_cell_length_b       10.7969
_cell_length_c       12.8978
_cell_angle_alpha    103.345
_cell_angle_beta     110.945
_cell_angle_gamma    96.8262

_space_group_name_H-M_alt    "P 1"
_space_group_IT_number       1

loop_
  _space_group_symop_operation_xyz
  'x, y, z'

loop_
  _atom_site_type_symbol
  _atom_site_label
  _atom_site_symmetry_multiplicity
  _atom_site_fract_x
  _atom_site_fract_y
  _atom_site_fract_z
  _atom_site_occupancy
  Er  Er1       1.0  0.10421  0.54398  0.68423  1.0000
  Er  Er2       1.0  0.89579  0.45602  0.31577  1.0000
  H   H1        1.0  0.93376  0.14576  0.30252  1.0000
  H   H2        1.0  0.06623  0.85424  0.69748  1.0000
  H   H3        1.0  0.21776  0.40023  0.27488  1.0000
  H   H4        1.0  0.78225  0.59978  0.72512  1.0000
  H   H5        1.0  0.17910  0.89540  0.93320  1.0000
  H   H6        1.0  0.82089  0.10460  0.06680  1.0000
  H   H7        1.0  0.00263  0.16388  0.67107  1.0000
  H   H8        1.0  0.99738  0.83612  0.32893  1.0000
  H   H9        1.0  0.42287  0.56954  0.66061  1.0000
  H   H10       1.0  0.57714  0.43046  0.33939  1.0000
  H   H11       1.0  0.55718  0.82232  0.87494  1.0000
  H   H12       1.0  0.44281  0.17767  0.12506  1.0000
  H   H13       1.0  0.44693  0.51634  0.83052  1.0000
  H   H14       1.0  0.55306  0.48366  0.16949  1.0000
  H   H15       1.0  0.63512  0.45346  0.89692  1.0000
  H   H16       1.0  0.36487  0.54655  0.10309  1.0000
  H   H17       1.0  0.63755  0.28610  0.84648  1.0000
  H   H18       1.0  0.36245  0.71391  0.15353  1.0000
  H   H19       1.0  0.61729  0.34455  0.97918  1.0000
  H   H20       1.0  0.38271  0.65546  0.02083  1.0000
  H   H21       1.0  0.25961  0.18216  0.73830  1.0000
  H   H22       1.0  0.74039  0.81784  0.26171  1.0000
  H   H23       1.0  0.37628  0.15797  0.86841  1.0000
  H   H24       1.0  0.62372  0.84202  0.13159  1.0000
  H   H25       1.0  0.41167  0.12529  0.74090  1.0000
  H   H26       1.0  0.58833  0.87471  0.25911  1.0000
  H   H27       1.0  0.87281  0.35685  0.74608  1.0000
  H   H28       1.0  0.12719  0.64315  0.25392  1.0000
  H   H29       1.0  0.79652  0.18384  0.78113  1.0000
  H   H30       1.0  0.20348  0.81616  0.21888  1.0000
  H   H31       1.0  0.85447  0.20205  0.93365  1.0000
  H   H32       1.0  0.14553  0.79794  0.06635  1.0000
  H   H33       1.0  0.92236  0.09926  0.84713  1.0000
  H   H34       1.0  0.07764  0.90073  0.15287  1.0000
  H   H35       1.0  0.20176  0.39121  0.97622  1.0000
  H   H36       1.0  0.79824  0.60879  0.02378  1.0000
  H   H37       1.0  0.15750  0.22419  0.97374  1.0000
  H   H38       1.0  0.84250  0.77581  0.02627  1.0000
  H   H39       1.0  0.11339  0.34946  0.06270  1.0000
  H   H40       1.0  0.88661  0.65054  0.93730  1.0000
  C   C1        1.0  0.97444  0.03050  0.39408  1.0000
  C   C2        1.0  0.02556  0.96950  0.60592  1.0000
  C   C3        1.0  0.97497  0.12312  0.49249  1.0000
  C   C4        1.0  0.02504  0.87689  0.50750  1.0000
  C   C5        1.0  0.00053  0.09094  0.59613  1.0000
  C   C6        1.0  0.99947  0.90906  0.40386  1.0000
  C   C7        1.0  0.95407  0.25591  0.48946  1.0000
  C   C8        1.0  0.04593  0.74409  0.51054  1.0000
  C   C9        1.0  0.40221  0.44880  0.38362  1.0000
  C   C10       1.0  0.59780  0.55121  0.61638  1.0000
  C   C11       1.0  0.35912  0.48574  0.47652  1.0000
  C   C12       1.0  0.64089  0.51427  0.52347  1.0000
  C   C13       1.0  0.45737  0.53732  0.59099  1.0000
  C   C14       1.0  0.54264  0.46269  0.40901  1.0000
  C   C15       1.0  0.21080  0.46962  0.45420  1.0000
  C   C16       1.0  0.78921  0.53039  0.54580  1.0000
  C   C17       1.0  0.36421  0.98874  0.99640  1.0000
  C   C18       1.0  0.63578  0.01126  0.00360  1.0000
  C   C19       1.0  0.39901  0.88803  0.92626  1.0000
  C   C20       1.0  0.60098  0.11197  0.07373  1.0000
  C   C21       1.0  0.53320  0.90058  0.93005  1.0000
  C   C22       1.0  0.46679  0.09941  0.06994  1.0000
  C   C23       1.0  0.29478  0.76713  0.85013  1.0000
  C   C24       1.0  0.70521  0.23287  0.14987  1.0000
  C   C25       1.0  0.37824  0.41878  0.79994  1.0000
  C   C26       1.0  0.62175  0.58122  0.20006  1.0000
  C   C27       1.0  0.59125  0.35385  0.89125  1.0000
  C   C28       1.0  0.40875  0.64615  0.10876  1.0000
  C   C29       1.0  0.36794  0.18948  0.79154  1.0000
  C   C30       1.0  0.63206  0.81051  0.20847  1.0000
  C   C31       1.0  0.97510  0.38291  0.81867  1.0000
  C   C32       1.0  0.02490  0.61709  0.18133  1.0000
  C   C33       1.0  0.88562  0.19022  0.86008  1.0000
  C   C34       1.0  0.11438  0.80978  0.13993  1.0000
  C   C35       1.0  0.12496  0.31753  0.97996  1.0000
  C   C36       1.0  0.87504  0.68247  0.02004  1.0000
  N   N1        1.0  0.44287  0.32415  0.82613  1.0000
  N   N2        1.0  0.55713  0.67585  0.17388  1.0000
  N   N3        1.0  0.99461  0.30058  0.88289  1.0000
  N   N4        1.0  0.00539  0.69942  0.11711  1.0000
  O   O1        1.0  0.97095  0.33960  0.58310  1.0000
  O   O2        1.0  0.02905  0.66040  0.41689  1.0000
  O   O3        1.0  0.92123  0.27922  0.39080  1.0000
  O   O4        1.0  0.07876  0.72078  0.60920  1.0000
  O   O5        1.0  0.95034  0.05494  0.29082  1.0000
  O   O6        1.0  0.04966  0.94506  0.70917  1.0000
  O   O7        1.0  0.17335  0.49185  0.53814  1.0000
  O   O8        1.0  0.82667  0.50816  0.46187  1.0000
  O   O9        1.0  0.12280  0.43286  0.34720  1.0000
  O   O10       1.0  0.87720  0.56714  0.65280  1.0000
  O   O11       1.0  0.31067  0.40031  0.27081  1.0000
  O   O12       1.0  0.68934  0.59970  0.72919  1.0000
  O   O13       1.0  0.17110  0.75271  0.84694  1.0000
  O   O14       1.0  0.82889  0.24729  0.15306  1.0000
  O   O15       1.0  0.32691  0.67640  0.78820  1.0000
  O   O16       1.0  0.67308  0.32360  0.21180  1.0000
  O   O17       1.0  0.23473  0.98099  0.99318  1.0000
  O   O18       1.0  0.76527  0.01901  0.00681  1.0000
  O   O19       1.0  0.25079  0.40158  0.74597  1.0000
  O   O20       1.0  0.74921  0.59842  0.25402  1.0000
  O   O21       1.0  0.06335  0.48201  0.83568  1.0000
  O   O22       1.0  0.93665  0.51799  0.16432  1.0000
