data_image0
_chemical_formula_structural       Cd3H62C52N8O12
_chemical_formula_sum              "Cd3 H62 C52 N8 O12"
_cell_length_a       8.65692
_cell_length_b       9.42036
_cell_length_c       16.064
_cell_angle_alpha    93.746
_cell_angle_beta     94.9659
_cell_angle_gamma    98.8323

_space_group_name_H-M_alt    "P 1"
_space_group_IT_number       1

loop_
  _space_group_symop_operation_xyz
  'x, y, z'

loop_
  _atom_site_type_symbol
  _atom_site_label
  _atom_site_symmetry_multiplicity
  _atom_site_fract_x
  _atom_site_fract_y
  _atom_site_fract_z
  _atom_site_occupancy
  Cd  Cd1       1.0  0.32742  0.43284  0.74224  1.0000
  Cd  Cd2       1.0  0.67258  0.56715  0.25776  1.0000
  Cd  Cd3       1.0  0.50000  0.50000  0.00000  1.0000
  H   H1        1.0  0.02788  0.74115  0.42301  1.0000
  H   H2        1.0  0.97213  0.25885  0.57699  1.0000
  H   H3        1.0  0.28569  0.74751  0.36108  1.0000
  H   H4        1.0  0.71431  0.25249  0.63892  1.0000
  H   H5        1.0  0.51611  0.68208  0.44136  1.0000
  H   H6        1.0  0.48390  0.31792  0.55864  1.0000
  H   H7        1.0  0.50135  0.60553  0.58745  1.0000
  H   H8        1.0  0.49866  0.39448  0.41255  1.0000
  H   H9        1.0  0.98975  0.57375  0.71373  1.0000
  H   H10       1.0  0.01026  0.42626  0.28627  1.0000
  H   H11       1.0  0.80025  0.62905  0.51064  1.0000
  H   H12       1.0  0.19975  0.37095  0.48936  1.0000
  H   H13       1.0  0.77308  0.63553  0.61926  1.0000
  H   H14       1.0  0.22693  0.36448  0.38075  1.0000
  H   H15       1.0  0.92917  0.89022  0.52916  1.0000
  H   H16       1.0  0.07083  0.10978  0.47084  1.0000
  H   H17       1.0  0.72746  0.85862  0.53905  1.0000
  H   H18       1.0  0.27254  0.14138  0.46095  1.0000
  H   H19       1.0  0.90641  0.04516  0.64861  1.0000
  H   H20       1.0  0.09359  0.95484  0.35139  1.0000
  H   H21       1.0  0.96564  0.89610  0.69456  1.0000
  H   H22       1.0  0.03435  0.10390  0.30544  1.0000
  H   H23       1.0  0.62454  0.94794  0.66399  1.0000
  H   H24       1.0  0.37546  0.05206  0.33601  1.0000
  H   H25       1.0  0.68157  0.79905  0.71180  1.0000
  H   H26       1.0  0.31842  0.20095  0.28820  1.0000
  H   H27       1.0  0.77064  0.11768  0.77679  1.0000
  H   H28       1.0  0.22936  0.88232  0.22321  1.0000
  H   H29       1.0  0.84645  0.97745  0.82636  1.0000
  H   H30       1.0  0.15354  0.02255  0.17364  1.0000
  H   H31       1.0  0.57727  0.86782  0.85503  1.0000
  H   H32       1.0  0.42272  0.13218  0.14497  1.0000
  H   H33       1.0  0.49462  0.99268  0.79381  1.0000
  H   H34       1.0  0.50538  0.00732  0.20619  1.0000
  H   H35       1.0  0.77407  0.86979  0.98721  1.0000
  H   H36       1.0  0.22592  0.13020  0.01280  1.0000
  H   H37       1.0  0.88958  0.92348  0.13526  1.0000
  H   H38       1.0  0.11041  0.07652  0.86474  1.0000
  H   H39       1.0  0.86825  0.15192  0.21491  1.0000
  H   H40       1.0  0.13175  0.84808  0.78509  1.0000
  H   H41       1.0  0.72827  0.33571  0.15014  1.0000
  H   H42       1.0  0.27172  0.66428  0.84986  1.0000
  H   H43       1.0  0.47975  0.23243  0.85358  1.0000
  H   H44       1.0  0.52024  0.76757  0.14642  1.0000
  H   H45       1.0  0.30996  0.93235  0.67236  1.0000
  H   H46       1.0  0.69004  0.06764  0.32763  1.0000
  H   H47       1.0  0.18561  0.97331  0.58479  1.0000
  H   H48       1.0  0.81439  0.02669  0.41521  1.0000
  H   H49       1.0  0.39263  0.00650  0.58474  1.0000
  H   H50       1.0  0.60737  0.99349  0.41526  1.0000
  H   H51       1.0  0.15599  0.28465  0.18390  1.0000
  H   H52       1.0  0.84400  0.71534  0.81610  1.0000
  H   H53       1.0  0.19976  0.36092  0.08731  1.0000
  H   H54       1.0  0.80023  0.63908  0.91269  1.0000
  H   H55       1.0  0.12529  0.46239  0.16794  1.0000
  H   H56       1.0  0.87471  0.53760  0.83206  1.0000
  H   H57       1.0  0.06951  0.59233  0.03403  1.0000
  H   H58       1.0  0.93050  0.40767  0.96597  1.0000
  H   H59       1.0  0.11960  0.72227  0.12068  1.0000
  H   H60       1.0  0.88041  0.27773  0.87932  1.0000
  H   H61       1.0  0.01600  0.76462  0.02611  1.0000
  H   H62       1.0  0.98401  0.23538  0.97388  1.0000
  C   C1        1.0  0.12565  0.67149  0.54015  1.0000
  C   C2        1.0  0.87436  0.32851  0.45984  1.0000
  C   C3        1.0  0.13132  0.71437  0.45859  1.0000
  C   C4        1.0  0.86869  0.28563  0.54141  1.0000
  C   C5        1.0  0.27494  0.71751  0.42499  1.0000
  C   C6        1.0  0.72506  0.28249  0.57501  1.0000
  C   C7        1.0  0.40723  0.67998  0.47093  1.0000
  C   C8        1.0  0.59278  0.32002  0.52907  1.0000
  C   C9        1.0  0.40073  0.63688  0.55201  1.0000
  C   C10       1.0  0.59928  0.36313  0.44798  1.0000
  C   C11       1.0  0.25717  0.63196  0.58649  1.0000
  C   C12       1.0  0.74284  0.36805  0.41351  1.0000
  C   C13       1.0  0.06197  0.60286  0.66360  1.0000
  C   C14       1.0  0.93804  0.39714  0.33640  1.0000
  C   C15       1.0  0.84512  0.68423  0.57225  1.0000
  C   C16       1.0  0.15488  0.31577  0.42775  1.0000
  C   C17       1.0  0.84200  0.84597  0.57038  1.0000
  C   C18       1.0  0.15800  0.15403  0.42962  1.0000
  C   C19       1.0  0.86792  0.93030  0.65630  1.0000
  C   C20       1.0  0.13208  0.06970  0.34370  1.0000
  C   C21       1.0  0.72084  0.91356  0.70319  1.0000
  C   C22       1.0  0.27916  0.08644  0.29681  1.0000
  C   C23       1.0  0.74445  0.00248  0.78746  1.0000
  C   C24       1.0  0.25554  0.99752  0.21254  1.0000
  C   C25       1.0  0.59817  0.97754  0.83456  1.0000
  C   C26       1.0  0.40182  0.02246  0.16544  1.0000
  C   C27       1.0  0.68571  0.07455  0.98659  1.0000
  C   C28       1.0  0.31429  0.92545  0.01341  1.0000
  C   C29       1.0  0.76568  0.97148  0.02149  1.0000
  C   C30       1.0  0.23431  0.02852  0.97852  1.0000
  C   C31       1.0  0.82982  0.00238  0.10452  1.0000
  C   C32       1.0  0.17018  0.99762  0.89548  1.0000
  C   C33       1.0  0.81673  0.13222  0.15006  1.0000
  C   C34       1.0  0.18326  0.86778  0.84994  1.0000
  C   C35       1.0  0.73754  0.23523  0.11501  1.0000
  C   C36       1.0  0.26245  0.76477  0.88499  1.0000
  C   C37       1.0  0.66972  0.20482  0.03241  1.0000
  C   C38       1.0  0.33028  0.79518  0.96759  1.0000
  C   C39       1.0  0.54803  0.20480  0.90826  1.0000
  C   C40       1.0  0.45197  0.79521  0.09174  1.0000
  C   C41       1.0  0.29559  0.00844  0.62453  1.0000
  C   C42       1.0  0.70442  0.99155  0.37546  1.0000
  C   C43       1.0  0.30334  0.15969  0.66407  1.0000
  C   C44       1.0  0.69666  0.84031  0.33593  1.0000
  C   C45       1.0  0.20271  0.38288  0.15527  1.0000
  C   C46       1.0  0.79729  0.61712  0.84473  1.0000
  C   C47       1.0  0.36635  0.44115  0.19496  1.0000
  C   C48       1.0  0.63365  0.55885  0.80504  1.0000
  C   C49       1.0  0.02921  0.68115  0.06937  1.0000
  C   C50       1.0  0.97079  0.31885  0.93063  1.0000
  C   C51       1.0  0.87340  0.62739  0.10194  1.0000
  C   C52       1.0  0.12660  0.37261  0.89806  1.0000
  N   N1        1.0  0.21283  0.58907  0.66347  1.0000
  N   N2        1.0  0.78718  0.41093  0.33653  1.0000
  N   N3        1.0  0.00432  0.65331  0.59184  1.0000
  N   N4        1.0  0.99568  0.34669  0.40816  1.0000
  N   N5        1.0  0.58262  0.28330  0.98118  1.0000
  N   N6        1.0  0.41738  0.71670  0.01882  1.0000
  N   N7        1.0  0.60714  0.07928  0.90797  1.0000
  N   N8        1.0  0.39285  0.92072  0.09203  1.0000
  O   O1        1.0  0.21813  0.24385  0.63114  1.0000
  O   O2        1.0  0.78186  0.75614  0.36887  1.0000
  O   O3        1.0  0.39968  0.20029  0.72946  1.0000
  O   O4        1.0  0.60033  0.79970  0.27054  1.0000
  O   O5        1.0  0.39383  0.45996  0.27385  1.0000
  O   O6        1.0  0.60617  0.54004  0.72615  1.0000
  O   O7        1.0  0.47771  0.47212  0.14711  1.0000
  O   O8        1.0  0.52229  0.52787  0.85289  1.0000
  O   O9        1.0  0.75118  0.61937  0.05134  1.0000
  O   O10       1.0  0.24882  0.38064  0.94866  1.0000
  O   O11       1.0  0.87793  0.59443  0.17813  1.0000
  O   O12       1.0  0.12208  0.40557  0.82187  1.0000
