data_image0
_chemical_formula_structural       Zn2H36C42N4Cl2O4
_chemical_formula_sum              "Zn2 H36 C42 N4 Cl2 O4"
_cell_length_a       9.41786
_cell_length_b       9.42904
_cell_length_c       12.1669
_cell_angle_alpha    97.9407
_cell_angle_beta     108.867
_cell_angle_gamma    110.947

_space_group_name_H-M_alt    "P 1"
_space_group_IT_number       1

loop_
  _space_group_symop_operation_xyz
  'x, y, z'

loop_
  _atom_site_type_symbol
  _atom_site_label
  _atom_site_symmetry_multiplicity
  _atom_site_fract_x
  _atom_site_fract_y
  _atom_site_fract_z
  _atom_site_occupancy
  Zn  Zn1       1.0  0.97057  0.58816  0.82532  1.0000
  Zn  Zn2       1.0  0.02943  0.41183  0.17469  1.0000
  H   H1        1.0  0.67206  0.38886  0.47830  1.0000
  H   H2        1.0  0.32794  0.61114  0.52169  1.0000
  H   H3        1.0  0.64389  0.52133  0.84962  1.0000
  H   H4        1.0  0.35611  0.47866  0.15038  1.0000
  H   H5        1.0  0.71904  0.69577  0.68173  1.0000
  H   H6        1.0  0.28097  0.30423  0.31828  1.0000
  H   H7        1.0  0.65690  0.15108  0.81713  1.0000
  H   H8        1.0  0.34310  0.84893  0.18286  1.0000
  H   H9        1.0  0.05804  0.99473  0.18684  1.0000
  H   H10       1.0  0.94196  0.00527  0.81316  1.0000
  H   H11       1.0  0.62309  0.72491  0.47297  1.0000
  H   H12       1.0  0.37691  0.27508  0.52703  1.0000
  H   H13       1.0  0.56467  0.91518  0.88809  1.0000
  H   H14       1.0  0.43533  0.08482  0.11191  1.0000
  H   H15       1.0  0.05384  0.68740  0.44518  1.0000
  H   H16       1.0  0.94616  0.31259  0.55482  1.0000
  H   H17       1.0  0.13022  0.85460  0.03954  1.0000
  H   H18       1.0  0.86978  0.14540  0.96045  1.0000
  H   H19       1.0  0.59382  0.35491  0.25887  1.0000
  H   H20       1.0  0.40618  0.64510  0.74113  1.0000
  H   H21       1.0  0.54739  0.65020  0.98718  1.0000
  H   H22       1.0  0.45261  0.34979  0.01282  1.0000
  H   H23       1.0  0.95575  0.96317  0.35345  1.0000
  H   H24       1.0  0.04425  0.03683  0.64655  1.0000
  H   H25       1.0  0.77522  0.95308  0.37365  1.0000
  H   H26       1.0  0.22478  0.04692  0.62635  1.0000
  H   H27       1.0  0.60785  0.85686  0.15312  1.0000
  H   H28       1.0  0.39215  0.14313  0.84689  1.0000
  H   H29       1.0  0.78315  0.03760  0.19105  1.0000
  H   H30       1.0  0.21685  0.96239  0.80896  1.0000
  H   H31       1.0  0.63645  0.65821  0.27260  1.0000
  H   H32       1.0  0.36354  0.34179  0.72740  1.0000
  H   H33       1.0  0.82489  0.66945  0.26270  1.0000
  H   H34       1.0  0.17510  0.33054  0.73730  1.0000
  H   H35       1.0  0.13352  0.65884  0.65577  1.0000
  H   H36       1.0  0.86648  0.34117  0.34423  1.0000
  C   C1        1.0  0.83114  0.70930  0.44209  1.0000
  C   C2        1.0  0.16885  0.29070  0.55791  1.0000
  C   C3        1.0  0.60026  0.15218  0.58470  1.0000
  C   C4        1.0  0.39974  0.84783  0.41529  1.0000
  C   C5        1.0  0.60034  0.27054  0.41431  1.0000
  C   C6        1.0  0.39966  0.72946  0.58569  1.0000
  C   C7        1.0  0.55328  0.13685  0.45972  1.0000
  C   C8        1.0  0.44672  0.86315  0.54027  1.0000
  C   C9        1.0  0.79469  0.83426  0.09928  1.0000
  C   C10       1.0  0.20531  0.16574  0.90072  1.0000
  C   C11       1.0  0.72961  0.62654  0.92579  1.0000
  C   C12       1.0  0.27039  0.37346  0.07422  1.0000
  C   C13       1.0  0.69968  0.31440  0.67451  1.0000
  C   C14       1.0  0.30032  0.68560  0.32548  1.0000
  C   C15       1.0  0.79175  0.69785  0.62767  1.0000
  C   C16       1.0  0.20825  0.30215  0.37234  1.0000
  C   C17       1.0  0.58713  0.03313  0.75227  1.0000
  C   C18       1.0  0.41287  0.96688  0.24772  1.0000
  C   C19       1.0  0.96070  0.89093  0.11304  1.0000
  C   C20       1.0  0.03930  0.10907  0.88696  1.0000
  C   C21       1.0  0.54740  0.01874  0.62639  1.0000
  C   C22       1.0  0.45260  0.98126  0.37360  1.0000
  C   C23       1.0  0.73952  0.71512  0.51203  1.0000
  C   C24       1.0  0.26049  0.28488  0.48798  1.0000
  C   C25       1.0  0.53653  0.90194  0.79201  1.0000
  C   C26       1.0  0.46347  0.09807  0.20798  1.0000
  C   C27       1.0  0.97730  0.69148  0.49532  1.0000
  C   C28       1.0  0.02270  0.30852  0.50468  1.0000
  C   C29       1.0  0.00281  0.81366  0.03209  1.0000
  C   C30       1.0  0.99719  0.18635  0.96791  1.0000
  C   C31       1.0  0.55563  0.25197  0.29214  1.0000
  C   C32       1.0  0.44437  0.74804  0.70786  1.0000
  C   C33       1.0  0.67856  0.69900  0.00283  1.0000
  C   C34       1.0  0.32145  0.30100  0.99717  1.0000
  C   C35       1.0  0.81952  0.89708  0.31487  1.0000
  C   C36       1.0  0.18048  0.10292  0.68513  1.0000
  C   C37       1.0  0.74402  0.91138  0.18672  1.0000
  C   C38       1.0  0.25598  0.08861  0.81328  1.0000
  C   C39       1.0  0.77272  0.72342  0.31572  1.0000
  C   C40       1.0  0.22727  0.27657  0.68429  1.0000
  C   C41       1.0  0.02187  0.67491  0.61183  1.0000
  C   C42       1.0  0.97813  0.32509  0.38817  1.0000
  N   N1        1.0  0.88955  0.68331  0.93944  1.0000
  N   N2        1.0  0.11045  0.31669  0.06056  1.0000
  N   N3        1.0  0.93021  0.67597  0.67688  1.0000
  N   N4        1.0  0.06979  0.32402  0.32313  1.0000
  Cl  Cl1       1.0  0.24501  0.67071  0.92498  1.0000
  Cl  Cl2       1.0  0.75499  0.32929  0.07502  1.0000
  O   O1        1.0  0.62582  0.39894  0.68623  1.0000
  O   O2        1.0  0.37418  0.60106  0.31377  1.0000
  O   O3        1.0  0.85683  0.35701  0.73341  1.0000
  O   O4        1.0  0.14317  0.64299  0.26659  1.0000
