data_image0
_chemical_formula_structural       K4H24C36Br16O12
_chemical_formula_sum              "K4 H24 C36 Br16 O12"
_cell_length_a       7.70436
_cell_length_b       10.5069
_cell_length_c       16.9863
_cell_angle_alpha    90.8686
_cell_angle_beta     91.5185
_cell_angle_gamma    100.67

_space_group_name_H-M_alt    "P 1"
_space_group_IT_number       1

loop_
  _space_group_symop_operation_xyz
  'x, y, z'

loop_
  _atom_site_type_symbol
  _atom_site_label
  _atom_site_symmetry_multiplicity
  _atom_site_fract_x
  _atom_site_fract_y
  _atom_site_fract_z
  _atom_site_occupancy
  K   K1        1.0  0.93901  0.31229  0.23528  1.0000
  K   K2        1.0  0.06097  0.68770  0.76473  1.0000
  K   K3        1.0  0.56017  0.70128  0.73855  1.0000
  K   K4        1.0  0.43985  0.29872  0.26145  1.0000
  H   H1        1.0  0.20749  0.84782  0.18381  1.0000
  H   H2        1.0  0.79252  0.15218  0.81619  1.0000
  H   H3        1.0  0.23453  0.91275  0.08988  1.0000
  H   H4        1.0  0.76547  0.08725  0.91011  1.0000
  H   H5        1.0  0.37007  0.99047  0.17154  1.0000
  H   H6        1.0  0.62994  0.00954  0.82845  1.0000
  H   H7        1.0  0.92246  0.01274  0.31685  1.0000
  H   H8        1.0  0.07754  0.98726  0.68315  1.0000
  H   H9        1.0  0.78727  0.86049  0.29063  1.0000
  H   H10       1.0  0.21275  0.13950  0.70937  1.0000
  H   H11       1.0  0.80306  0.91085  0.38982  1.0000
  H   H12       1.0  0.19694  0.08914  0.61018  1.0000
  H   H13       1.0  0.93046  0.98180  0.06852  1.0000
  H   H14       1.0  0.06954  0.01820  0.93148  1.0000
  H   H15       1.0  0.87065  0.87279  0.14347  1.0000
  H   H16       1.0  0.12936  0.12721  0.85653  1.0000
  H   H17       1.0  0.82489  0.03381  0.15350  1.0000
  H   H18       1.0  0.17511  0.96619  0.84649  1.0000
  H   H19       1.0  0.44728  0.85406  0.35726  1.0000
  H   H20       1.0  0.55273  0.14594  0.64273  1.0000
  H   H21       1.0  0.50819  0.98786  0.42160  1.0000
  H   H22       1.0  0.49181  0.01213  0.57839  1.0000
  H   H23       1.0  0.36549  0.00058  0.33794  1.0000
  H   H24       1.0  0.63451  0.99941  0.66206  1.0000
  C   C1        1.0  0.32916  0.59505  0.92946  1.0000
  C   C2        1.0  0.67085  0.40493  0.07053  1.0000
  C   C3        1.0  0.22979  0.59431  0.56980  1.0000
  C   C4        1.0  0.77021  0.40570  0.43021  1.0000
  C   C5        1.0  0.21186  0.47135  0.94261  1.0000
  C   C6        1.0  0.78815  0.52863  0.05739  1.0000
  C   C7        1.0  0.28088  0.46795  0.55802  1.0000
  C   C8        1.0  0.71913  0.53205  0.44198  1.0000
  C   C9        1.0  0.19436  0.41547  0.01498  1.0000
  C   C10       1.0  0.80564  0.58454  0.98503  1.0000
  C   C11       1.0  0.26258  0.40359  0.48666  1.0000
  C   C12       1.0  0.73740  0.59642  0.51335  1.0000
  C   C13       1.0  0.29320  0.47358  0.08545  1.0000
  C   C14       1.0  0.70679  0.52642  0.91456  1.0000
  C   C15       1.0  0.19139  0.45605  0.41603  1.0000
  C   C16       1.0  0.80859  0.54397  0.58398  1.0000
  C   C17       1.0  0.39824  0.60205  0.07349  1.0000
  C   C18       1.0  0.60176  0.39794  0.92650  1.0000
  C   C19       1.0  0.15477  0.58640  0.42649  1.0000
  C   C20       1.0  0.84523  0.41363  0.57350  1.0000
  C   C21       1.0  0.41427  0.65903  0.00083  1.0000
  C   C22       1.0  0.58575  0.34096  0.99916  1.0000
  C   C23       1.0  0.17270  0.65117  0.49824  1.0000
  C   C24       1.0  0.82730  0.34885  0.50177  1.0000
  C   C25       1.0  0.09992  0.01861  0.17115  1.0000
  C   C26       1.0  0.90008  0.98138  0.82885  1.0000
  C   C27       1.0  0.64178  0.00924  0.31367  1.0000
  C   C28       1.0  0.35822  0.99076  0.68632  1.0000
  C   C29       1.0  0.23788  0.94013  0.15262  1.0000
  C   C30       1.0  0.76212  0.05987  0.84738  1.0000
  C   C31       1.0  0.79952  0.94674  0.32963  1.0000
  C   C32       1.0  0.20048  0.05326  0.67037  1.0000
  C   C33       1.0  0.91996  0.97608  0.13288  1.0000
  C   C34       1.0  0.08005  0.02392  0.86711  1.0000
  C   C35       1.0  0.47929  0.96051  0.35913  1.0000
  C   C36       1.0  0.52072  0.03949  0.64086  1.0000
  Br  Br1       1.0  0.07365  0.40010  0.85354  1.0000
  Br  Br2       1.0  0.92635  0.59989  0.14647  1.0000
  Br  Br3       1.0  0.38636  0.40551  0.64761  1.0000
  Br  Br4       1.0  0.61362  0.59450  0.35239  1.0000
  Br  Br5       1.0  0.02986  0.26180  0.03162  1.0000
  Br  Br6       1.0  0.97015  0.73819  0.96838  1.0000
  Br  Br7       1.0  0.33948  0.24421  0.47123  1.0000
  Br  Br8       1.0  0.66051  0.75580  0.52878  1.0000
  Br  Br9       1.0  0.49412  0.69161  0.16684  1.0000
  Br  Br10      1.0  0.50588  0.30839  0.83316  1.0000
  Br  Br11      1.0  0.10192  0.66789  0.33263  1.0000
  Br  Br12      1.0  0.89805  0.33215  0.66737  1.0000
  Br  Br13      1.0  0.52799  0.83276  0.98770  1.0000
  Br  Br14      1.0  0.47201  0.16724  0.01230  1.0000
  Br  Br15      1.0  0.14426  0.82568  0.50874  1.0000
  Br  Br16      1.0  0.85571  0.17433  0.49129  1.0000
  O   O1        1.0  0.34414  0.64612  0.86265  1.0000
  O   O2        1.0  0.65585  0.35388  0.13735  1.0000
  O   O3        1.0  0.24569  0.65227  0.63586  1.0000
  O   O4        1.0  0.75428  0.34773  0.36415  1.0000
  O   O5        1.0  0.27882  0.42051  0.15147  1.0000
  O   O6        1.0  0.72119  0.57949  0.84854  1.0000
  O   O7        1.0  0.17449  0.39622  0.35060  1.0000
  O   O8        1.0  0.82549  0.60379  0.64940  1.0000
  O   O9        1.0  0.13252  0.11269  0.21748  1.0000
  O   O10       1.0  0.86748  0.88731  0.78252  1.0000
  O   O11       1.0  0.64522  0.09536  0.26460  1.0000
  O   O12       1.0  0.35480  0.90465  0.73540  1.0000
