data_image0
_chemical_formula_structural       NiH34C20N6O4
_chemical_formula_sum              "Ni1 H34 C20 N6 O4"
_cell_length_a       7.49735
_cell_length_b       8.15199
_cell_length_c       9.91063
_cell_angle_alpha    105.373
_cell_angle_beta     98.5896
_cell_angle_gamma    105.116

_space_group_name_H-M_alt    "P 1"
_space_group_IT_number       1

loop_
  _space_group_symop_operation_xyz
  'x, y, z'

loop_
  _atom_site_type_symbol
  _atom_site_label
  _atom_site_symmetry_multiplicity
  _atom_site_fract_x
  _atom_site_fract_y
  _atom_site_fract_z
  _atom_site_occupancy
  Ni  Ni1       1.0  0.50000  0.50000  0.50000  1.0000
  H   H1        1.0  0.20782  0.49759  0.55342  1.0000
  H   H2        1.0  0.79217  0.50241  0.44658  1.0000
  H   H3        1.0  0.52581  0.21306  0.49001  1.0000
  H   H4        1.0  0.47420  0.78694  0.50999  1.0000
  H   H5        1.0  0.50929  0.43115  0.17704  1.0000
  H   H6        1.0  0.49070  0.56885  0.82296  1.0000
  H   H7        1.0  0.75158  0.43904  0.18412  1.0000
  H   H8        1.0  0.24841  0.56096  0.81588  1.0000
  H   H9        1.0  0.38230  0.01005  0.25130  1.0000
  H   H10       1.0  0.61770  0.98994  0.74871  1.0000
  H   H11       1.0  0.29429  0.17859  0.20628  1.0000
  H   H12       1.0  0.70570  0.82140  0.79372  1.0000
  H   H13       1.0  0.20998  0.02476  0.44702  1.0000
  H   H14       1.0  0.79003  0.97524  0.55299  1.0000
  H   H15       1.0  0.12420  0.18188  0.38117  1.0000
  H   H16       1.0  0.87580  0.81811  0.61884  1.0000
  H   H17       1.0  0.35119  0.25725  0.68680  1.0000
  H   H18       1.0  0.64881  0.74275  0.31320  1.0000
  H   H19       1.0  0.10856  0.24814  0.63756  1.0000
  H   H20       1.0  0.89145  0.75186  0.36244  1.0000
  H   H21       1.0  0.73814  0.12555  0.36761  1.0000
  H   H22       1.0  0.26187  0.87446  0.63239  1.0000
  H   H23       1.0  0.87389  0.26080  0.28414  1.0000
  H   H24       1.0  0.12611  0.73920  0.71585  1.0000
  H   H25       1.0  0.59658  0.87864  0.12322  1.0000
  H   H26       1.0  0.40342  0.12136  0.87678  1.0000
  H   H27       1.0  0.84761  0.93411  0.17696  1.0000
  H   H28       1.0  0.15239  0.06589  0.82304  1.0000
  H   H29       1.0  0.74344  0.01645  0.04570  1.0000
  H   H30       1.0  0.25655  0.98355  0.95430  1.0000
  H   H31       1.0  0.93093  0.70977  0.87407  1.0000
  H   H32       1.0  0.06908  0.29025  0.12593  1.0000
  H   H33       1.0  0.90455  0.17489  0.86512  1.0000
  H   H34       1.0  0.09545  0.82512  0.13487  1.0000
  C   C1        1.0  0.36828  0.59416  0.76550  1.0000
  C   C2        1.0  0.63171  0.40584  0.23450  1.0000
  C   C3        1.0  0.58648  0.84509  0.73067  1.0000
  C   C4        1.0  0.41352  0.15491  0.26934  1.0000
  C   C5        1.0  0.23634  0.16752  0.45815  1.0000
  C   C6        1.0  0.76366  0.83248  0.54185  1.0000
  C   C7        1.0  0.24689  0.27941  0.60883  1.0000
  C   C8        1.0  0.75311  0.72059  0.39117  1.0000
  C   C9        1.0  0.73994  0.15302  0.26446  1.0000
  C   C10       1.0  0.26006  0.84698  0.73554  1.0000
  C   C11       1.0  0.73175  0.98597  0.14603  1.0000
  C   C12       1.0  0.26825  0.01403  0.85398  1.0000
  C   C13       1.0  0.81801  0.36930  0.69311  1.0000
  C   C14       1.0  0.18198  0.63069  0.30688  1.0000
  C   C15       1.0  0.90666  0.43509  0.85275  1.0000
  C   C16       1.0  0.09335  0.56491  0.14725  1.0000
  C   C17       1.0  0.96088  0.61824  0.93027  1.0000
  C   C18       1.0  0.03912  0.38177  0.06972  1.0000
  C   C19       1.0  0.94651  0.31747  0.92459  1.0000
  C   C20       1.0  0.05351  0.68256  0.07541  1.0000
  N   N1        1.0  0.31454  0.46924  0.61450  1.0000
  N   N2        1.0  0.68545  0.53076  0.38550  1.0000
  N   N3        1.0  0.41681  0.77835  0.77437  1.0000
  N   N4        1.0  0.58319  0.22165  0.22563  1.0000
  N   N5        1.0  0.57871  0.75849  0.57521  1.0000
  N   N6        1.0  0.42129  0.24151  0.42479  1.0000
  O   O1        1.0  0.87863  0.47419  0.62379  1.0000
  O   O2        1.0  0.12136  0.52580  0.37620  1.0000
  O   O3        1.0  0.69306  0.21468  0.64067  1.0000
  O   O4        1.0  0.30694  0.78533  0.35933  1.0000
