data_image0
_chemical_formula_structural       Rb4H24C36Cl16O12
_chemical_formula_sum              "Rb4 H24 C36 Cl16 O12"
_cell_length_a       7.69939
_cell_length_b       10.5175
_cell_length_c       17.1098
_cell_angle_alpha    90
_cell_angle_beta     90.0001
_cell_angle_gamma    103.778

_space_group_name_H-M_alt    "P 1"
_space_group_IT_number       1

loop_
  _space_group_symop_operation_xyz
  'x, y, z'

loop_
  _atom_site_type_symbol
  _atom_site_label
  _atom_site_symmetry_multiplicity
  _atom_site_fract_x
  _atom_site_fract_y
  _atom_site_fract_z
  _atom_site_occupancy
  Rb  Rb1       1.0  0.43601  0.79728  0.23318  1.0000
  Rb  Rb2       1.0  0.06399  0.20272  0.73318  1.0000
  Rb  Rb3       1.0  0.56399  0.20272  0.76682  1.0000
  Rb  Rb4       1.0  0.93601  0.79729  0.26682  1.0000
  H   H1        1.0  0.36725  0.47143  0.32543  1.0000
  H   H2        1.0  0.13275  0.52857  0.82543  1.0000
  H   H3        1.0  0.63275  0.52857  0.67457  1.0000
  H   H4        1.0  0.86726  0.47143  0.17457  1.0000
  H   H5        1.0  0.25053  0.43188  0.41640  1.0000
  H   H6        1.0  0.24947  0.56812  0.91640  1.0000
  H   H7        1.0  0.74947  0.56812  0.58360  1.0000
  H   H8        1.0  0.75054  0.43188  0.08360  1.0000
  H   H9        1.0  0.19693  0.32281  0.33800  1.0000
  H   H10       1.0  0.30307  0.67719  0.83800  1.0000
  H   H11       1.0  0.80307  0.67718  0.66200  1.0000
  H   H12       1.0  0.69694  0.32282  0.16201  1.0000
  H   H13       1.0  0.82284  0.50861  0.33983  1.0000
  H   H14       1.0  0.67716  0.49139  0.83983  1.0000
  H   H15       1.0  0.17716  0.49139  0.66017  1.0000
  H   H16       1.0  0.32285  0.50861  0.16017  1.0000
  H   H17       1.0  0.85997  0.34830  0.35398  1.0000
  H   H18       1.0  0.64003  0.65170  0.85398  1.0000
  H   H19       1.0  0.14003  0.65169  0.64602  1.0000
  H   H20       1.0  0.35998  0.34830  0.14602  1.0000
  H   H21       1.0  0.92779  0.46579  0.42692  1.0000
  H   H22       1.0  0.57220  0.53420  0.92692  1.0000
  H   H23       1.0  0.07220  0.53420  0.57308  1.0000
  H   H24       1.0  0.42780  0.46579  0.07308  1.0000
  C   C1        1.0  0.78623  0.96589  0.08522  1.0000
  C   C2        1.0  0.71377  0.03411  0.58522  1.0000
  C   C3        1.0  0.21377  0.03412  0.91478  1.0000
  C   C4        1.0  0.28623  0.96588  0.41478  1.0000
  C   C5        1.0  0.68745  0.91127  0.01521  1.0000
  C   C6        1.0  0.81253  0.08873  0.51521  1.0000
  C   C7        1.0  0.31253  0.08875  0.98479  1.0000
  C   C8        1.0  0.18746  0.91126  0.48479  1.0000
  C   C9        1.0  0.71057  0.97514  0.94458  1.0000
  C   C10       1.0  0.78943  0.02485  0.44458  1.0000
  C   C11       1.0  0.28944  0.02486  0.05542  1.0000
  C   C12       1.0  0.21056  0.97514  0.55542  1.0000
  C   C13       1.0  0.83393  0.10329  0.93442  1.0000
  C   C14       1.0  0.66606  0.89671  0.43442  1.0000
  C   C15       1.0  0.16606  0.89672  0.06558  1.0000
  C   C16       1.0  0.33394  0.10328  0.56559  1.0000
  C   C17       1.0  0.92359  0.16138  0.00530  1.0000
  C   C18       1.0  0.57641  0.83863  0.50530  1.0000
  C   C19       1.0  0.07641  0.83863  0.99470  1.0000
  C   C20       1.0  0.42359  0.16137  0.49470  1.0000
  C   C21       1.0  0.90174  0.09644  0.07608  1.0000
  C   C22       1.0  0.59826  0.90356  0.57609  1.0000
  C   C23       1.0  0.09825  0.90357  0.92391  1.0000
  C   C24       1.0  0.40175  0.09643  0.42392  1.0000
  C   C25       1.0  0.09667  0.49482  0.32566  1.0000
  C   C26       1.0  0.40333  0.50518  0.82565  1.0000
  C   C27       1.0  0.90332  0.50518  0.67434  1.0000
  C   C28       1.0  0.59668  0.49482  0.17435  1.0000
  C   C29       1.0  0.23790  0.42772  0.35241  1.0000
  C   C30       1.0  0.26210  0.57228  0.85240  1.0000
  C   C31       1.0  0.76210  0.57228  0.64760  1.0000
  C   C32       1.0  0.73791  0.42772  0.14760  1.0000
  C   C33       1.0  0.91552  0.45369  0.36318  1.0000
  C   C34       1.0  0.58447  0.54631  0.86318  1.0000
  C   C35       1.0  0.08447  0.54631  0.63682  1.0000
  C   C36       1.0  0.41553  0.45369  0.13682  1.0000
  Cl  Cl1       1.0  0.53266  0.76517  0.02727  1.0000
  Cl  Cl2       1.0  0.96734  0.23484  0.52727  1.0000
  Cl  Cl3       1.0  0.46735  0.23485  0.97273  1.0000
  Cl  Cl4       1.0  0.03265  0.76516  0.47273  1.0000
  Cl  Cl5       1.0  0.58826  0.91226  0.86363  1.0000
  Cl  Cl6       1.0  0.91173  0.08773  0.36363  1.0000
  Cl  Cl7       1.0  0.41173  0.08774  0.13637  1.0000
  Cl  Cl8       1.0  0.08826  0.91226  0.63637  1.0000
  Cl  Cl9       1.0  0.04502  0.32044  0.99702  1.0000
  Cl  Cl10      1.0  0.45499  0.67956  0.49703  1.0000
  Cl  Cl11      1.0  0.95498  0.67957  0.00297  1.0000
  Cl  Cl12      1.0  0.54502  0.32043  0.50297  1.0000
  Cl  Cl13      1.0  0.99716  0.17033  0.16045  1.0000
  Cl  Cl14      1.0  0.50284  0.82968  0.66046  1.0000
  Cl  Cl15      1.0  0.00284  0.82969  0.83954  1.0000
  Cl  Cl16      1.0  0.49716  0.17032  0.33955  1.0000
  O   O1        1.0  0.76384  0.90706  0.14998  1.0000
  O   O2        1.0  0.73616  0.09295  0.64998  1.0000
  O   O3        1.0  0.23616  0.09296  0.85002  1.0000
  O   O4        1.0  0.26384  0.90704  0.35002  1.0000
  O   O5        1.0  0.85214  0.16224  0.86967  1.0000
  O   O6        1.0  0.64786  0.83776  0.36967  1.0000
  O   O7        1.0  0.14786  0.83776  0.13033  1.0000
  O   O8        1.0  0.35214  0.16224  0.63033  1.0000
  O   O9        1.0  0.12761  0.57986  0.27418  1.0000
  O   O10       1.0  0.37239  0.42014  0.77417  1.0000
  O   O11       1.0  0.87239  0.42014  0.72583  1.0000
  O   O12       1.0  0.62762  0.57987  0.22582  1.0000
