data_image0
_chemical_formula_structural       Cu4H36C48S4N16O8
_chemical_formula_sum              "Cu4 H36 C48 S4 N16 O8"
_cell_length_a       7.85889
_cell_length_b       10.235
_cell_length_c       15.7005
_cell_angle_alpha    94.4289
_cell_angle_beta     90
_cell_angle_gamma    90

_space_group_name_H-M_alt    "P 1"
_space_group_IT_number       1

loop_
  _space_group_symop_operation_xyz
  'x, y, z'

loop_
  _atom_site_type_symbol
  _atom_site_label
  _atom_site_symmetry_multiplicity
  _atom_site_fract_x
  _atom_site_fract_y
  _atom_site_fract_z
  _atom_site_occupancy
  Cu  Cu1       1.0  0.32948  0.22625  0.80064  1.0000
  Cu  Cu2       1.0  0.82948  0.27376  0.19937  1.0000
  Cu  Cu3       1.0  0.67052  0.77376  0.19936  1.0000
  Cu  Cu4       1.0  0.17051  0.72625  0.80063  1.0000
  H   H1        1.0  0.32425  0.94586  0.61143  1.0000
  H   H2        1.0  0.82425  0.55414  0.38856  1.0000
  H   H3        1.0  0.67575  0.05414  0.38856  1.0000
  H   H4        1.0  0.17575  0.44586  0.61144  1.0000
  H   H5        1.0  0.49990  0.24211  0.98436  1.0000
  H   H6        1.0  0.99991  0.25789  0.01564  1.0000
  H   H7        1.0  0.50009  0.75788  0.01564  1.0000
  H   H8        1.0  0.00009  0.74211  0.98436  1.0000
  H   H9        1.0  0.73180  0.11973  0.05127  1.0000
  H   H10       1.0  0.23179  0.38027  0.94873  1.0000
  H   H11       1.0  0.26821  0.88027  0.94873  1.0000
  H   H12       1.0  0.76820  0.61972  0.05127  1.0000
  H   H13       1.0  0.85684  0.92203  0.96896  1.0000
  H   H14       1.0  0.35683  0.57797  0.03105  1.0000
  H   H15       1.0  0.14317  0.07798  0.03104  1.0000
  H   H16       1.0  0.64317  0.42202  0.96895  1.0000
  H   H17       1.0  0.74397  0.85552  0.82286  1.0000
  H   H18       1.0  0.24396  0.64448  0.17715  1.0000
  H   H19       1.0  0.25604  0.14448  0.17715  1.0000
  H   H20       1.0  0.75603  0.35552  0.82285  1.0000
  H   H21       1.0  0.51523  0.89049  0.70796  1.0000
  H   H22       1.0  0.01522  0.60951  0.29204  1.0000
  H   H23       1.0  0.48478  0.10951  0.29204  1.0000
  H   H24       1.0  0.98477  0.39049  0.70796  1.0000
  H   H25       1.0  0.29642  0.88524  0.47097  1.0000
  H   H26       1.0  0.79641  0.61477  0.52903  1.0000
  H   H27       1.0  0.70359  0.11477  0.52903  1.0000
  H   H28       1.0  0.20358  0.38523  0.47098  1.0000
  H   H29       1.0  0.14534  0.91339  0.31651  1.0000
  H   H30       1.0  0.64533  0.58661  0.68349  1.0000
  H   H31       1.0  0.85467  0.08661  0.68349  1.0000
  H   H32       1.0  0.35467  0.41338  0.31652  1.0000
  H   H33       1.0  0.00711  0.16172  0.33172  1.0000
  H   H34       1.0  0.50711  0.33828  0.66828  1.0000
  H   H35       1.0  0.99289  0.83828  0.66828  1.0000
  H   H36       1.0  0.49290  0.66172  0.33172  1.0000
  C   C1        1.0  0.55956  0.15784  0.94945  1.0000
  C   C2        1.0  0.05956  0.34216  0.05055  1.0000
  C   C3        1.0  0.44044  0.84215  0.05055  1.0000
  C   C4        1.0  0.94043  0.65784  0.94945  1.0000
  C   C5        1.0  0.68846  0.08871  0.98694  1.0000
  C   C6        1.0  0.18846  0.41129  0.01306  1.0000
  C   C7        1.0  0.31154  0.91129  0.01306  1.0000
  C   C8        1.0  0.81154  0.58870  0.98694  1.0000
  C   C9        1.0  0.75610  0.97829  0.94134  1.0000
  C   C10       1.0  0.25610  0.52171  0.05866  1.0000
  C   C11       1.0  0.24390  0.02171  0.05866  1.0000
  C   C12       1.0  0.74389  0.47829  0.94134  1.0000
  C   C13       1.0  0.69306  0.94069  0.86031  1.0000
  C   C14       1.0  0.19305  0.55931  0.13968  1.0000
  C   C15       1.0  0.30695  0.05931  0.13969  1.0000
  C   C16       1.0  0.80695  0.44068  0.86031  1.0000
  C   C17       1.0  0.56411  0.01608  0.82650  1.0000
  C   C18       1.0  0.06411  0.48392  0.17350  1.0000
  C   C19       1.0  0.43590  0.98392  0.17350  1.0000
  C   C20       1.0  0.93589  0.51608  0.82650  1.0000
  C   C21       1.0  0.49282  0.98611  0.74215  1.0000
  C   C22       1.0  0.99282  0.51389  0.25784  1.0000
  C   C23       1.0  0.50718  0.01389  0.25784  1.0000
  C   C24       1.0  0.00717  0.48611  0.74216  1.0000
  C   C25       1.0  0.24927  0.13645  0.58713  1.0000
  C   C26       1.0  0.74926  0.36355  0.41287  1.0000
  C   C27       1.0  0.75074  0.86355  0.41287  1.0000
  C   C28       1.0  0.25074  0.63645  0.58713  1.0000
  C   C29       1.0  0.20049  0.08635  0.50098  1.0000
  C   C30       1.0  0.70048  0.41365  0.49902  1.0000
  C   C31       1.0  0.79952  0.91365  0.49902  1.0000
  C   C32       1.0  0.29952  0.58635  0.50098  1.0000
  C   C33       1.0  0.22906  0.97085  0.45186  1.0000
  C   C34       1.0  0.72905  0.52915  0.54814  1.0000
  C   C35       1.0  0.77095  0.02915  0.54814  1.0000
  C   C36       1.0  0.27095  0.47085  0.45186  1.0000
  C   C37       1.0  0.15164  0.98515  0.37109  1.0000
  C   C38       1.0  0.65163  0.51485  0.62891  1.0000
  C   C39       1.0  0.84836  0.01485  0.62891  1.0000
  C   C40       1.0  0.34837  0.48515  0.37109  1.0000
  C   C41       1.0  0.08144  0.10818  0.37565  1.0000
  C   C42       1.0  0.58143  0.39182  0.62435  1.0000
  C   C43       1.0  0.91856  0.89182  0.62435  1.0000
  C   C44       1.0  0.41857  0.60818  0.37565  1.0000
  C   C45       1.0  0.40991  0.51890  0.81959  1.0000
  C   C46       1.0  0.90991  0.98109  0.18041  1.0000
  C   C47       1.0  0.59009  0.48110  0.18041  1.0000
  C   C48       1.0  0.09008  0.01891  0.81959  1.0000
  S   S1        1.0  0.44715  0.67639  0.83026  1.0000
  S   S2        1.0  0.94715  0.82363  0.16974  1.0000
  S   S3        1.0  0.55284  0.32362  0.16974  1.0000
  S   S4        1.0  0.05283  0.17639  0.83027  1.0000
  N   N1        1.0  0.49843  0.12383  0.87113  1.0000
  N   N2        1.0  0.99843  0.37617  0.12886  1.0000
  N   N3        1.0  0.50157  0.87617  0.12887  1.0000
  N   N4        1.0  0.00156  0.62383  0.87113  1.0000
  N   N5        1.0  0.40091  0.07652  0.70982  1.0000
  N   N6        1.0  0.90090  0.42348  0.29018  1.0000
  N   N7        1.0  0.59910  0.92347  0.29018  1.0000
  N   N8        1.0  0.09910  0.57653  0.70982  1.0000
  N   N9        1.0  0.32814  0.04356  0.63280  1.0000
  N   N10       1.0  0.82813  0.45644  0.36721  1.0000
  N   N11       1.0  0.67187  0.95644  0.36720  1.0000
  N   N12       1.0  0.17186  0.54356  0.63279  1.0000
  N   N13       1.0  0.38032  0.40538  0.81037  1.0000
  N   N14       1.0  0.88031  0.09465  0.18963  1.0000
  N   N15       1.0  0.61969  0.59463  0.18962  1.0000
  N   N16       1.0  0.11967  0.90538  0.81037  1.0000
  O   O1        1.0  0.22666  0.25193  0.61566  1.0000
  O   O2        1.0  0.72665  0.24807  0.38434  1.0000
  O   O3        1.0  0.77334  0.74807  0.38434  1.0000
  O   O4        1.0  0.27334  0.75193  0.61566  1.0000
  O   O5        1.0  0.10992  0.17121  0.45421  1.0000
  O   O6        1.0  0.60992  0.32879  0.54578  1.0000
  O   O7        1.0  0.89008  0.82879  0.54578  1.0000
  O   O8        1.0  0.39009  0.67121  0.45422  1.0000
