data_image0
_chemical_formula_structural       Zn2H30C50N14O8
_chemical_formula_sum              "Zn2 H30 C50 N14 O8"
_cell_length_a       9.22025
_cell_length_b       10.1801
_cell_length_c       14.826
_cell_angle_alpha    95.6963
_cell_angle_beta     92.1153
_cell_angle_gamma    99.9468

_space_group_name_H-M_alt    "P 1"
_space_group_IT_number       1

loop_
  _space_group_symop_operation_xyz
  'x, y, z'

loop_
  _atom_site_type_symbol
  _atom_site_label
  _atom_site_symmetry_multiplicity
  _atom_site_fract_x
  _atom_site_fract_y
  _atom_site_fract_z
  _atom_site_occupancy
  Zn  Zn1       1.0  0.36151  0.12748  0.46955  1.0000
  Zn  Zn2       1.0  0.63849  0.87252  0.53045  1.0000
  H   H1        1.0  0.91163  0.86637  0.68336  1.0000
  H   H2        1.0  0.08837  0.13363  0.31664  1.0000
  H   H3        1.0  0.78011  0.74960  0.77509  1.0000
  H   H4        1.0  0.21989  0.25040  0.22491  1.0000
  H   H5        1.0  0.87628  0.09878  0.97048  1.0000
  H   H6        1.0  0.12372  0.90122  0.02952  1.0000
  H   H7        1.0  0.53437  0.75972  0.00290  1.0000
  H   H8        1.0  0.46563  0.24028  0.99710  1.0000
  H   H9        1.0  0.29711  0.31871  0.80269  1.0000
  H   H10       1.0  0.70289  0.68129  0.19731  1.0000
  H   H11       1.0  0.40507  0.30392  0.64982  1.0000
  H   H12       1.0  0.59492  0.69608  0.35018  1.0000
  H   H13       1.0  0.11777  0.95355  0.55388  1.0000
  H   H14       1.0  0.88223  0.04645  0.44612  1.0000
  H   H15       1.0  0.37879  0.94827  0.29230  1.0000
  H   H16       1.0  0.62121  0.05173  0.70770  1.0000
  H   H17       1.0  0.59313  0.32806  0.39765  1.0000
  H   H18       1.0  0.40688  0.67194  0.60236  1.0000
  H   H19       1.0  0.75977  0.35284  0.26808  1.0000
  H   H20       1.0  0.24023  0.64716  0.73192  1.0000
  H   H21       1.0  0.14705  0.45273  0.64196  1.0000
  H   H22       1.0  0.85295  0.54727  0.35804  1.0000
  H   H23       1.0  0.61469  0.40516  0.54947  1.0000
  H   H24       1.0  0.38531  0.59484  0.45053  1.0000
  H   H25       1.0  0.99008  0.22665  0.61632  1.0000
  H   H26       1.0  0.00992  0.77335  0.38368  1.0000
  H   H27       1.0  0.03567  0.65666  0.62095  1.0000
  H   H28       1.0  0.96433  0.34334  0.37905  1.0000
  H   H29       1.0  0.81078  0.18695  0.09881  1.0000
  H   H30       1.0  0.18922  0.81305  0.90119  1.0000
  C   C1        1.0  0.75959  0.80541  0.83882  1.0000
  C   C2        1.0  0.24041  0.19459  0.16118  1.0000
  C   C3        1.0  0.84244  0.93357  0.86673  1.0000
  C   C4        1.0  0.15756  0.06643  0.13327  1.0000
  C   C5        1.0  0.81129  0.99974  0.94911  1.0000
  C   C6        1.0  0.18871  0.00026  0.05089  1.0000
  C   C7        1.0  0.69921  0.93767  0.99940  1.0000
  C   C8        1.0  0.30079  0.06233  0.00060  1.0000
  C   C9        1.0  0.62286  0.80949  0.96467  1.0000
  C   C10       1.0  0.37714  0.19051  0.03533  1.0000
  C   C11       1.0  0.95646  0.99786  0.81183  1.0000
  C   C12       1.0  0.04354  0.00214  0.18817  1.0000
  C   C13       1.0  0.09032  0.03054  0.69402  1.0000
  C   C14       1.0  0.90967  0.96946  0.30598  1.0000
  C   C15       1.0  0.13634  0.13473  0.76569  1.0000
  C   C16       1.0  0.86366  0.86527  0.23431  1.0000
  C   C17       1.0  0.25354  0.23667  0.75072  1.0000
  C   C18       1.0  0.74646  0.76333  0.24928  1.0000
  C   C19       1.0  0.31362  0.22858  0.66615  1.0000
  C   C20       1.0  0.68638  0.77142  0.33385  1.0000
  C   C21       1.0  0.15399  0.03001  0.61064  1.0000
  C   C22       1.0  0.84601  0.96999  0.38936  1.0000
  C   C23       1.0  0.55092  0.03808  0.20904  1.0000
  C   C24       1.0  0.44908  0.96192  0.79096  1.0000
  C   C25       1.0  0.46398  0.03397  0.28409  1.0000
  C   C26       1.0  0.53602  0.96604  0.71591  1.0000
  C   C27       1.0  0.58689  0.24797  0.34245  1.0000
  C   C28       1.0  0.41312  0.75203  0.65756  1.0000
  C   C29       1.0  0.67908  0.26182  0.27065  1.0000
  C   C30       1.0  0.32092  0.73818  0.72935  1.0000
  C   C31       1.0  0.66025  0.15338  0.20352  1.0000
  C   C32       1.0  0.33975  0.84662  0.79648  1.0000
  C   C33       1.0  0.69723  0.16483  0.56528  1.0000
  C   C34       1.0  0.30277  0.83517  0.43472  1.0000
  C   C35       1.0  0.79252  0.30117  0.58261  1.0000
  C   C36       1.0  0.20748  0.69883  0.41739  1.0000
  C   C37       1.0  0.02985  0.44331  0.62361  1.0000
  C   C38       1.0  0.97015  0.55669  0.37639  1.0000
  C   C39       1.0  0.75284  0.66229  0.56663  1.0000
  C   C40       1.0  0.24716  0.33772  0.43337  1.0000
  C   C41       1.0  0.81848  0.54277  0.58499  1.0000
  C   C42       1.0  0.18152  0.45723  0.41501  1.0000
  C   C43       1.0  0.73092  0.41513  0.57076  1.0000
  C   C44       1.0  0.26908  0.58487  0.42924  1.0000
  C   C45       1.0  0.94265  0.31589  0.60873  1.0000
  C   C46       1.0  0.05735  0.68411  0.39127  1.0000
  C   C47       1.0  0.96815  0.55670  0.61219  1.0000
  C   C48       1.0  0.03185  0.44330  0.38781  1.0000
  C   C49       1.0  0.65751  0.00014  0.08485  1.0000
  C   C50       1.0  0.34249  0.99986  0.91515  1.0000
  N   N1        1.0  0.65219  0.74434  0.88660  1.0000
  N   N2        1.0  0.34782  0.25566  0.11340  1.0000
  N   N3        1.0  0.97737  0.94462  0.72577  1.0000
  N   N4        1.0  0.02263  0.05538  0.27423  1.0000
  N   N5        1.0  0.05075  0.11203  0.83881  1.0000
  N   N6        1.0  0.94925  0.88797  0.16119  1.0000
  N   N7        1.0  0.26478  0.12929  0.59785  1.0000
  N   N8        1.0  0.73521  0.87071  0.40215  1.0000
  N   N9        1.0  0.55128  0.94538  0.13438  1.0000
  N   N10       1.0  0.44872  0.05462  0.86562  1.0000
  N   N11       1.0  0.48335  0.13736  0.34943  1.0000
  N   N12       1.0  0.51665  0.86264  0.65057  1.0000
  N   N13       1.0  0.72620  0.12657  0.12394  1.0000
  N   N14       1.0  0.27380  0.87343  0.87606  1.0000
  O   O1        1.0  0.75939  0.06256  0.57214  1.0000
  O   O2        1.0  0.24061  0.93744  0.42786  1.0000
  O   O3        1.0  0.56132  0.15805  0.54661  1.0000
  O   O4        1.0  0.43868  0.84195  0.45339  1.0000
  O   O5        1.0  0.63025  0.64667  0.52195  1.0000
  O   O6        1.0  0.36976  0.35333  0.47805  1.0000
  O   O7        1.0  0.82355  0.78048  0.59503  1.0000
  O   O8        1.0  0.17645  0.21953  0.40497  1.0000
