data_image0
_chemical_formula_structural       Ag8H40C56S8O8
_chemical_formula_sum              "Ag8 H40 C56 S8 O8"
_cell_length_a       5.63869
_cell_length_b       7.54773
_cell_length_c       31.9178
_cell_angle_alpha    90
_cell_angle_beta     90
_cell_angle_gamma    90

_space_group_name_H-M_alt    "P 1"
_space_group_IT_number       1

loop_
  _space_group_symop_operation_xyz
  'x, y, z'

loop_
  _atom_site_type_symbol
  _atom_site_label
  _atom_site_symmetry_multiplicity
  _atom_site_fract_x
  _atom_site_fract_y
  _atom_site_fract_z
  _atom_site_occupancy
  Ag  Ag1       1.0  0.00026  0.80937  0.23610  1.0000
  Ag  Ag2       1.0  0.49974  0.19064  0.73610  1.0000
  Ag  Ag3       1.0  0.99976  0.30936  0.26390  1.0000
  Ag  Ag4       1.0  0.50025  0.69064  0.76390  1.0000
  Ag  Ag5       1.0  0.99974  0.19063  0.76390  1.0000
  Ag  Ag6       1.0  0.50025  0.80937  0.26390  1.0000
  Ag  Ag7       1.0  0.00025  0.69064  0.73610  1.0000
  Ag  Ag8       1.0  0.49976  0.30936  0.23610  1.0000
  H   H1        1.0  0.29854  0.66674  0.14183  1.0000
  H   H2        1.0  0.20147  0.33324  0.64183  1.0000
  H   H3        1.0  0.70145  0.16675  0.35817  1.0000
  H   H4        1.0  0.79855  0.83325  0.85817  1.0000
  H   H5        1.0  0.70145  0.33325  0.85817  1.0000
  H   H6        1.0  0.79854  0.66676  0.35817  1.0000
  H   H7        1.0  0.29854  0.83325  0.64183  1.0000
  H   H8        1.0  0.20143  0.16676  0.14183  1.0000
  H   H9        1.0  0.38577  0.77435  0.06989  1.0000
  H   H10       1.0  0.11426  0.22565  0.56989  1.0000
  H   H11       1.0  0.61425  0.27435  0.43011  1.0000
  H   H12       1.0  0.88576  0.72566  0.93011  1.0000
  H   H13       1.0  0.61424  0.22565  0.93011  1.0000
  H   H14       1.0  0.88575  0.77435  0.43011  1.0000
  H   H15       1.0  0.38575  0.72565  0.56989  1.0000
  H   H16       1.0  0.11424  0.27435  0.06989  1.0000
  H   H17       1.0  0.10178  0.71431  0.01179  1.0000
  H   H18       1.0  0.39823  0.28570  0.51179  1.0000
  H   H19       1.0  0.89824  0.21430  0.48821  1.0000
  H   H20       1.0  0.60178  0.78569  0.98821  1.0000
  H   H21       1.0  0.89823  0.28570  0.98821  1.0000
  H   H22       1.0  0.60176  0.71430  0.48821  1.0000
  H   H23       1.0  0.10177  0.78569  0.51179  1.0000
  H   H24       1.0  0.39822  0.21431  0.01179  1.0000
  H   H25       1.0  0.72548  0.55156  0.02638  1.0000
  H   H26       1.0  0.77454  0.44845  0.52638  1.0000
  H   H27       1.0  0.27454  0.05154  0.47362  1.0000
  H   H28       1.0  0.22548  0.94844  0.97362  1.0000
  H   H29       1.0  0.27453  0.44845  0.97362  1.0000
  H   H30       1.0  0.22547  0.55154  0.47362  1.0000
  H   H31       1.0  0.72547  0.94845  0.52638  1.0000
  H   H32       1.0  0.77451  0.05156  0.02638  1.0000
  H   H33       1.0  0.63568  0.45080  0.09895  1.0000
  H   H34       1.0  0.86432  0.54920  0.59895  1.0000
  H   H35       1.0  0.36431  0.95079  0.40105  1.0000
  H   H36       1.0  0.13569  0.04918  0.90105  1.0000
  H   H37       1.0  0.36431  0.54921  0.90105  1.0000
  H   H38       1.0  0.13569  0.45079  0.40105  1.0000
  H   H39       1.0  0.63568  0.04921  0.59895  1.0000
  H   H40       1.0  0.86429  0.95080  0.09895  1.0000
  C   C1        1.0  0.89711  0.48389  0.16705  1.0000
  C   C2        1.0  0.60291  0.51611  0.66704  1.0000
  C   C3        1.0  0.10289  0.98389  0.33295  1.0000
  C   C4        1.0  0.39710  0.01611  0.83295  1.0000
  C   C5        1.0  0.10288  0.51611  0.83295  1.0000
  C   C6        1.0  0.39711  0.48389  0.33295  1.0000
  C   C7        1.0  0.89709  0.01611  0.66705  1.0000
  C   C8        1.0  0.60289  0.98388  0.16704  1.0000
  C   C9        1.0  0.96089  0.55297  0.12479  1.0000
  C   C10       1.0  0.53913  0.44703  0.62479  1.0000
  C   C11       1.0  0.03911  0.05296  0.37521  1.0000
  C   C12       1.0  0.46089  0.94702  0.87521  1.0000
  C   C13       1.0  0.03911  0.44703  0.87521  1.0000
  C   C14       1.0  0.46088  0.55297  0.37521  1.0000
  C   C15       1.0  0.96087  0.94704  0.62479  1.0000
  C   C16       1.0  0.53910  0.05297  0.12479  1.0000
  C   C17       1.0  0.17272  0.64377  0.11647  1.0000
  C   C18       1.0  0.32731  0.35622  0.61647  1.0000
  C   C19       1.0  0.82729  0.14377  0.38353  1.0000
  C   C20       1.0  0.67271  0.85621  0.88353  1.0000
  C   C21       1.0  0.82730  0.35622  0.88353  1.0000
  C   C22       1.0  0.67270  0.64378  0.38353  1.0000
  C   C23       1.0  0.17270  0.85623  0.61647  1.0000
  C   C24       1.0  0.32728  0.14378  0.11647  1.0000
  C   C25       1.0  0.22170  0.70278  0.07600  1.0000
  C   C26       1.0  0.27833  0.29722  0.57600  1.0000
  C   C27       1.0  0.77832  0.20278  0.42400  1.0000
  C   C28       1.0  0.72169  0.79721  0.92400  1.0000
  C   C29       1.0  0.77832  0.29722  0.92399  1.0000
  C   C30       1.0  0.72167  0.70279  0.42400  1.0000
  C   C31       1.0  0.22168  0.79722  0.57601  1.0000
  C   C32       1.0  0.27830  0.20278  0.07601  1.0000
  C   C33       1.0  0.06156  0.66977  0.04350  1.0000
  C   C34       1.0  0.43847  0.33023  0.54350  1.0000
  C   C35       1.0  0.93846  0.16977  0.45649  1.0000
  C   C36       1.0  0.56156  0.83022  0.95650  1.0000
  C   C37       1.0  0.93845  0.33023  0.95649  1.0000
  C   C38       1.0  0.56153  0.66977  0.45649  1.0000
  C   C39       1.0  0.06154  0.83024  0.54351  1.0000
  C   C40       1.0  0.43844  0.16978  0.04351  1.0000
  C   C41       1.0  0.85036  0.57902  0.05164  1.0000
  C   C42       1.0  0.64966  0.42099  0.55164  1.0000
  C   C43       1.0  0.14965  0.07901  0.44836  1.0000
  C   C44       1.0  0.35036  0.92098  0.94836  1.0000
  C   C45       1.0  0.14964  0.42099  0.94836  1.0000
  C   C46       1.0  0.35034  0.57901  0.44836  1.0000
  C   C47       1.0  0.85036  0.92100  0.55164  1.0000
  C   C48       1.0  0.64963  0.07902  0.05164  1.0000
  C   C49       1.0  0.79929  0.52171  0.09207  1.0000
  C   C50       1.0  0.70073  0.47830  0.59207  1.0000
  C   C51       1.0  0.20072  0.02170  0.40793  1.0000
  C   C52       1.0  0.29929  0.97829  0.90793  1.0000
  C   C53       1.0  0.20070  0.47831  0.90793  1.0000
  C   C54       1.0  0.29928  0.52169  0.40793  1.0000
  C   C55       1.0  0.79928  0.97831  0.59207  1.0000
  C   C56       1.0  0.70069  0.02170  0.09207  1.0000
  S   S1        1.0  0.10634  0.51651  0.20817  1.0000
  S   S2        1.0  0.39367  0.48348  0.70817  1.0000
  S   S3        1.0  0.89365  0.01651  0.29183  1.0000
  S   S4        1.0  0.60633  0.98349  0.79184  1.0000
  S   S5        1.0  0.89365  0.48349  0.79183  1.0000
  S   S6        1.0  0.60634  0.51652  0.29183  1.0000
  S   S7        1.0  0.10632  0.98349  0.70817  1.0000
  S   S8        1.0  0.39367  0.01651  0.20817  1.0000
  O   O1        1.0  0.70820  0.40281  0.17183  1.0000
  O   O2        1.0  0.79182  0.59719  0.67183  1.0000
  O   O3        1.0  0.29180  0.90281  0.32817  1.0000
  O   O4        1.0  0.20818  0.09718  0.82818  1.0000
  O   O5        1.0  0.29181  0.59719  0.82817  1.0000
  O   O6        1.0  0.20820  0.40282  0.32817  1.0000
  O   O7        1.0  0.70817  0.09718  0.67183  1.0000
  O   O8        1.0  0.79181  0.90280  0.17183  1.0000
