data_image0
_chemical_formula_structural       Cd4H24C36S8N24
_chemical_formula_sum              "Cd4 H24 C36 S8 N24"
_cell_length_a       8.18839
_cell_length_b       10.8476
_cell_length_c       15.2627
_cell_angle_alpha    90
_cell_angle_beta     89.9999
_cell_angle_gamma    106.883

_space_group_name_H-M_alt    "P 1"
_space_group_IT_number       1

loop_
  _space_group_symop_operation_xyz
  'x, y, z'

loop_
  _atom_site_type_symbol
  _atom_site_label
  _atom_site_symmetry_multiplicity
  _atom_site_fract_x
  _atom_site_fract_y
  _atom_site_fract_z
  _atom_site_occupancy
  Cd  Cd1       1.0  0.42220  0.16124  0.13590  1.0000
  Cd  Cd2       1.0  0.57780  0.33877  0.63590  1.0000
  Cd  Cd3       1.0  0.57780  0.83876  0.86410  1.0000
  Cd  Cd4       1.0  0.42220  0.66124  0.36410  1.0000
  H   H1        1.0  0.81837  0.43880  0.46488  1.0000
  H   H2        1.0  0.18163  0.06120  0.96488  1.0000
  H   H3        1.0  0.18163  0.56120  0.53512  1.0000
  H   H4        1.0  0.81836  0.93880  0.03512  1.0000
  H   H5        1.0  0.97895  0.36177  0.34817  1.0000
  H   H6        1.0  0.02105  0.13823  0.84817  1.0000
  H   H7        1.0  0.02105  0.63823  0.65183  1.0000
  H   H8        1.0  0.97895  0.86177  0.15183  1.0000
  H   H9        1.0  0.85033  0.99464  0.48351  1.0000
  H   H10       1.0  0.14967  0.50536  0.98351  1.0000
  H   H11       1.0  0.14968  0.00536  0.51649  1.0000
  H   H12       1.0  0.85033  0.49464  0.01649  1.0000
  H   H13       1.0  0.69242  0.08677  0.59215  1.0000
  H   H14       1.0  0.30759  0.41323  0.09215  1.0000
  H   H15       1.0  0.30758  0.91323  0.40785  1.0000
  H   H16       1.0  0.69241  0.58677  0.90785  1.0000
  H   H17       1.0  0.19693  0.29607  0.28914  1.0000
  H   H18       1.0  0.80307  0.20393  0.78914  1.0000
  H   H19       1.0  0.80307  0.70393  0.71086  1.0000
  H   H20       1.0  0.19693  0.79607  0.21085  1.0000
  H   H21       1.0  0.90765  0.91520  0.35559  1.0000
  H   H22       1.0  0.09235  0.58480  0.85559  1.0000
  H   H23       1.0  0.09236  0.08480  0.64441  1.0000
  H   H24       1.0  0.90765  0.41520  0.14441  1.0000
  C   C1        1.0  0.82991  0.34115  0.46660  1.0000
  C   C2        1.0  0.17009  0.15885  0.96660  1.0000
  C   C3        1.0  0.17009  0.65885  0.53340  1.0000
  C   C4        1.0  0.82991  0.84115  0.03340  1.0000
  C   C5        1.0  0.91864  0.29791  0.40144  1.0000
  C   C6        1.0  0.08136  0.20209  0.90144  1.0000
  C   C7        1.0  0.08136  0.70209  0.59856  1.0000
  C   C8        1.0  0.91864  0.79791  0.09856  1.0000
  C   C9        1.0  0.92823  0.17186  0.40725  1.0000
  C   C10       1.0  0.07178  0.32814  0.90725  1.0000
  C   C11       1.0  0.07178  0.82814  0.59275  1.0000
  C   C12       1.0  0.92823  0.67187  0.09275  1.0000
  C   C13       1.0  0.84672  0.09361  0.47625  1.0000
  C   C14       1.0  0.15328  0.40639  0.97625  1.0000
  C   C15       1.0  0.15328  0.90639  0.52375  1.0000
  C   C16       1.0  0.84672  0.59361  0.02375  1.0000
  C   C17       1.0  0.75927  0.14475  0.53755  1.0000
  C   C18       1.0  0.24073  0.35524  0.03755  1.0000
  C   C19       1.0  0.24073  0.85524  0.46245  1.0000
  C   C20       1.0  0.75926  0.64475  0.96245  1.0000
  C   C21       1.0  0.15022  0.19152  0.29126  1.0000
  C   C22       1.0  0.84978  0.30848  0.79127  1.0000
  C   C23       1.0  0.84978  0.80848  0.70874  1.0000
  C   C24       1.0  0.15022  0.69152  0.20873  1.0000
  C   C25       1.0  0.00263  0.99540  0.32553  1.0000
  C   C26       1.0  0.99737  0.50460  0.82553  1.0000
  C   C27       1.0  0.99737  0.00460  0.67447  1.0000
  C   C28       1.0  0.00263  0.49540  0.17447  1.0000
  C   C29       1.0  0.67228  0.13352  0.96135  1.0000
  C   C30       1.0  0.32772  0.36648  0.46134  1.0000
  C   C31       1.0  0.32772  0.86648  0.03865  1.0000
  C   C32       1.0  0.67227  0.63352  0.53865  1.0000
  C   C33       1.0  0.57928  0.95845  0.26123  1.0000
  C   C34       1.0  0.42071  0.54154  0.76123  1.0000
  C   C35       1.0  0.42072  0.04155  0.73877  1.0000
  C   C36       1.0  0.57929  0.45846  0.23877  1.0000
  S   S1        1.0  0.66485  0.26708  0.00734  1.0000
  S   S2        1.0  0.33515  0.23293  0.50734  1.0000
  S   S3        1.0  0.33515  0.73292  0.99266  1.0000
  S   S4        1.0  0.66485  0.76708  0.49266  1.0000
  S   S5        1.0  0.68168  0.08516  0.20472  1.0000
  S   S6        1.0  0.31832  0.41484  0.70471  1.0000
  S   S7        1.0  0.31832  0.91484  0.79528  1.0000
  S   S8        1.0  0.68168  0.58516  0.29528  1.0000
  N   N1        1.0  0.75222  0.26679  0.53376  1.0000
  N   N2        1.0  0.24778  0.23321  0.03375  1.0000
  N   N3        1.0  0.24778  0.73321  0.46625  1.0000
  N   N4        1.0  0.75222  0.76679  0.96625  1.0000
  N   N5        1.0  0.02099  0.12283  0.34457  1.0000
  N   N6        1.0  0.97900  0.37717  0.84457  1.0000
  N   N7        1.0  0.97900  0.87717  0.65543  1.0000
  N   N8        1.0  0.02099  0.62283  0.15543  1.0000
  N   N9        1.0  0.20659  0.11053  0.24419  1.0000
  N   N10       1.0  0.79341  0.38947  0.74419  1.0000
  N   N11       1.0  0.79341  0.88947  0.75581  1.0000
  N   N12       1.0  0.20658  0.61053  0.25581  1.0000
  N   N13       1.0  0.11305  0.98603  0.26529  1.0000
  N   N14       1.0  0.88695  0.51397  0.76529  1.0000
  N   N15       1.0  0.88695  0.01397  0.73471  1.0000
  N   N16       1.0  0.11305  0.48603  0.23471  1.0000
  N   N17       1.0  0.68185  0.03875  0.92613  1.0000
  N   N18       1.0  0.31815  0.46126  0.42613  1.0000
  N   N19       1.0  0.31815  0.96125  0.07387  1.0000
  N   N20       1.0  0.68185  0.53875  0.57386  1.0000
  N   N21       1.0  0.50788  0.86661  0.30297  1.0000
  N   N22       1.0  0.49211  0.63339  0.80297  1.0000
  N   N23       1.0  0.49211  0.13339  0.69703  1.0000
  N   N24       1.0  0.50789  0.36661  0.19703  1.0000
