data_image0
_chemical_formula_structural       Ba4H36C28N4O28
_chemical_formula_sum              "Ba4 H36 C28 N4 O28"
_cell_length_a       6.57769
_cell_length_b       11.1043
_cell_length_c       13.5827
_cell_angle_alpha    90.0001
_cell_angle_beta     90
_cell_angle_gamma    93.9919

_space_group_name_H-M_alt    "P 1"
_space_group_IT_number       1

loop_
  _space_group_symop_operation_xyz
  'x, y, z'

loop_
  _atom_site_type_symbol
  _atom_site_label
  _atom_site_symmetry_multiplicity
  _atom_site_fract_x
  _atom_site_fract_y
  _atom_site_fract_z
  _atom_site_occupancy
  Ba  Ba1       1.0  0.07625  0.07166  0.63688  1.0000
  Ba  Ba2       1.0  0.42374  0.92834  0.13688  1.0000
  Ba  Ba3       1.0  0.92375  0.92833  0.36312  1.0000
  Ba  Ba4       1.0  0.57625  0.07166  0.86312  1.0000
  H   H1        1.0  0.94963  0.77877  0.58533  1.0000
  H   H2        1.0  0.55037  0.22123  0.08533  1.0000
  H   H3        1.0  0.05037  0.22123  0.41467  1.0000
  H   H4        1.0  0.44963  0.77877  0.91467  1.0000
  H   H5        1.0  0.73249  0.47171  0.65430  1.0000
  H   H6        1.0  0.76750  0.52829  0.15430  1.0000
  H   H7        1.0  0.26750  0.52829  0.34570  1.0000
  H   H8        1.0  0.23250  0.47171  0.84570  1.0000
  H   H9        1.0  0.00155  0.39852  0.58830  1.0000
  H   H10       1.0  0.49845  0.60148  0.08830  1.0000
  H   H11       1.0  0.99845  0.60148  0.41170  1.0000
  H   H12       1.0  0.50155  0.39852  0.91170  1.0000
  H   H13       1.0  0.15263  0.61183  0.58913  1.0000
  H   H14       1.0  0.34737  0.38817  0.08913  1.0000
  H   H15       1.0  0.84737  0.38817  0.41087  1.0000
  H   H16       1.0  0.65263  0.61183  0.91087  1.0000
  H   H17       1.0  0.38023  0.96704  0.42351  1.0000
  H   H18       1.0  0.11977  0.03296  0.92351  1.0000
  H   H19       1.0  0.61977  0.03296  0.57649  1.0000
  H   H20       1.0  0.88023  0.96704  0.07649  1.0000
  H   H21       1.0  0.37810  0.10474  0.44141  1.0000
  H   H22       1.0  0.12190  0.89526  0.94141  1.0000
  H   H23       1.0  0.62190  0.89526  0.55859  1.0000
  H   H24       1.0  0.87810  0.10474  0.05859  1.0000
  H   H25       1.0  0.88930  0.86789  0.81093  1.0000
  H   H26       1.0  0.61070  0.13211  0.31093  1.0000
  H   H27       1.0  0.11070  0.13211  0.18907  1.0000
  H   H28       1.0  0.38930  0.86789  0.68907  1.0000
  H   H29       1.0  0.18654  0.79569  0.55883  1.0000
  H   H30       1.0  0.31345  0.20431  0.05883  1.0000
  H   H31       1.0  0.81345  0.20431  0.44117  1.0000
  H   H32       1.0  0.68655  0.79569  0.94116  1.0000
  H   H33       1.0  0.77814  0.83790  0.71300  1.0000
  H   H34       1.0  0.72186  0.16210  0.21300  1.0000
  H   H35       1.0  0.22186  0.16210  0.28700  1.0000
  H   H36       1.0  0.27814  0.83790  0.78700  1.0000
  C   C1        1.0  0.57056  0.45936  0.63813  1.0000
  C   C2        1.0  0.92943  0.54064  0.13813  1.0000
  C   C3        1.0  0.42944  0.54064  0.36187  1.0000
  C   C4        1.0  0.07057  0.45936  0.86187  1.0000
  C   C5        1.0  0.47405  0.34341  0.63368  1.0000
  C   C6        1.0  0.02595  0.65659  0.13368  1.0000
  C   C7        1.0  0.52595  0.65659  0.36632  1.0000
  C   C8        1.0  0.97405  0.34341  0.86632  1.0000
  C   C9        1.0  0.16403  0.41921  0.60082  1.0000
  C   C10       1.0  0.33597  0.58079  0.10082  1.0000
  C   C11       1.0  0.83597  0.58079  0.39918  1.0000
  C   C12       1.0  0.66403  0.41921  0.89918  1.0000
  C   C13       1.0  0.59460  0.23377  0.64844  1.0000
  C   C14       1.0  0.90540  0.76623  0.14844  1.0000
  C   C15       1.0  0.40540  0.76623  0.35156  1.0000
  C   C16       1.0  0.09460  0.23377  0.85156  1.0000
  C   C17       1.0  0.55892  0.68471  0.62096  1.0000
  C   C18       1.0  0.94108  0.31529  0.12096  1.0000
  C   C19       1.0  0.44108  0.31529  0.37904  1.0000
  C   C20       1.0  0.05892  0.68471  0.87904  1.0000
  C   C21       1.0  0.45701  0.55903  0.62106  1.0000
  C   C22       1.0  0.04299  0.44097  0.12106  1.0000
  C   C23       1.0  0.54299  0.44097  0.37894  1.0000
  C   C24       1.0  0.95701  0.55903  0.87894  1.0000
  C   C25       1.0  0.24882  0.53779  0.60219  1.0000
  C   C26       1.0  0.25117  0.46221  0.10219  1.0000
  C   C27       1.0  0.75118  0.46220  0.39781  1.0000
  C   C28       1.0  0.74883  0.53780  0.89781  1.0000
  N   N1        1.0  0.27313  0.32325  0.61593  1.0000
  N   N2        1.0  0.22686  0.67675  0.11592  1.0000
  N   N3        1.0  0.72687  0.67675  0.38407  1.0000
  N   N4        1.0  0.77313  0.32325  0.88408  1.0000
  O   O1        1.0  0.05402  0.83110  0.55039  1.0000
  O   O2        1.0  0.44598  0.16890  0.05039  1.0000
  O   O3        1.0  0.94598  0.16890  0.44961  1.0000
  O   O4        1.0  0.55402  0.83110  0.94961  1.0000
  O   O5        1.0  0.82293  0.90767  0.75557  1.0000
  O   O6        1.0  0.67707  0.09233  0.25557  1.0000
  O   O7        1.0  0.17707  0.09233  0.24443  1.0000
  O   O8        1.0  0.32293  0.90767  0.74443  1.0000
  O   O9        1.0  0.29740  0.02751  0.45559  1.0000
  O   O10       1.0  0.20260  0.97249  0.95559  1.0000
  O   O11       1.0  0.70260  0.97249  0.54441  1.0000
  O   O12       1.0  0.79740  0.02751  0.04441  1.0000
  O   O13       1.0  0.49345  0.13081  0.65709  1.0000
  O   O14       1.0  0.00654  0.86919  0.15709  1.0000
  O   O15       1.0  0.50654  0.86919  0.34291  1.0000
  O   O16       1.0  0.99346  0.13081  0.84291  1.0000
  O   O17       1.0  0.78593  0.24828  0.65226  1.0000
  O   O18       1.0  0.71407  0.75172  0.15226  1.0000
  O   O19       1.0  0.21407  0.75172  0.34774  1.0000
  O   O20       1.0  0.28594  0.24828  0.84774  1.0000
  O   O21       1.0  0.74244  0.69873  0.64974  1.0000
  O   O22       1.0  0.75756  0.30127  0.14974  1.0000
  O   O23       1.0  0.25756  0.30127  0.35026  1.0000
  O   O24       1.0  0.24244  0.69873  0.85026  1.0000
  O   O25       1.0  0.45432  0.77116  0.59143  1.0000
  O   O26       1.0  0.04567  0.22884  0.09143  1.0000
  O   O27       1.0  0.54568  0.22884  0.40857  1.0000
  O   O28       1.0  0.95432  0.77116  0.90857  1.0000
