data_image0
_chemical_formula_structural       Cd2H16C16S4Br4N4
_chemical_formula_sum              "Cd2 H16 C16 S4 Br4 N4"
_cell_length_a       7.14085
_cell_length_b       9.64108
_cell_length_c       10.313
_cell_angle_alpha    112.488
_cell_angle_beta     105.593
_cell_angle_gamma    94.3071

_space_group_name_H-M_alt    "P 1"
_space_group_IT_number       1

loop_
  _space_group_symop_operation_xyz
  'x, y, z'

loop_
  _atom_site_type_symbol
  _atom_site_label
  _atom_site_symmetry_multiplicity
  _atom_site_fract_x
  _atom_site_fract_y
  _atom_site_fract_z
  _atom_site_occupancy
  Cd  Cd1       1.0  0.25278  0.58858  0.47776  1.0000
  Cd  Cd2       1.0  0.74721  0.41142  0.52224  1.0000
  H   H1        1.0  0.17574  0.37984  0.07469  1.0000
  H   H2        1.0  0.82425  0.62016  0.92532  1.0000
  H   H3        1.0  0.43610  0.44044  0.13169  1.0000
  H   H4        1.0  0.56390  0.55956  0.86831  1.0000
  H   H5        1.0  0.28321  0.43772  0.96097  1.0000
  H   H6        1.0  0.71679  0.56227  0.03903  1.0000
  H   H7        1.0  0.24408  0.00571  0.23729  1.0000
  H   H8        1.0  0.75592  0.99429  0.76271  1.0000
  H   H9        1.0  0.26027  0.16435  0.49747  1.0000
  H   H10       1.0  0.73974  0.83564  0.50252  1.0000
  H   H11       1.0  0.22291  0.79201  0.79894  1.0000
  H   H12       1.0  0.77709  0.20800  0.20106  1.0000
  H   H13       1.0  0.07619  0.93115  0.85088  1.0000
  H   H14       1.0  0.92381  0.06886  0.14913  1.0000
  H   H15       1.0  0.33828  0.98404  0.93238  1.0000
  H   H16       1.0  0.66172  0.01598  0.06762  1.0000
  C   C1        1.0  0.29342  0.46068  0.07556  1.0000
  C   C2        1.0  0.70657  0.53932  0.92445  1.0000
  C   C3        1.0  0.27549  0.62120  0.15628  1.0000
  C   C4        1.0  0.72450  0.37880  0.84371  1.0000
  C   C5        1.0  0.25057  0.89038  0.22900  1.0000
  C   C6        1.0  0.74944  0.10962  0.77100  1.0000
  C   C7        1.0  0.26098  0.83863  0.33767  1.0000
  C   C8        1.0  0.73902  0.16136  0.66232  1.0000
  C   C9        1.0  0.25283  0.92818  0.48547  1.0000
  C   C10       1.0  0.74718  0.07182  0.51453  1.0000
  C   C11       1.0  0.25122  0.08244  0.54564  1.0000
  C   C12       1.0  0.74879  0.91756  0.45436  1.0000
  C   C13       1.0  0.23122  0.95389  0.70630  1.0000
  C   C14       1.0  0.76878  0.04612  0.29370  1.0000
  C   C15       1.0  0.21703  0.91330  0.82909  1.0000
  C   C16       1.0  0.78297  0.08671  0.17091  1.0000
  S   S1        1.0  0.25651  0.74561  0.07135  1.0000
  S   S2        1.0  0.74349  0.25438  0.92864  1.0000
  S   S3        1.0  0.23406  0.13785  0.71891  1.0000
  S   S4        1.0  0.76595  0.86215  0.28109  1.0000
  Br  Br1       1.0  0.34601  0.30852  0.33858  1.0000
  Br  Br2       1.0  0.65399  0.69148  0.66143  1.0000
  Br  Br3       1.0  0.15511  0.48706  0.67700  1.0000
  Br  Br4       1.0  0.84489  0.51294  0.32300  1.0000
  N   N1        1.0  0.27536  0.68628  0.29463  1.0000
  N   N2        1.0  0.72464  0.31372  0.70536  1.0000
  N   N3        1.0  0.24125  0.85730  0.57778  1.0000
  N   N4        1.0  0.75875  0.14271  0.42222  1.0000
