data_image0
_chemical_formula_structural       Cd2H56C56N20O12
_chemical_formula_sum              "Cd2 H56 C56 N20 O12"
_cell_length_a       8.41806
_cell_length_b       9.10361
_cell_length_c       19.385
_cell_angle_alpha    90
_cell_angle_beta     90
_cell_angle_gamma    102.565

_space_group_name_H-M_alt    "P 1"
_space_group_IT_number       1

loop_
  _space_group_symop_operation_xyz
  'x, y, z'

loop_
  _atom_site_type_symbol
  _atom_site_label
  _atom_site_symmetry_multiplicity
  _atom_site_fract_x
  _atom_site_fract_y
  _atom_site_fract_z
  _atom_site_occupancy
  Cd  Cd1       1.0  0.00000  0.00000  0.50000  1.0000
  Cd  Cd2       1.0  1.00000  0.50000  1.00000  1.0000
  H   H1        1.0  0.69524  0.19229  0.54020  1.0000
  H   H2        1.0  0.30476  0.30771  0.04020  1.0000
  H   H3        1.0  0.30476  0.80771  0.45980  1.0000
  H   H4        1.0  0.69524  0.69229  0.95980  1.0000
  H   H5        1.0  0.04873  0.57329  0.60226  1.0000
  H   H6        1.0  0.95127  0.92671  0.10226  1.0000
  H   H7        1.0  0.95127  0.42671  0.39774  1.0000
  H   H8        1.0  0.04873  0.07329  0.89774  1.0000
  H   H9        1.0  0.20004  0.33314  0.57855  1.0000
  H   H10       1.0  0.79996  0.16686  0.07855  1.0000
  H   H11       1.0  0.79996  0.66686  0.42145  1.0000
  H   H12       1.0  0.20004  0.83314  0.92145  1.0000
  H   H13       1.0  0.60793  0.43460  0.54563  1.0000
  H   H14       1.0  0.39206  0.06539  0.04562  1.0000
  H   H15       1.0  0.39207  0.56540  0.45438  1.0000
  H   H16       1.0  0.60793  0.93461  0.95438  1.0000
  H   H17       1.0  0.75751  0.60474  0.55742  1.0000
  H   H18       1.0  0.24249  0.89526  0.05742  1.0000
  H   H19       1.0  0.24249  0.39526  0.44258  1.0000
  H   H20       1.0  0.75751  0.10474  0.94258  1.0000
  H   H21       1.0  0.83866  0.70444  0.67234  1.0000
  H   H22       1.0  0.16134  0.79555  0.17234  1.0000
  H   H23       1.0  0.16134  0.29556  0.32766  1.0000
  H   H24       1.0  0.83866  0.20444  0.82766  1.0000
  H   H25       1.0  0.76871  0.71371  0.79638  1.0000
  H   H26       1.0  0.23130  0.78628  0.29638  1.0000
  H   H27       1.0  0.23130  0.28629  0.20362  1.0000
  H   H28       1.0  0.76870  0.21371  0.70362  1.0000
  H   H29       1.0  0.54684  0.51721  0.84663  1.0000
  H   H30       1.0  0.45316  0.98279  0.34663  1.0000
  H   H31       1.0  0.45316  0.48279  0.15337  1.0000
  H   H32       1.0  0.54684  0.01720  0.65337  1.0000
  H   H33       1.0  0.46216  0.30496  0.64704  1.0000
  H   H34       1.0  0.53784  0.19504  0.14704  1.0000
  H   H35       1.0  0.53784  0.69504  0.35296  1.0000
  H   H36       1.0  0.46216  0.80496  0.85296  1.0000
  H   H37       1.0  0.29982  0.19782  0.74000  1.0000
  H   H38       1.0  0.70018  0.30218  0.24000  1.0000
  H   H39       1.0  0.70018  0.80218  0.26000  1.0000
  H   H40       1.0  0.29982  0.69782  0.76000  1.0000
  H   H41       1.0  0.40436  0.21647  0.82044  1.0000
  H   H42       1.0  0.59564  0.28353  0.32044  1.0000
  H   H43       1.0  0.59564  0.78353  0.17956  1.0000
  H   H44       1.0  0.40436  0.71647  0.67956  1.0000
  H   H45       1.0  0.10391  0.40531  0.72250  1.0000
  H   H46       1.0  0.89609  0.09469  0.22250  1.0000
  H   H47       1.0  0.89610  0.59469  0.27750  1.0000
  H   H48       1.0  0.10391  0.90531  0.77750  1.0000
  H   H49       1.0  0.92844  0.51659  0.82460  1.0000
  H   H50       1.0  0.07156  0.98341  0.32460  1.0000
  H   H51       1.0  0.07156  0.48341  0.17540  1.0000
  H   H52       1.0  0.92844  0.01659  0.67540  1.0000
  H   H53       1.0  0.28601  0.32138  0.91850  1.0000
  H   H54       1.0  0.71399  0.17862  0.41850  1.0000
  H   H55       1.0  0.71399  0.67862  0.08150  1.0000
  H   H56       1.0  0.28601  0.82138  0.58150  1.0000
  C   C1        1.0  0.81455  0.25991  0.55298  1.0000
  C   C2        1.0  0.18545  0.24008  0.05297  1.0000
  C   C3        1.0  0.18545  0.74009  0.44703  1.0000
  C   C4        1.0  0.81455  0.75992  0.94703  1.0000
  C   C5        1.0  0.00043  0.45809  0.58646  1.0000
  C   C6        1.0  0.99957  0.04191  0.08646  1.0000
  C   C7        1.0  0.99957  0.54191  0.41354  1.0000
  C   C8        1.0  0.00043  0.95809  0.91354  1.0000
  C   C9        1.0  0.07315  0.33908  0.57413  1.0000
  C   C10       1.0  0.92685  0.16091  0.07413  1.0000
  C   C11       1.0  0.92686  0.66091  0.42587  1.0000
  C   C12       1.0  0.07314  0.83909  0.92587  1.0000
  C   C13       1.0  0.70874  0.49205  0.57830  1.0000
  C   C14       1.0  0.29126  0.00794  0.07829  1.0000
  C   C15       1.0  0.29126  0.50795  0.42171  1.0000
  C   C16       1.0  0.70874  0.99206  0.92171  1.0000
  C   C17       1.0  0.65702  0.50262  0.65220  1.0000
  C   C18       1.0  0.34298  0.99738  0.15220  1.0000
  C   C19       1.0  0.34298  0.49738  0.34780  1.0000
  C   C20       1.0  0.65702  0.00262  0.84780  1.0000
  C   C21       1.0  0.74245  0.61746  0.69439  1.0000
  C   C22       1.0  0.25755  0.88254  0.19439  1.0000
  C   C23       1.0  0.25755  0.38255  0.30561  1.0000
  C   C24       1.0  0.74245  0.11746  0.80561  1.0000
  C   C25       1.0  0.70237  0.62287  0.76402  1.0000
  C   C26       1.0  0.29764  0.87713  0.26402  1.0000
  C   C27       1.0  0.29764  0.37713  0.23598  1.0000
  C   C28       1.0  0.70236  0.12287  0.73598  1.0000
  C   C29       1.0  0.57685  0.51351  0.79201  1.0000
  C   C30       1.0  0.42315  0.98649  0.29201  1.0000
  C   C31       1.0  0.42315  0.48649  0.20799  1.0000
  C   C32       1.0  0.57685  0.01351  0.70799  1.0000
  C   C33       1.0  0.48876  0.39931  0.74987  1.0000
  C   C34       1.0  0.51124  0.10069  0.24987  1.0000
  C   C35       1.0  0.51124  0.60069  0.25013  1.0000
  C   C36       1.0  0.48876  0.89931  0.75013  1.0000
  C   C37       1.0  0.52886  0.39489  0.68005  1.0000
  C   C38       1.0  0.47114  0.10511  0.18005  1.0000
  C   C39       1.0  0.47114  0.60511  0.31995  1.0000
  C   C40       1.0  0.52886  0.89489  0.81995  1.0000
  C   C41       1.0  0.35499  0.27846  0.77993  1.0000
  C   C42       1.0  0.64501  0.22154  0.27993  1.0000
  C   C43       1.0  0.64501  0.72155  0.22007  1.0000
  C   C44       1.0  0.35499  0.77845  0.72007  1.0000
  C   C45       1.0  0.11474  0.40664  0.77828  1.0000
  C   C46       1.0  0.88526  0.09336  0.27828  1.0000
  C   C47       1.0  0.88526  0.59335  0.22172  1.0000
  C   C48       1.0  0.11474  0.90665  0.72172  1.0000
  C   C49       1.0  0.02948  0.46114  0.82936  1.0000
  C   C50       1.0  0.97052  0.03886  0.32936  1.0000
  C   C51       1.0  0.97052  0.53886  0.17064  1.0000
  C   C52       1.0  0.02949  0.96114  0.67064  1.0000
  C   C53       1.0  0.20805  0.35901  0.88082  1.0000
  C   C54       1.0  0.79195  0.14099  0.38082  1.0000
  C   C55       1.0  0.79195  0.64099  0.11918  1.0000
  C   C56       1.0  0.20805  0.85901  0.61918  1.0000
  N   N1        1.0  0.95593  0.21638  0.55304  1.0000
  N   N2        1.0  0.04407  0.28362  0.05304  1.0000
  N   N3        1.0  0.04407  0.78362  0.44696  1.0000
  N   N4        1.0  0.95592  0.71638  0.94696  1.0000
  N   N5        1.0  0.83705  0.40605  0.57239  1.0000
  N   N6        1.0  0.16295  0.09394  0.07239  1.0000
  N   N7        1.0  0.16295  0.59395  0.42761  1.0000
  N   N8        1.0  0.83705  0.90606  0.92761  1.0000
  N   N9        1.0  0.22682  0.34127  0.81196  1.0000
  N   N10       1.0  0.77318  0.15873  0.31196  1.0000
  N   N11       1.0  0.77318  0.65873  0.18804  1.0000
  N   N12       1.0  0.22682  0.84127  0.68804  1.0000
  N   N13       1.0  0.08869  0.43031  0.89295  1.0000
  N   N14       1.0  0.91131  0.06969  0.39295  1.0000
  N   N15       1.0  0.91131  0.56969  0.10705  1.0000
  N   N16       1.0  0.08869  0.93031  0.60705  1.0000
  N   N17       1.0  0.60498  0.81791  0.51992  1.0000
  N   N18       1.0  0.39501  0.68208  0.01992  1.0000
  N   N19       1.0  0.39502  0.18208  0.48008  1.0000
  N   N20       1.0  0.60499  0.31792  0.98008  1.0000
  O   O1        1.0  0.73868  0.86895  0.55208  1.0000
  O   O2        1.0  0.26131  0.63104  0.05208  1.0000
  O   O3        1.0  0.26132  0.13104  0.44792  1.0000
  O   O4        1.0  0.73868  0.36895  0.94792  1.0000
  O   O5        1.0  0.59007  0.85109  0.45731  1.0000
  O   O6        1.0  0.40993  0.64891  0.95731  1.0000
  O   O7        1.0  0.40993  0.14891  0.54269  1.0000
  O   O8        1.0  0.59007  0.35109  0.04269  1.0000
  O   O9        1.0  0.48957  0.73281  0.55192  1.0000
  O   O10       1.0  0.51042  0.76719  0.05193  1.0000
  O   O11       1.0  0.51043  0.26719  0.44807  1.0000
  O   O12       1.0  0.48957  0.23281  0.94807  1.0000
