data_image0
_chemical_formula_structural       K4H24C24S4N4Cl8O12
_chemical_formula_sum              "K4 H24 C24 S4 N4 Cl8 O12"
_cell_length_a       6.73066
_cell_length_b       9.90527
_cell_length_c       15.5042
_cell_angle_alpha    90.0001
_cell_angle_beta     100.418
_cell_angle_gamma    89.9998

_space_group_name_H-M_alt    "P 1"
_space_group_IT_number       1

loop_
  _space_group_symop_operation_xyz
  'x, y, z'

loop_
  _atom_site_type_symbol
  _atom_site_label
  _atom_site_symmetry_multiplicity
  _atom_site_fract_x
  _atom_site_fract_y
  _atom_site_fract_z
  _atom_site_occupancy
  K   K1        1.0  0.88485  0.61925  0.56034  1.0000
  K   K2        1.0  0.61515  0.11925  0.43966  1.0000
  K   K3        1.0  0.11514  0.38075  0.43965  1.0000
  K   K4        1.0  0.38486  0.88076  0.56034  1.0000
  H   H1        1.0  0.47006  0.76160  0.77967  1.0000
  H   H2        1.0  0.02994  0.26160  0.22033  1.0000
  H   H3        1.0  0.52994  0.23840  0.22033  1.0000
  H   H4        1.0  0.97006  0.73840  0.77967  1.0000
  H   H5        1.0  0.38110  0.78335  0.92839  1.0000
  H   H6        1.0  0.11890  0.28335  0.07161  1.0000
  H   H7        1.0  0.61890  0.21664  0.07162  1.0000
  H   H8        1.0  0.88110  0.71665  0.92838  1.0000
  H   H9        1.0  0.18851  0.36686  0.91620  1.0000
  H   H10       1.0  0.31149  0.86686  0.08380  1.0000
  H   H11       1.0  0.81148  0.63314  0.08380  1.0000
  H   H12       1.0  0.68852  0.13314  0.91620  1.0000
  H   H13       1.0  0.27914  0.34515  0.76831  1.0000
  H   H14       1.0  0.22087  0.84515  0.23170  1.0000
  H   H15       1.0  0.72085  0.65485  0.23169  1.0000
  H   H16       1.0  0.77914  0.15485  0.76830  1.0000
  H   H17       1.0  0.25240  0.66211  0.41792  1.0000
  H   H18       1.0  0.24760  0.16212  0.58208  1.0000
  H   H19       1.0  0.74760  0.33789  0.58208  1.0000
  H   H20       1.0  0.75240  0.83789  0.41792  1.0000
  H   H21       1.0  0.06275  0.75485  0.40033  1.0000
  H   H22       1.0  0.43724  0.25485  0.59967  1.0000
  H   H23       1.0  0.93725  0.24515  0.59967  1.0000
  H   H24       1.0  0.56275  0.74515  0.40033  1.0000
  C   C1        1.0  0.37945  0.55284  0.76563  1.0000
  C   C2        1.0  0.12055  0.05284  0.23437  1.0000
  C   C3        1.0  0.62055  0.44716  0.23437  1.0000
  C   C4        1.0  0.87945  0.94716  0.76563  1.0000
  C   C5        1.0  0.40804  0.67593  0.80984  1.0000
  C   C6        1.0  0.09196  0.17593  0.19016  1.0000
  C   C7        1.0  0.59195  0.32406  0.19016  1.0000
  C   C8        1.0  0.90805  0.82406  0.80984  1.0000
  C   C9        1.0  0.35884  0.68799  0.89310  1.0000
  C   C10       1.0  0.14116  0.18799  0.10690  1.0000
  C   C11       1.0  0.64116  0.31201  0.10690  1.0000
  C   C12       1.0  0.85884  0.81201  0.89309  1.0000
  C   C13       1.0  0.28179  0.57604  0.93070  1.0000
  C   C14       1.0  0.21821  0.07604  0.06930  1.0000
  C   C15       1.0  0.71820  0.42395  0.06930  1.0000
  C   C16       1.0  0.78179  0.92396  0.93070  1.0000
  C   C17       1.0  0.24843  0.45323  0.88578  1.0000
  C   C18       1.0  0.25158  0.95323  0.11421  1.0000
  C   C19       1.0  0.75157  0.54677  0.11422  1.0000
  C   C20       1.0  0.74843  0.04677  0.88578  1.0000
  C   C21       1.0  0.29853  0.44147  0.80280  1.0000
  C   C22       1.0  0.20148  0.94147  0.19720  1.0000
  C   C23       1.0  0.70147  0.55853  0.19720  1.0000
  C   C24       1.0  0.79853  0.05853  0.80280  1.0000
  S   S1        1.0  0.45108  0.53372  0.66129  1.0000
  S   S2        1.0  0.04892  0.03372  0.33871  1.0000
  S   S3        1.0  0.54892  0.46628  0.33871  1.0000
  S   S4        1.0  0.95108  0.96628  0.66129  1.0000
  N   N1        1.0  0.59026  0.40163  0.66468  1.0000
  N   N2        1.0  0.90975  0.90163  0.33532  1.0000
  N   N3        1.0  0.40974  0.59838  0.33532  1.0000
  N   N4        1.0  0.09026  0.09838  0.66468  1.0000
  Cl  Cl1       1.0  0.23230  0.58815  0.03627  1.0000
  Cl  Cl2       1.0  0.26770  0.08815  0.96373  1.0000
  Cl  Cl3       1.0  0.76769  0.41185  0.96373  1.0000
  Cl  Cl4       1.0  0.73231  0.91185  0.03627  1.0000
  Cl  Cl5       1.0  0.81115  0.42509  0.74376  1.0000
  Cl  Cl6       1.0  0.68885  0.92509  0.25624  1.0000
  Cl  Cl7       1.0  0.18885  0.57491  0.25624  1.0000
  Cl  Cl8       1.0  0.31115  0.07491  0.74376  1.0000
  O   O1        1.0  0.27006  0.50025  0.59748  1.0000
  O   O2        1.0  0.22994  0.00025  0.40252  1.0000
  O   O3        1.0  0.72994  0.49976  0.40252  1.0000
  O   O4        1.0  0.77006  0.99976  0.59747  1.0000
  O   O5        1.0  0.55256  0.66012  0.64537  1.0000
  O   O6        1.0  0.94745  0.16012  0.35463  1.0000
  O   O7        1.0  0.44744  0.33988  0.35463  1.0000
  O   O8        1.0  0.05256  0.83988  0.64537  1.0000
  O   O9        1.0  0.14264  0.69765  0.44616  1.0000
  O   O10       1.0  0.35736  0.19765  0.55384  1.0000
  O   O11       1.0  0.85736  0.30235  0.55384  1.0000
  O   O12       1.0  0.64264  0.80235  0.44616  1.0000
