data_image0
_chemical_formula_structural       CuH16C26S2N4O4F6
_chemical_formula_sum              "Cu1 H16 C26 S2 N4 O4 F6"
_cell_length_a       8.4408
_cell_length_b       9.14186
_cell_length_c       9.52243
_cell_angle_alpha    113.422
_cell_angle_beta     100.892
_cell_angle_gamma    90.5525

_space_group_name_H-M_alt    "P 1"
_space_group_IT_number       1

loop_
  _space_group_symop_operation_xyz
  'x, y, z'

loop_
  _atom_site_type_symbol
  _atom_site_label
  _atom_site_symmetry_multiplicity
  _atom_site_fract_x
  _atom_site_fract_y
  _atom_site_fract_z
  _atom_site_occupancy
  Cu  Cu1       1.0  0.00000  0.00000  0.50001  1.0000
  H   H1        1.0  0.98801  0.50618  0.77179  1.0000
  H   H2        1.0  0.01199  0.49382  0.22820  1.0000
  H   H3        1.0  0.82696  0.64928  0.68443  1.0000
  H   H4        1.0  0.17305  0.35071  0.31557  1.0000
  H   H5        1.0  0.60862  0.74253  0.50976  1.0000
  H   H6        1.0  0.39139  0.25747  0.49024  1.0000
  H   H7        1.0  0.63342  0.11958  0.55789  1.0000
  H   H8        1.0  0.36659  0.88042  0.44211  1.0000
  H   H9        1.0  0.43264  0.12502  0.72729  1.0000
  H   H10       1.0  0.56736  0.87497  0.27271  1.0000
  H   H11       1.0  0.79506  0.94962  0.98981  1.0000
  H   H12       1.0  0.20493  0.05038  0.01019  1.0000
  H   H13       1.0  0.97931  0.94871  0.80734  1.0000
  H   H14       1.0  0.02069  0.05129  0.19267  1.0000
  H   H15       1.0  0.49747  0.50609  0.23115  1.0000
  H   H16       1.0  0.50253  0.49391  0.76885  1.0000
  C   C1        1.0  0.20631  0.38949  0.92702  1.0000
  C   C2        1.0  0.79370  0.61052  0.07298  1.0000
  C   C3        1.0  0.11325  0.30177  0.75638  1.0000
  C   C4        1.0  0.88675  0.69823  0.24362  1.0000
  C   C5        1.0  0.00025  0.38307  0.69738  1.0000
  C   C6        1.0  0.99975  0.61693  0.30262  1.0000
  C   C7        1.0  0.90283  0.31481  0.54392  1.0000
  C   C8        1.0  0.09718  0.68519  0.45608  1.0000
  C   C9        1.0  0.79385  0.41336  0.49022  1.0000
  C   C10       1.0  0.20616  0.58664  0.50977  1.0000
  C   C11       1.0  0.76531  0.57240  0.56583  1.0000
  C   C12       1.0  0.23469  0.42760  0.43417  1.0000
  C   C13       1.0  0.64768  0.62245  0.47198  1.0000
  C   C14       1.0  0.35232  0.37754  0.52802  1.0000
  C   C15       1.0  0.58803  0.50143  0.32637  1.0000
  C   C16       1.0  0.41197  0.49856  0.67363  1.0000
  C   C17       1.0  0.66433  0.08278  0.65491  1.0000
  C   C18       1.0  0.33568  0.91722  0.34509  1.0000
  C   C19       1.0  0.55381  0.08715  0.74797  1.0000
  C   C20       1.0  0.44619  0.91285  0.25203  1.0000
  C   C21       1.0  0.60149  0.03757  0.86986  1.0000
  C   C22       1.0  0.39850  0.96243  0.13014  1.0000
  C   C23       1.0  0.75697  0.98762  0.89481  1.0000
  C   C24       1.0  0.24303  0.01239  0.10519  1.0000
  C   C25       1.0  0.85762  0.98810  0.79507  1.0000
  C   C26       1.0  0.14238  0.01190  0.20494  1.0000
  S   S1        1.0  0.67448  0.32759  0.30350  1.0000
  S   S2        1.0  0.32552  0.67241  0.69650  1.0000
  N   N1        1.0  0.81303  0.03442  0.67691  1.0000
  N   N2        1.0  0.18697  0.96558  0.32310  1.0000
  N   N3        1.0  0.49019  0.04767  0.96667  1.0000
  N   N4        1.0  0.50981  0.95233  0.03333  1.0000
  O   O1        1.0  0.90114  0.16900  0.44569  1.0000
  O   O2        1.0  0.09886  0.83099  0.55432  1.0000
  O   O3        1.0  0.15046  0.15839  0.69156  1.0000
  O   O4        1.0  0.84953  0.84161  0.30845  1.0000
  F   F1        1.0  0.18702  0.54865  0.99252  1.0000
  F   F2        1.0  0.81298  0.45136  0.00747  1.0000
  F   F3        1.0  0.15446  0.32264  0.01877  1.0000
  F   F4        1.0  0.84555  0.67737  0.98124  1.0000
  F   F5        1.0  0.36846  0.37590  0.94162  1.0000
  F   F6        1.0  0.63154  0.62410  0.05838  1.0000
