data_image0
_chemical_formula_structural       K4H28C24S4Br4N4Cl4O14
_chemical_formula_sum              "K4 H28 C24 S4 Br4 N4 Cl4 O14"
_cell_length_a       6.8926
_cell_length_b       6.99209
_cell_length_c       27.0144
_cell_angle_alpha    86.3838
_cell_angle_beta     82.6529
_cell_angle_gamma    60.4638

_space_group_name_H-M_alt    "P 1"
_space_group_IT_number       1

loop_
  _space_group_symop_operation_xyz
  'x, y, z'

loop_
  _atom_site_type_symbol
  _atom_site_label
  _atom_site_symmetry_multiplicity
  _atom_site_fract_x
  _atom_site_fract_y
  _atom_site_fract_z
  _atom_site_occupancy
  K   K1        1.0  0.14037  0.68899  0.98675  1.0000
  K   K2        1.0  0.81594  0.31091  0.01309  1.0000
  K   K3        1.0  0.57962  0.81121  0.48686  1.0000
  K   K4        1.0  0.87690  0.18922  0.51333  1.0000
  H   H1        1.0  0.04836  0.58794  0.75327  1.0000
  H   H2        1.0  0.38970  0.41214  0.24667  1.0000
  H   H3        1.0  0.38600  0.91219  0.25344  1.0000
  H   H4        1.0  0.55102  0.08754  0.74672  1.0000
  H   H5        1.0  0.84625  0.40354  0.72917  1.0000
  H   H6        1.0  0.97893  0.59678  0.27073  1.0000
  H   H7        1.0  0.99931  0.09640  0.22943  1.0000
  H   H8        1.0  0.32460  0.90326  0.77075  1.0000
  H   H9        1.0  0.81139  0.12171  0.78595  1.0000
  H   H10       1.0  0.71926  0.87855  0.21391  1.0000
  H   H11       1.0  0.68272  0.37877  0.28616  1.0000
  H   H12       1.0  0.34715  0.62111  0.71398  1.0000
  H   H13       1.0  0.98157  0.02937  0.86566  1.0000
  H   H14       1.0  0.87722  0.97078  0.13423  1.0000
  H   H15       1.0  0.76093  0.47166  0.36575  1.0000
  H   H16       1.0  0.59770  0.52845  0.63435  1.0000
  H   H17       1.0  0.80528  0.66432  0.08395  1.0000
  H   H18       1.0  0.55315  0.33507  0.91603  1.0000
  H   H19       1.0  0.21926  0.83491  0.58403  1.0000
  H   H20       1.0  0.63898  0.16507  0.41601  1.0000
  H   H21       1.0  0.04107  0.45910  0.09223  1.0000
  H   H22       1.0  0.59201  0.54030  0.90773  1.0000
  H   H23       1.0  0.24956  0.04026  0.59235  1.0000
  H   H24       1.0  0.88303  0.95975  0.40771  1.0000
  H   H25       1.0  0.60027  0.03223  0.97114  1.0000
  H   H26       1.0  0.60420  0.96740  0.02867  1.0000
  H   H27       1.0  0.38277  0.46775  0.47122  1.0000
  H   H28       1.0  0.32139  0.53247  0.52877  1.0000
  C   C1        1.0  0.11470  0.25049  0.85410  1.0000
  C   C2        1.0  0.21988  0.74965  0.14581  1.0000
  C   C3        1.0  0.11528  0.25051  0.35416  1.0000
  C   C4        1.0  0.71918  0.74963  0.64593  1.0000
  C   C5        1.0  0.13403  0.40815  0.82204  1.0000
  C   C6        1.0  0.36469  0.59196  0.17789  1.0000
  C   C7        1.0  0.29212  0.09258  0.32211  1.0000
  C   C8        1.0  0.70616  0.90737  0.67799  1.0000
  C   C9        1.0  0.03400  0.46421  0.77759  1.0000
  C   C10       1.0  0.27604  0.53596  0.22235  1.0000
  C   C11       1.0  0.24799  0.03616  0.27773  1.0000
  C   C12       1.0  0.56124  0.96370  0.72240  1.0000
  C   C13       1.0  0.91892  0.36113  0.76438  1.0000
  C   C14       1.0  0.04463  0.63909  0.23553  1.0000
  C   C15       1.0  0.02973  0.13912  0.26458  1.0000
  C   C16       1.0  0.43280  0.86071  0.73558  1.0000
  C   C17       1.0  0.89914  0.20482  0.79599  1.0000
  C   C18       1.0  0.90029  0.79544  0.20390  1.0000
  C   C19       1.0  0.85373  0.29580  0.29616  1.0000
  C   C20       1.0  0.44517  0.70410  0.70399  1.0000
  C   C21       1.0  0.99584  0.15089  0.84061  1.0000
  C   C22       1.0  0.98785  0.84920  0.15928  1.0000
  C   C23       1.0  0.89675  0.35000  0.34071  1.0000
  C   C24       1.0  0.58679  0.65005  0.65940  1.0000
  S   S1        1.0  0.22714  0.17426  0.91305  1.0000
  S   S2        1.0  0.31498  0.82572  0.08682  1.0000
  S   S3        1.0  0.15199  0.32612  0.41315  1.0000
  S   S4        1.0  0.89048  0.67400  0.58695  1.0000
  Br  Br1       1.0  0.65683  0.85130  0.86425  1.0000
  Br  Br2       1.0  0.37363  0.14875  0.13541  1.0000
  Br  Br3       1.0  0.25830  0.64979  0.36462  1.0000
  Br  Br4       1.0  0.27099  0.35068  0.63569  1.0000
  N   N1        1.0  0.48651  0.10484  0.90640  1.0000
  N   N2        1.0  0.49859  0.89490  0.09338  1.0000
  N   N3        1.0  0.34212  0.39526  0.40649  1.0000
  N   N4        1.0  0.14319  0.60451  0.59359  1.0000
  Cl  Cl1       1.0  0.27988  0.53815  0.83505  1.0000
  Cl  Cl2       1.0  0.65365  0.46173  0.16491  1.0000
  Cl  Cl3       1.0  0.56815  0.96261  0.33503  1.0000
  Cl  Cl4       1.0  0.86507  0.03742  0.66507  1.0000
  O   O1        1.0  0.17369  0.00346  0.93200  1.0000
  O   O2        1.0  0.10966  0.99682  0.06792  1.0000
  O   O3        1.0  0.92796  0.49721  0.43218  1.0000
  O   O4        1.0  0.85631  0.50309  0.56794  1.0000
  O   O5        1.0  0.12026  0.37334  0.94366  1.0000
  O   O6        1.0  0.43747  0.62665  0.05620  1.0000
  O   O7        1.0  0.24399  0.12671  0.44365  1.0000
  O   O8        1.0  0.81396  0.87336  0.55644  1.0000
  O   O9        1.0  0.95099  0.55476  0.06663  1.0000
  O   O10       1.0  0.57184  0.44472  0.93334  1.0000
  O   O11       1.0  0.25527  0.94459  0.56673  1.0000
  O   O12       1.0  0.76732  0.05538  0.43333  1.0000
  O   O13       1.0  0.68746  0.99985  0.99987  1.0000
  O   O14       1.0  0.43724  0.50014  0.50001  1.0000
