data_image0
_chemical_formula_structural       Ag6H36C24S6N18O18
_chemical_formula_sum              "Ag6 H36 C24 S6 N18 O18"
_cell_length_a       8.79452
_cell_length_b       11.127
_cell_length_c       14.0544
_cell_angle_alpha    82.7453
_cell_angle_beta     89.3449
_cell_angle_gamma    79.001

_space_group_name_H-M_alt    "P 1"
_space_group_IT_number       1

loop_
  _space_group_symop_operation_xyz
  'x, y, z'

loop_
  _atom_site_type_symbol
  _atom_site_label
  _atom_site_symmetry_multiplicity
  _atom_site_fract_x
  _atom_site_fract_y
  _atom_site_fract_z
  _atom_site_occupancy
  Ag  Ag1       1.0  0.80780  0.52756  0.50060  1.0000
  Ag  Ag2       1.0  0.19220  0.47244  0.49940  1.0000
  Ag  Ag3       1.0  0.59016  0.39598  0.33254  1.0000
  Ag  Ag4       1.0  0.40984  0.60402  0.66746  1.0000
  Ag  Ag5       1.0  0.59356  0.28784  0.58365  1.0000
  Ag  Ag6       1.0  0.40644  0.71216  0.41635  1.0000
  H   H1        1.0  0.35233  0.08705  0.56745  1.0000
  H   H2        1.0  0.64767  0.91295  0.43254  1.0000
  H   H3        1.0  0.35266  0.20883  0.26736  1.0000
  H   H4        1.0  0.64734  0.79117  0.73264  1.0000
  H   H5        1.0  0.21006  0.97493  0.46151  1.0000
  H   H6        1.0  0.78994  0.02507  0.53849  1.0000
  H   H7        1.0  0.25195  0.98768  0.33678  1.0000
  H   H8        1.0  0.74805  0.01232  0.66322  1.0000
  H   H9        1.0  0.96770  0.04554  0.37395  1.0000
  H   H10       1.0  0.03230  0.95446  0.62605  1.0000
  H   H11       1.0  0.03822  0.16677  0.30116  1.0000
  H   H12       1.0  0.96177  0.83323  0.69885  1.0000
  H   H13       1.0  0.64239  0.60508  0.13628  1.0000
  H   H14       1.0  0.35761  0.39492  0.86372  1.0000
  H   H15       1.0  0.86868  0.76422  0.34000  1.0000
  H   H16       1.0  0.13132  0.23579  0.66000  1.0000
  H   H17       1.0  0.82497  0.77776  0.07387  1.0000
  H   H18       1.0  0.17503  0.22224  0.92613  1.0000
  H   H19       1.0  0.86029  0.86686  0.16722  1.0000
  H   H20       1.0  0.13972  0.13314  0.83278  1.0000
  H   H21       1.0  0.55187  0.85830  0.06978  1.0000
  H   H22       1.0  0.44814  0.14171  0.93022  1.0000
  H   H23       1.0  0.64613  0.98663  0.06982  1.0000
  H   H24       1.0  0.35387  0.01337  0.93018  1.0000
  H   H25       1.0  0.69860  0.26076  0.81425  1.0000
  H   H26       1.0  0.30140  0.73924  0.18575  1.0000
  H   H27       1.0  0.93249  0.55734  0.72773  1.0000
  H   H28       1.0  0.06751  0.44266  0.27227  1.0000
  H   H29       1.0  0.97289  0.46101  0.90484  1.0000
  H   H30       1.0  0.02711  0.53898  0.09516  1.0000
  H   H31       1.0  0.93128  0.31118  0.93431  1.0000
  H   H32       1.0  0.06873  0.68882  0.06569  1.0000
  H   H33       1.0  0.79136  0.44553  0.04174  1.0000
  H   H34       1.0  0.20864  0.55447  0.95826  1.0000
  H   H35       1.0  0.64883  0.41044  0.96653  1.0000
  H   H36       1.0  0.35117  0.58956  0.03347  1.0000
  C   C1        1.0  0.37398  0.13642  0.49801  1.0000
  C   C2        1.0  0.62602  0.86358  0.50198  1.0000
  C   C3        1.0  0.37268  0.20009  0.34431  1.0000
  C   C4        1.0  0.62732  0.79991  0.65569  1.0000
  C   C5        1.0  0.20917  0.03992  0.39605  1.0000
  C   C6        1.0  0.79082  0.96008  0.60395  1.0000
  C   C7        1.0  0.04592  0.11172  0.37211  1.0000
  C   C8        1.0  0.95408  0.88828  0.62789  1.0000
  C   C9        1.0  0.69641  0.61626  0.20361  1.0000
  C   C10       1.0  0.30359  0.38374  0.79639  1.0000
  C   C11       1.0  0.81121  0.70106  0.30687  1.0000
  C   C12       1.0  0.18879  0.29894  0.69313  1.0000
  C   C13       1.0  0.77878  0.81657  0.13888  1.0000
  C   C14       1.0  0.22122  0.18344  0.86111  1.0000
  C   C15       1.0  0.62395  0.90230  0.11261  1.0000
  C   C16       1.0  0.37605  0.09770  0.88738  1.0000
  C   C17       1.0  0.74684  0.33304  0.77224  1.0000
  C   C18       1.0  0.25316  0.66695  0.22776  1.0000
  C   C19       1.0  0.86629  0.48465  0.72717  1.0000
  C   C20       1.0  0.13371  0.51535  0.27283  1.0000
  C   C21       1.0  0.88130  0.40656  0.90526  1.0000
  C   C22       1.0  0.11870  0.59344  0.09474  1.0000
  C   C23       1.0  0.74779  0.45765  0.96749  1.0000
  C   C24       1.0  0.25221  0.54235  0.03251  1.0000
  S   S1        1.0  0.97153  0.21794  0.45638  1.0000
  S   S2        1.0  0.02847  0.78206  0.54362  1.0000
  S   S3        1.0  0.51257  0.94870  0.21488  1.0000
  S   S4        1.0  0.48743  0.05130  0.78512  1.0000
  S   S5        1.0  0.67847  0.62105  0.93352  1.0000
  S   S6        1.0  0.32153  0.37895  0.06648  1.0000
  N   N1        1.0  0.45950  0.22256  0.48458  1.0000
  N   N2        1.0  0.54050  0.77744  0.51542  1.0000
  N   N3        1.0  0.45834  0.26284  0.38744  1.0000
  N   N4        1.0  0.54166  0.73715  0.61256  1.0000
  N   N5        1.0  0.31832  0.12005  0.41160  1.0000
  N   N6        1.0  0.68167  0.87995  0.58840  1.0000
  N   N7        1.0  0.77307  0.59995  0.35272  1.0000
  N   N8        1.0  0.22693  0.40005  0.64727  1.0000
  N   N9        1.0  0.70011  0.54621  0.28724  1.0000
  N   N10       1.0  0.29989  0.45379  0.71276  1.0000
  N   N11       1.0  0.76684  0.71306  0.21319  1.0000
  N   N12       1.0  0.23316  0.28694  0.78681  1.0000
  N   N13       1.0  0.72560  0.36261  0.67866  1.0000
  N   N14       1.0  0.27440  0.63739  0.32134  1.0000
  N   N15       1.0  0.80200  0.45779  0.64986  1.0000
  N   N16       1.0  0.19800  0.54221  0.35014  1.0000
  N   N17       1.0  0.83575  0.40708  0.80488  1.0000
  N   N18       1.0  0.16425  0.59292  0.19512  1.0000
  O   O1        1.0  0.80176  0.23525  0.44664  1.0000
  O   O2        1.0  0.19824  0.76474  0.55336  1.0000
  O   O3        1.0  0.03001  0.33250  0.42404  1.0000
  O   O4        1.0  0.96999  0.66750  0.57596  1.0000
  O   O5        1.0  0.03043  0.15958  0.55201  1.0000
  O   O6        1.0  0.96958  0.84042  0.44799  1.0000
  O   O7        1.0  0.39079  0.05161  0.17717  1.0000
  O   O8        1.0  0.60921  0.94839  0.82283  1.0000
  O   O9        1.0  0.62307  0.97826  0.28229  1.0000
  O   O10       1.0  0.37693  0.02175  0.71771  1.0000
  O   O11       1.0  0.45024  0.83738  0.25338  1.0000
  O   O12       1.0  0.54976  0.16262  0.74662  1.0000
  O   O13       1.0  0.56455  0.65815  0.00755  1.0000
  O   O14       1.0  0.43545  0.34185  0.99245  1.0000
  O   O15       1.0  0.81796  0.67566  0.93605  1.0000
  O   O16       1.0  0.18204  0.32434  0.06395  1.0000
  O   O17       1.0  0.60887  0.63111  0.83764  1.0000
  O   O18       1.0  0.39113  0.36889  0.16236  1.0000
