data_image0
_chemical_formula_structural       Zn2H40C52N4O12
_chemical_formula_sum              "Zn2 H40 C52 N4 O12"
_cell_length_a       9.39294
_cell_length_b       11.708
_cell_length_c       12.897
_cell_angle_alpha    115.857
_cell_angle_beta     90
_cell_angle_gamma    113.649

_space_group_name_H-M_alt    "P 1"
_space_group_IT_number       1

loop_
  _space_group_symop_operation_xyz
  'x, y, z'

loop_
  _atom_site_type_symbol
  _atom_site_label
  _atom_site_symmetry_multiplicity
  _atom_site_fract_x
  _atom_site_fract_y
  _atom_site_fract_z
  _atom_site_occupancy
  Zn  Zn1       1.0  0.46610  0.00003  0.25018  1.0000
  Zn  Zn2       1.0  0.53390  0.99997  0.74982  1.0000
  H   H1        1.0  0.76589  0.37025  0.56035  1.0000
  H   H2        1.0  0.39556  0.62972  0.93962  1.0000
  H   H3        1.0  0.23411  0.62975  0.43964  1.0000
  H   H4        1.0  0.60444  0.37028  0.06038  1.0000
  H   H5        1.0  0.23421  0.47279  0.23537  1.0000
  H   H6        1.0  0.76164  0.52768  0.26488  1.0000
  H   H7        1.0  0.76579  0.52721  0.76463  1.0000
  H   H8        1.0  0.23835  0.47232  0.73512  1.0000
  H   H9        1.0  0.14446  0.58821  0.26849  1.0000
  H   H10       1.0  0.55659  0.41196  0.23170  1.0000
  H   H11       1.0  0.85554  0.41179  0.73151  1.0000
  H   H12       1.0  0.44340  0.58803  0.76829  1.0000
  H   H13       1.0  0.14956  0.47023  0.04955  1.0000
  H   H14       1.0  0.67944  0.53005  0.45065  1.0000
  H   H15       1.0  0.85045  0.52978  0.95045  1.0000
  H   H16       1.0  0.32055  0.46994  0.54935  1.0000
  H   H17       1.0  0.82738  0.26888  0.06917  1.0000
  H   H18       1.0  0.55815  0.73104  0.43083  1.0000
  H   H19       1.0  0.17262  0.73112  0.93083  1.0000
  H   H20       1.0  0.44185  0.26896  0.56917  1.0000
  H   H21       1.0  0.88252  0.28686  0.93587  1.0000
  H   H22       1.0  0.59525  0.71312  0.56418  1.0000
  H   H23       1.0  0.11748  0.71314  0.06413  1.0000
  H   H24       1.0  0.40475  0.28687  0.43582  1.0000
  H   H25       1.0  0.47387  0.13577  0.08075  1.0000
  H   H26       1.0  0.33766  0.86406  0.41944  1.0000
  H   H27       1.0  0.52613  0.86423  0.91925  1.0000
  H   H28       1.0  0.66234  0.13594  0.58056  1.0000
  H   H29       1.0  0.29072  0.21083  0.01643  1.0000
  H   H30       1.0  0.07925  0.78896  0.48351  1.0000
  H   H31       1.0  0.70928  0.78917  0.98357  1.0000
  H   H32       1.0  0.92074  0.21104  0.51649  1.0000
  H   H33       1.0  0.03260  0.17095  0.08467  1.0000
  H   H34       1.0  0.86141  0.82939  0.41544  1.0000
  H   H35       1.0  0.96740  0.82905  0.91534  1.0000
  H   H36       1.0  0.13859  0.17062  0.58456  1.0000
  H   H37       1.0  0.84003  0.06404  0.19088  1.0000
  H   H38       1.0  0.77628  0.93669  0.30945  1.0000
  H   H39       1.0  0.15997  0.93596  0.80912  1.0000
  H   H40       1.0  0.22372  0.06331  0.69055  1.0000
  C   C1        1.0  0.73074  0.23922  0.33108  1.0000
  C   C2        1.0  0.49164  0.76089  0.16899  1.0000
  C   C3        1.0  0.26926  0.76078  0.66892  1.0000
  C   C4        1.0  0.50836  0.23911  0.83100  1.0000
  C   C5        1.0  0.87158  0.37370  0.41517  1.0000
  C   C6        1.0  0.49784  0.62630  0.08485  1.0000
  C   C7        1.0  0.12842  0.62630  0.58483  1.0000
  C   C8        1.0  0.50217  0.37370  0.91515  1.0000
  C   C9        1.0  0.00339  0.44753  0.37844  1.0000
  C   C10       1.0  0.55588  0.55251  0.12159  1.0000
  C   C11       1.0  0.99661  0.55247  0.62156  1.0000
  C   C12       1.0  0.44412  0.44750  0.87841  1.0000
  C   C13       1.0  0.87070  0.42840  0.53583  1.0000
  C   C14       1.0  0.44220  0.57155  0.96415  1.0000
  C   C15       1.0  0.12930  0.57160  0.46417  1.0000
  C   C16       1.0  0.55780  0.42845  0.03585  1.0000
  C   C17       1.0  0.12025  0.47569  0.21956  1.0000
  C   C18       1.0  0.64466  0.52456  0.28062  1.0000
  C   C19       1.0  0.87974  0.52431  0.78044  1.0000
  C   C20       1.0  0.35534  0.47544  0.71937  1.0000
  C   C21       1.0  0.06215  0.42005  0.09117  1.0000
  C   C22       1.0  0.64204  0.58013  0.40899  1.0000
  C   C23       1.0  0.93786  0.57996  0.90883  1.0000
  C   C24       1.0  0.35796  0.41987  0.59101  1.0000
  C   C25       1.0  0.91638  0.31964  0.02889  1.0000
  C   C26       1.0  0.59642  0.68037  0.47118  1.0000
  C   C27       1.0  0.08363  0.68036  0.97111  1.0000
  C   C28       1.0  0.40358  0.31963  0.52882  1.0000
  C   C29       1.0  0.36073  0.11954  0.10815  1.0000
  C   C30       1.0  0.24091  0.88051  0.39209  1.0000
  C   C31       1.0  0.63927  0.88046  0.89185  1.0000
  C   C32       1.0  0.75908  0.11949  0.60791  1.0000
  C   C33       1.0  0.25711  0.16168  0.07304  1.0000
  C   C34       1.0  0.09504  0.83834  0.42705  1.0000
  C   C35       1.0  0.74289  0.83831  0.92696  1.0000
  C   C36       1.0  0.90496  0.16167  0.57295  1.0000
  C   C37       1.0  0.11468  0.13864  0.11011  1.0000
  C   C38       1.0  0.97587  0.86169  0.39007  1.0000
  C   C39       1.0  0.88532  0.86136  0.88989  1.0000
  C   C40       1.0  0.02413  0.13832  0.60993  1.0000
  C   C41       1.0  0.07382  0.07072  0.18077  1.0000
  C   C42       1.0  0.00328  0.92986  0.31962  1.0000
  C   C43       1.0  0.92618  0.92928  0.81923  1.0000
  C   C44       1.0  0.99672  0.07014  0.68038  1.0000
  C   C45       1.0  0.18638  0.03388  0.21343  1.0000
  C   C46       1.0  0.15273  0.96670  0.28708  1.0000
  C   C47       1.0  0.81362  0.96612  0.78657  1.0000
  C   C48       1.0  0.84727  0.03330  0.71293  1.0000
  C   C49       1.0  0.92518  0.03526  0.21751  1.0000
  C   C50       1.0  0.89027  0.96547  0.28289  1.0000
  C   C51       1.0  0.07482  0.96474  0.78249  1.0000
  C   C52       1.0  0.10973  0.03453  0.71711  1.0000
  N   N1        1.0  0.32688  0.05936  0.17784  1.0000
  N   N2        1.0  0.26757  0.94098  0.32261  1.0000
  N   N3        1.0  0.67312  0.94065  0.82216  1.0000
  N   N4        1.0  0.73243  0.05902  0.67740  1.0000
  O   O1        1.0  0.69488  0.20541  0.22473  1.0000
  O   O2        1.0  0.49010  0.79489  0.27542  1.0000
  O   O3        1.0  0.30513  0.79459  0.77527  1.0000
  O   O4        1.0  0.50990  0.20511  0.72458  1.0000
  O   O5        1.0  0.64855  0.16076  0.37734  1.0000
  O   O6        1.0  0.48756  0.83928  0.12275  1.0000
  O   O7        1.0  0.35145  0.83924  0.62266  1.0000
  O   O8        1.0  0.51244  0.16072  0.87725  1.0000
  O   O9        1.0  0.00158  0.39290  0.26077  1.0000
  O   O10       1.0  0.60851  0.60710  0.23928  1.0000
  O   O11       1.0  0.99842  0.60710  0.73923  1.0000
  O   O12       1.0  0.39150  0.39290  0.76072  1.0000
