data_image0
_chemical_formula_structural       Ag4H20C32N8O24
_chemical_formula_sum              "Ag4 H20 C32 N8 O24"
_cell_length_a       5.62926
_cell_length_b       11.6619
_cell_length_c       14.8568
_cell_angle_alpha    90.0013
_cell_angle_beta     91.6587
_cell_angle_gamma    90.0038

_space_group_name_H-M_alt    "P 1"
_space_group_IT_number       1

loop_
  _space_group_symop_operation_xyz
  'x, y, z'

loop_
  _atom_site_type_symbol
  _atom_site_label
  _atom_site_symmetry_multiplicity
  _atom_site_fract_x
  _atom_site_fract_y
  _atom_site_fract_z
  _atom_site_occupancy
  Ag  Ag1       1.0  0.70090  0.96402  0.95403  1.0000
  Ag  Ag2       1.0  0.79911  0.46403  0.54597  1.0000
  Ag  Ag3       1.0  0.29912  0.03597  0.04595  1.0000
  Ag  Ag4       1.0  0.20091  0.53596  0.45404  1.0000
  H   H1        1.0  0.33069  0.05723  0.45721  1.0000
  H   H2        1.0  0.16929  0.55724  0.04281  1.0000
  H   H3        1.0  0.66928  0.94275  0.54279  1.0000
  H   H4        1.0  0.83071  0.44277  0.95721  1.0000
  H   H5        1.0  0.12760  0.88609  0.21005  1.0000
  H   H6        1.0  0.37241  0.38606  0.28993  1.0000
  H   H7        1.0  0.87243  0.11391  0.78993  1.0000
  H   H8        1.0  0.62759  0.61394  0.71008  1.0000
  H   H9        1.0  0.67805  0.23866  0.22300  1.0000
  H   H10       1.0  0.82198  0.73867  0.27701  1.0000
  H   H11       1.0  0.32192  0.76133  0.77699  1.0000
  H   H12       1.0  0.17804  0.26133  0.72300  1.0000
  H   H13       1.0  0.68913  0.27770  0.33957  1.0000
  H   H14       1.0  0.81092  0.77770  0.16045  1.0000
  H   H15       1.0  0.31086  0.72229  0.66042  1.0000
  H   H16       1.0  0.18910  0.22230  0.83957  1.0000
  H   H17       1.0  0.49984  0.16640  0.29949  1.0000
  H   H18       1.0  0.00017  0.66641  0.20052  1.0000
  H   H19       1.0  0.50015  0.83358  0.70051  1.0000
  H   H20       1.0  0.99984  0.33359  0.79949  1.0000
  C   C1        1.0  0.76694  0.02048  0.15802  1.0000
  C   C2        1.0  0.73308  0.52047  0.34197  1.0000
  C   C3        1.0  0.23307  0.97951  0.84196  1.0000
  C   C4        1.0  0.26694  0.47953  0.65804  1.0000
  C   C5        1.0  0.91268  0.03208  0.24421  1.0000
  C   C6        1.0  0.58734  0.53206  0.25579  1.0000
  C   C7        1.0  0.08734  0.96792  0.75577  1.0000
  C   C8        1.0  0.41267  0.46794  0.74423  1.0000
  C   C9        1.0  0.86788  0.11982  0.30744  1.0000
  C   C10       1.0  0.63213  0.61982  0.19257  1.0000
  C   C11       1.0  0.13211  0.88017  0.69255  1.0000
  C   C12       1.0  0.36788  0.38019  0.80745  1.0000
  C   C13       1.0  0.02690  0.12492  0.38204  1.0000
  C   C14       1.0  0.47310  0.62492  0.11797  1.0000
  C   C15       1.0  0.97308  0.87507  0.61795  1.0000
  C   C16       1.0  0.52691  0.37509  0.88205  1.0000
  C   C17       1.0  0.21242  0.04833  0.39840  1.0000
  C   C18       1.0  0.28758  0.54832  0.10161  1.0000
  C   C19       1.0  0.78757  0.95166  0.60159  1.0000
  C   C20       1.0  0.71243  0.45169  0.89841  1.0000
  C   C21       1.0  0.23629  0.95950  0.33722  1.0000
  C   C22       1.0  0.26370  0.45949  0.16277  1.0000
  C   C23       1.0  0.76371  0.04049  0.66276  1.0000
  C   C24       1.0  0.73630  0.54053  0.83724  1.0000
  C   C25       1.0  0.09360  0.95228  0.25952  1.0000
  C   C26       1.0  0.40641  0.45226  0.24047  1.0000
  C   C27       1.0  0.90642  0.04772  0.74046  1.0000
  C   C28       1.0  0.59359  0.54775  0.75955  1.0000
  C   C29       1.0  0.67480  0.20621  0.29218  1.0000
  C   C30       1.0  0.82523  0.70621  0.20783  1.0000
  C   C31       1.0  0.32519  0.79378  0.70781  1.0000
  C   C32       1.0  0.17479  0.29379  0.79218  1.0000
  N   N1        1.0  0.00874  0.21850  0.44807  1.0000
  N   N2        1.0  0.49126  0.71851  0.05196  1.0000
  N   N3        1.0  0.99121  0.78149  0.55192  1.0000
  N   N4        1.0  0.50875  0.28149  0.94806  1.0000
  N   N5        1.0  0.42121  0.87341  0.35292  1.0000
  N   N6        1.0  0.07876  0.37339  0.14706  1.0000
  N   N7        1.0  0.57878  0.12659  0.64707  1.0000
  N   N8        1.0  0.92124  0.62663  0.85295  1.0000
  O   O1        1.0  0.87977  0.99128  0.08831  1.0000
  O   O2        1.0  0.62023  0.49127  0.41168  1.0000
  O   O3        1.0  0.12025  0.00872  0.91167  1.0000
  O   O4        1.0  0.37978  0.50872  0.58833  1.0000
  O   O5        1.0  0.54514  0.03672  0.16282  1.0000
  O   O6        1.0  0.95488  0.53671  0.33718  1.0000
  O   O7        1.0  0.45488  0.96327  0.83716  1.0000
  O   O8        1.0  0.04513  0.46329  0.66284  1.0000
  O   O9        1.0  0.81928  0.22885  0.48835  1.0000
  O   O10       1.0  0.68070  0.72887  0.01166  1.0000
  O   O11       1.0  0.18068  0.77113  0.51164  1.0000
  O   O12       1.0  0.31931  0.27114  0.98836  1.0000
  O   O13       1.0  0.18511  0.28095  0.45907  1.0000
  O   O14       1.0  0.31490  0.78096  0.04097  1.0000
  O   O15       1.0  0.81482  0.71906  0.54091  1.0000
  O   O16       1.0  0.68511  0.21904  0.95904  1.0000
  O   O17       1.0  0.59668  0.89999  0.40123  1.0000
  O   O18       1.0  0.90329  0.39997  0.09877  1.0000
  O   O19       1.0  0.40331  0.10001  0.59876  1.0000
  O   O20       1.0  0.09672  0.60004  0.90125  1.0000
  O   O21       1.0  0.39229  0.77854  0.31655  1.0000
  O   O22       1.0  0.10768  0.27851  0.18341  1.0000
  O   O23       1.0  0.60770  0.22145  0.68345  1.0000
  O   O24       1.0  0.89233  0.72149  0.81659  1.0000
