data_image0
_chemical_formula_structural       Zn2H16C20Se4N12
_chemical_formula_sum              "Zn2 H16 C20 Se4 N12"
_cell_length_a       8.94672
_cell_length_b       9.24036
_cell_length_c       9.44633
_cell_angle_alpha    119.265
_cell_angle_beta     89.9995
_cell_angle_gamma    90.0003

_space_group_name_H-M_alt    "P 1"
_space_group_IT_number       1

loop_
  _space_group_symop_operation_xyz
  'x, y, z'

loop_
  _atom_site_type_symbol
  _atom_site_label
  _atom_site_symmetry_multiplicity
  _atom_site_fract_x
  _atom_site_fract_y
  _atom_site_fract_z
  _atom_site_occupancy
  Zn  Zn1       1.0  0.50000  0.50000  0.00000  1.0000
  Zn  Zn2       1.0  0.00000  0.00000  1.00000  1.0000
  H   H1        1.0  0.25003  0.20870  0.91747  1.0000
  H   H2        1.0  0.75002  0.29130  0.08253  1.0000
  H   H3        1.0  0.74998  0.79130  0.08253  1.0000
  H   H4        1.0  0.24997  0.70870  0.91747  1.0000
  H   H5        1.0  0.44875  0.55494  0.34796  1.0000
  H   H6        1.0  0.94875  0.94506  0.65204  1.0000
  H   H7        1.0  0.05098  0.29218  0.34764  1.0000
  H   H8        1.0  0.55098  0.20781  0.65236  1.0000
  H   H9        1.0  0.55124  0.44506  0.65205  1.0000
  H   H10       1.0  0.05124  0.05494  0.34796  1.0000
  H   H11       1.0  0.94902  0.70781  0.65235  1.0000
  H   H12       1.0  0.44902  0.79218  0.34764  1.0000
  H   H13       1.0  0.24986  0.50337  0.50783  1.0000
  H   H14       1.0  0.74986  0.99663  0.49217  1.0000
  H   H15       1.0  0.75013  0.49663  0.49217  1.0000
  H   H16       1.0  0.25014  0.00337  0.50783  1.0000
  C   C1        1.0  0.23498  0.37783  0.75553  1.0000
  C   C2        1.0  0.73498  0.12217  0.24448  1.0000
  C   C3        1.0  0.26503  0.87784  0.75552  1.0000
  C   C4        1.0  0.76502  0.62217  0.24447  1.0000
  C   C5        1.0  0.24999  0.27465  0.04959  1.0000
  C   C6        1.0  0.74998  0.22535  0.95040  1.0000
  C   C7        1.0  0.75002  0.72535  0.95041  1.0000
  C   C8        1.0  0.25002  0.77465  0.04960  1.0000
  C   C9        1.0  0.35789  0.46756  0.28795  1.0000
  C   C10       1.0  0.85790  0.03244  0.71205  1.0000
  C   C11       1.0  0.14193  0.31968  0.28778  1.0000
  C   C12       1.0  0.64193  0.18031  0.71221  1.0000
  C   C13       1.0  0.64211  0.53244  0.71205  1.0000
  C   C14       1.0  0.14210  0.96756  0.28795  1.0000
  C   C15       1.0  0.85807  0.68032  0.71221  1.0000
  C   C16       1.0  0.35807  0.81968  0.28778  1.0000
  C   C17       1.0  0.24991  0.43746  0.37577  1.0000
  C   C18       1.0  0.74990  0.06254  0.62423  1.0000
  C   C19       1.0  0.75009  0.56254  0.62423  1.0000
  C   C20       1.0  0.25009  0.93746  0.37577  1.0000
  Se  Se1       1.0  0.04730  0.34388  0.68716  1.0000
  Se  Se2       1.0  0.54730  0.15612  0.31284  1.0000
  Se  Se3       1.0  0.45270  0.84388  0.68715  1.0000
  Se  Se4       1.0  0.95270  0.65612  0.31284  1.0000
  N   N1        1.0  0.36026  0.40178  0.80360  1.0000
  N   N2        1.0  0.86026  0.09823  0.19640  1.0000
  N   N3        1.0  0.13973  0.90178  0.80360  1.0000
  N   N4        1.0  0.63973  0.59822  0.19640  1.0000
  N   N5        1.0  0.35377  0.39251  0.12469  1.0000
  N   N6        1.0  0.85376  0.10749  0.87532  1.0000
  N   N7        1.0  0.14613  0.23172  0.12453  1.0000
  N   N8        1.0  0.64613  0.26828  0.87546  1.0000
  N   N9        1.0  0.64623  0.60749  0.87532  1.0000
  N   N10       1.0  0.14623  0.89251  0.12469  1.0000
  N   N11       1.0  0.85387  0.76828  0.87547  1.0000
  N   N12       1.0  0.35387  0.73171  0.12453  1.0000
