data_image0
_chemical_formula_structural       Hg4H40C44N8Cl8O4
_chemical_formula_sum              "Hg4 H40 C44 N8 Cl8 O4"
_cell_length_a       7.68649
_cell_length_b       9.55348
_cell_length_c       16.729
_cell_angle_alpha    90
_cell_angle_beta     101.478
_cell_angle_gamma    90

_space_group_name_H-M_alt    "P 1"
_space_group_IT_number       1

loop_
  _space_group_symop_operation_xyz
  'x, y, z'

loop_
  _atom_site_type_symbol
  _atom_site_label
  _atom_site_symmetry_multiplicity
  _atom_site_fract_x
  _atom_site_fract_y
  _atom_site_fract_z
  _atom_site_occupancy
  Hg  Hg1       1.0  0.75371  0.04069  0.00485  1.0000
  Hg  Hg2       1.0  0.74629  0.54069  0.49515  1.0000
  Hg  Hg3       1.0  0.24629  0.95931  0.99515  1.0000
  Hg  Hg4       1.0  0.25371  0.45931  0.50485  1.0000
  H   H1        1.0  0.80673  0.74029  0.87866  1.0000
  H   H2        1.0  0.69328  0.24029  0.62134  1.0000
  H   H3        1.0  0.19327  0.25971  0.12134  1.0000
  H   H4        1.0  0.30672  0.75971  0.37866  1.0000
  H   H5        1.0  0.85861  0.61778  0.75243  1.0000
  H   H6        1.0  0.64140  0.11778  0.74757  1.0000
  H   H7        1.0  0.14140  0.38222  0.24757  1.0000
  H   H8        1.0  0.35860  0.88222  0.25243  1.0000
  H   H9        1.0  0.86389  0.35901  0.74822  1.0000
  H   H10       1.0  0.63612  0.85900  0.75178  1.0000
  H   H11       1.0  0.13611  0.64099  0.25178  1.0000
  H   H12       1.0  0.36388  0.14099  0.24822  1.0000
  H   H13       1.0  0.82079  0.21886  0.86823  1.0000
  H   H14       1.0  0.67921  0.71885  0.63177  1.0000
  H   H15       1.0  0.17921  0.78114  0.13177  1.0000
  H   H16       1.0  0.32079  0.28114  0.36823  1.0000
  H   H17       1.0  0.80397  0.24965  0.17149  1.0000
  H   H18       1.0  0.69603  0.74965  0.32851  1.0000
  H   H19       1.0  0.19603  0.75035  0.82852  1.0000
  H   H20       1.0  0.30397  0.25035  0.67148  1.0000
  H   H21       1.0  0.57375  0.25600  0.13285  1.0000
  H   H22       1.0  0.92625  0.75600  0.36715  1.0000
  H   H23       1.0  0.42625  0.74400  0.86715  1.0000
  H   H24       1.0  0.07375  0.24400  0.63285  1.0000
  H   H25       1.0  0.55088  0.44119  0.22538  1.0000
  H   H26       1.0  0.94912  0.94119  0.27462  1.0000
  H   H27       1.0  0.44911  0.55881  0.77462  1.0000
  H   H28       1.0  0.05089  0.05881  0.72538  1.0000
  H   H29       1.0  0.78267  0.44189  0.25894  1.0000
  H   H30       1.0  0.71733  0.94189  0.24106  1.0000
  H   H31       1.0  0.21733  0.55811  0.74106  1.0000
  H   H32       1.0  0.28267  0.05811  0.75894  1.0000
  H   H33       1.0  0.56798  0.64284  0.14453  1.0000
  H   H34       1.0  0.93201  0.14284  0.35547  1.0000
  H   H35       1.0  0.43201  0.35716  0.85547  1.0000
  H   H36       1.0  0.06799  0.85716  0.64453  1.0000
  H   H37       1.0  0.79956  0.64845  0.18275  1.0000
  H   H38       1.0  0.70044  0.14845  0.31726  1.0000
  H   H39       1.0  0.20044  0.35155  0.81726  1.0000
  H   H40       1.0  0.29956  0.85155  0.68275  1.0000
  C   C1        1.0  0.72666  0.38642  0.07019  1.0000
  C   C2        1.0  0.77334  0.88642  0.42981  1.0000
  C   C3        1.0  0.27334  0.61358  0.92982  1.0000
  C   C4        1.0  0.22666  0.11358  0.57018  1.0000
  C   C5        1.0  0.74702  0.62045  0.01472  1.0000
  C   C6        1.0  0.75298  0.12045  0.48528  1.0000
  C   C7        1.0  0.25298  0.37955  0.98528  1.0000
  C   C8        1.0  0.24702  0.87955  0.51472  1.0000
  C   C9        1.0  0.77796  0.54835  0.94179  1.0000
  C   C10       1.0  0.72204  0.04834  0.55821  1.0000
  C   C11       1.0  0.22204  0.45166  0.05821  1.0000
  C   C12       1.0  0.27796  0.95165  0.44179  1.0000
  C   C13       1.0  0.80625  0.62644  0.87429  1.0000
  C   C14       1.0  0.69376  0.12644  0.62571  1.0000
  C   C15       1.0  0.19375  0.37356  0.12571  1.0000
  C   C16       1.0  0.30624  0.87356  0.37429  1.0000
  C   C17       1.0  0.83625  0.55850  0.80510  1.0000
  C   C18       1.0  0.66376  0.05850  0.69490  1.0000
  C   C19       1.0  0.16376  0.44150  0.19491  1.0000
  C   C20       1.0  0.33624  0.94150  0.30509  1.0000
  C   C21       1.0  0.83966  0.41128  0.80291  1.0000
  C   C22       1.0  0.66035  0.91128  0.69709  1.0000
  C   C23       1.0  0.16035  0.58872  0.19709  1.0000
  C   C24       1.0  0.33965  0.08872  0.30291  1.0000
  C   C25       1.0  0.81387  0.33265  0.86925  1.0000
  C   C26       1.0  0.68613  0.83266  0.63075  1.0000
  C   C27       1.0  0.18613  0.66734  0.13075  1.0000
  C   C28       1.0  0.31387  0.16734  0.36925  1.0000
  C   C29       1.0  0.78145  0.39965  0.93994  1.0000
  C   C30       1.0  0.71855  0.89965  0.56006  1.0000
  C   C31       1.0  0.21855  0.60035  0.06006  1.0000
  C   C32       1.0  0.28145  0.10035  0.43994  1.0000
  C   C33       1.0  0.69403  0.32111  0.14713  1.0000
  C   C34       1.0  0.80597  0.82111  0.35287  1.0000
  C   C35       1.0  0.30597  0.67889  0.85287  1.0000
  C   C36       1.0  0.19403  0.17889  0.64713  1.0000
  C   C37       1.0  0.67684  0.44470  0.20443  1.0000
  C   C38       1.0  0.82316  0.94470  0.29557  1.0000
  C   C39       1.0  0.32316  0.55530  0.79558  1.0000
  C   C40       1.0  0.17684  0.05530  0.70442  1.0000
  C   C41       1.0  0.68959  0.57958  0.15522  1.0000
  C   C42       1.0  0.81040  0.07958  0.34477  1.0000
  C   C43       1.0  0.31040  0.42042  0.84478  1.0000
  C   C44       1.0  0.18960  0.92042  0.65523  1.0000
  N   N1        1.0  0.75421  0.31979  0.00569  1.0000
  N   N2        1.0  0.74579  0.81979  0.49431  1.0000
  N   N3        1.0  0.24579  0.68021  0.99431  1.0000
  N   N4        1.0  0.25421  0.18021  0.50569  1.0000
  N   N5        1.0  0.72209  0.52927  0.07659  1.0000
  N   N6        1.0  0.77791  0.02927  0.42341  1.0000
  N   N7        1.0  0.27791  0.47073  0.92342  1.0000
  N   N8        1.0  0.22209  0.97073  0.57658  1.0000
  Cl  Cl1       1.0  0.99810  0.02680  0.11663  1.0000
  Cl  Cl2       1.0  0.50190  0.52681  0.38337  1.0000
  Cl  Cl3       1.0  0.00190  0.97319  0.88337  1.0000
  Cl  Cl4       1.0  0.49810  0.47320  0.61663  1.0000
  Cl  Cl5       1.0  0.51901  0.01761  0.88895  1.0000
  Cl  Cl6       1.0  0.98099  0.51762  0.61105  1.0000
  Cl  Cl7       1.0  0.48099  0.98239  0.11105  1.0000
  Cl  Cl8       1.0  0.01900  0.48239  0.38895  1.0000
  O   O1        1.0  0.74122  0.74847  0.02473  1.0000
  O   O2        1.0  0.75878  0.24847  0.47527  1.0000
  O   O3        1.0  0.25878  0.25153  0.97528  1.0000
  O   O4        1.0  0.24122  0.75153  0.52473  1.0000
