data_image0
_chemical_formula_structural       K4H24C24S4Br4N4Cl4O12
_chemical_formula_sum              "K4 H24 C24 S4 Br4 N4 Cl4 O12"
_cell_length_a       6.69927
_cell_length_b       10.0314
_cell_length_c       15.6615
_cell_angle_alpha    90.0002
_cell_angle_beta     100.276
_cell_angle_gamma    90.0002

_space_group_name_H-M_alt    "P 1"
_space_group_IT_number       1

loop_
  _space_group_symop_operation_xyz
  'x, y, z'

loop_
  _atom_site_type_symbol
  _atom_site_label
  _atom_site_symmetry_multiplicity
  _atom_site_fract_x
  _atom_site_fract_y
  _atom_site_fract_z
  _atom_site_occupancy
  K   K1        1.0  0.38355  0.37877  0.55775  1.0000
  K   K2        1.0  0.11645  0.87876  0.44225  1.0000
  K   K3        1.0  0.61643  0.62123  0.44225  1.0000
  K   K4        1.0  0.88356  0.12123  0.55775  1.0000
  H   H1        1.0  0.25102  0.16186  0.41662  1.0000
  H   H2        1.0  0.24899  0.66186  0.58339  1.0000
  H   H3        1.0  0.74898  0.83814  0.58338  1.0000
  H   H4        1.0  0.75102  0.33814  0.41662  1.0000
  H   H5        1.0  0.06379  0.25630  0.40026  1.0000
  H   H6        1.0  0.43621  0.75630  0.59974  1.0000
  H   H7        1.0  0.93621  0.74370  0.59974  1.0000
  H   H8        1.0  0.56379  0.24369  0.40026  1.0000
  H   H9        1.0  0.81192  0.65357  0.77541  1.0000
  H   H10       1.0  0.68807  0.15356  0.22459  1.0000
  H   H11       1.0  0.18808  0.34643  0.22459  1.0000
  H   H12       1.0  0.31192  0.84644  0.77541  1.0000
  H   H13       1.0  0.71757  0.62829  0.92135  1.0000
  H   H14       1.0  0.78242  0.12829  0.07865  1.0000
  H   H15       1.0  0.28243  0.37171  0.07865  1.0000
  H   H16       1.0  0.21757  0.87171  0.92135  1.0000
  H   H17       1.0  0.84288  0.20646  0.91576  1.0000
  H   H18       1.0  0.65713  0.70646  0.08423  1.0000
  H   H19       1.0  0.15713  0.79355  0.08424  1.0000
  H   H20       1.0  0.34288  0.29355  0.91576  1.0000
  H   H21       1.0  0.93562  0.23218  0.76970  1.0000
  H   H22       1.0  0.56438  0.73217  0.23030  1.0000
  H   H23       1.0  0.06437  0.76783  0.23030  1.0000
  H   H24       1.0  0.43563  0.26783  0.76970  1.0000
  C   C1        1.0  0.87897  0.44393  0.76410  1.0000
  C   C2        1.0  0.62103  0.94392  0.23590  1.0000
  C   C3        1.0  0.12103  0.55607  0.23590  1.0000
  C   C4        1.0  0.37897  0.05607  0.76410  1.0000
  C   C5        1.0  0.81513  0.55554  0.80566  1.0000
  C   C6        1.0  0.68486  0.05554  0.19434  1.0000
  C   C7        1.0  0.18486  0.44446  0.19434  1.0000
  C   C8        1.0  0.31513  0.94447  0.80566  1.0000
  C   C9        1.0  0.76236  0.54163  0.88738  1.0000
  C   C10       1.0  0.73764  0.04164  0.11263  1.0000
  C   C11       1.0  0.23764  0.45837  0.11263  1.0000
  C   C12       1.0  0.26236  0.95837  0.88737  1.0000
  C   C13       1.0  0.77567  0.41577  0.92662  1.0000
  C   C14       1.0  0.72433  0.91578  0.07338  1.0000
  C   C15       1.0  0.22433  0.58423  0.07339  1.0000
  C   C16       1.0  0.27568  0.08424  0.92662  1.0000
  C   C17       1.0  0.83550  0.30385  0.88472  1.0000
  C   C18       1.0  0.66451  0.80385  0.11528  1.0000
  C   C19       1.0  0.16450  0.69615  0.11528  1.0000
  C   C20       1.0  0.33550  0.19615  0.88472  1.0000
  C   C21       1.0  0.88766  0.31845  0.80286  1.0000
  C   C22       1.0  0.61234  0.81845  0.19713  1.0000
  C   C23       1.0  0.11234  0.68156  0.19714  1.0000
  C   C24       1.0  0.38767  0.18156  0.80286  1.0000
  S   S1        1.0  0.95098  0.46529  0.66065  1.0000
  S   S2        1.0  0.54903  0.96528  0.33935  1.0000
  S   S3        1.0  0.04903  0.53471  0.33935  1.0000
  S   S4        1.0  0.45098  0.03471  0.66064  1.0000
  Br  Br1       1.0  0.33414  0.56984  0.74894  1.0000
  Br  Br2       1.0  0.16585  0.06983  0.25107  1.0000
  Br  Br3       1.0  0.66585  0.43017  0.25107  1.0000
  Br  Br4       1.0  0.83415  0.93018  0.74893  1.0000
  N   N1        1.0  0.08954  0.59536  0.66438  1.0000
  N   N2        1.0  0.41046  0.09535  0.33562  1.0000
  N   N3        1.0  0.91046  0.40464  0.33563  1.0000
  N   N4        1.0  0.58954  0.90464  0.66437  1.0000
  Cl  Cl1       1.0  0.72201  0.39991  0.03036  1.0000
  Cl  Cl2       1.0  0.77799  0.89992  0.96963  1.0000
  Cl  Cl3       1.0  0.27799  0.60009  0.96964  1.0000
  Cl  Cl4       1.0  0.22202  0.10009  0.03036  1.0000
  O   O1        1.0  0.05044  0.33996  0.64351  1.0000
  O   O2        1.0  0.44956  0.83996  0.35649  1.0000
  O   O3        1.0  0.94958  0.66003  0.35650  1.0000
  O   O4        1.0  0.55042  0.16003  0.64350  1.0000
  O   O5        1.0  0.76782  0.49868  0.59818  1.0000
  O   O6        1.0  0.73218  0.99868  0.40182  1.0000
  O   O7        1.0  0.23219  0.50131  0.40182  1.0000
  O   O8        1.0  0.26781  0.00131  0.59818  1.0000
  O   O9        1.0  0.14365  0.19947  0.44537  1.0000
  O   O10       1.0  0.35635  0.69946  0.55463  1.0000
  O   O11       1.0  0.85635  0.80053  0.55462  1.0000
  O   O12       1.0  0.64365  0.30053  0.44538  1.0000
