data_image0
_chemical_formula_structural       Zn2H14C18N2O8
_chemical_formula_sum              "Zn2 H14 C18 N2 O8"
_cell_length_a       7.41173
_cell_length_b       8.2162
_cell_length_c       8.21619
_cell_angle_alpha    116.533
_cell_angle_beta     102.451
_cell_angle_gamma    102.451

_space_group_name_H-M_alt    "P 1"
_space_group_IT_number       1

loop_
  _space_group_symop_operation_xyz
  'x, y, z'

loop_
  _atom_site_type_symbol
  _atom_site_label
  _atom_site_symmetry_multiplicity
  _atom_site_fract_x
  _atom_site_fract_y
  _atom_site_fract_z
  _atom_site_occupancy
  Zn  Zn1       1.0  0.75000  0.91630  0.08370  1.0000
  Zn  Zn2       1.0  0.25000  0.08370  0.91630  1.0000
  H   H1        1.0  0.25001  0.50689  0.49311  1.0000
  H   H2        1.0  0.75000  0.49311  0.50689  1.0000
  H   H3        1.0  0.11644  0.38569  0.05251  1.0000
  H   H4        1.0  0.38356  0.94748  0.61430  1.0000
  H   H5        1.0  0.88356  0.61431  0.94748  1.0000
  H   H6        1.0  0.61644  0.05252  0.38570  1.0000
  H   H7        1.0  0.20470  0.62931  0.10146  1.0000
  H   H8        1.0  0.29530  0.89854  0.37068  1.0000
  H   H9        1.0  0.79530  0.37069  0.89854  1.0000
  H   H10       1.0  0.70470  0.10146  0.62932  1.0000
  H   H11       1.0  0.37184  0.52408  0.16560  1.0000
  H   H12       1.0  0.12817  0.83440  0.47591  1.0000
  H   H13       1.0  0.62816  0.47592  0.83440  1.0000
  H   H14       1.0  0.87184  0.16560  0.52409  1.0000
  C   C1        1.0  0.29570  0.73691  0.87000  1.0000
  C   C2        1.0  0.20430  0.13001  0.26309  1.0000
  C   C3        1.0  0.70430  0.26309  0.13001  1.0000
  C   C4        1.0  0.79569  0.86998  0.73691  1.0000
  C   C5        1.0  0.26035  0.52270  0.76399  1.0000
  C   C6        1.0  0.23965  0.23602  0.47730  1.0000
  C   C7        1.0  0.73964  0.47730  0.23601  1.0000
  C   C8        1.0  0.76035  0.76398  0.52270  1.0000
  C   C9        1.0  0.25000  0.42898  0.57103  1.0000
  C   C10       1.0  0.75000  0.57102  0.42897  1.0000
  C   C11       1.0  0.25078  0.41603  0.85834  1.0000
  C   C12       1.0  0.24922  0.14166  0.58397  1.0000
  C   C13       1.0  0.74922  0.58397  0.14166  1.0000
  C   C14       1.0  0.75078  0.85834  0.41603  1.0000
  C   C15       1.0  0.23513  0.49457  0.05564  1.0000
  C   C16       1.0  0.26487  0.94436  0.50543  1.0000
  C   C17       1.0  0.76486  0.50543  0.94436  1.0000
  C   C18       1.0  0.73513  0.05564  0.49457  1.0000
  N   N1        1.0  0.25000  0.23167  0.76833  1.0000
  N   N2        1.0  0.75000  0.76833  0.23167  1.0000
  O   O1        1.0  0.42849  0.84406  0.03713  1.0000
  O   O2        1.0  0.07151  0.96288  0.15594  1.0000
  O   O3        1.0  0.57151  0.15594  0.96286  1.0000
  O   O4        1.0  0.92849  0.03713  0.84406  1.0000
  O   O5        1.0  0.19048  0.79659  0.77943  1.0000
  O   O6        1.0  0.30953  0.22057  0.20341  1.0000
  O   O7        1.0  0.80952  0.20341  0.22057  1.0000
  O   O8        1.0  0.69048  0.77943  0.79659  1.0000
