data_image0
_chemical_formula_structural       Zn2H28C28S4N4O10
_chemical_formula_sum              "Zn2 H28 C28 S4 N4 O10"
_cell_length_a       6.25409
_cell_length_b       8.52369
_cell_length_c       15.7054
_cell_angle_alpha    95.669
_cell_angle_beta     90.0363
_cell_angle_gamma    111.548

_space_group_name_H-M_alt    "P 1"
_space_group_IT_number       1

loop_
  _space_group_symop_operation_xyz
  'x, y, z'

loop_
  _atom_site_type_symbol
  _atom_site_label
  _atom_site_symmetry_multiplicity
  _atom_site_fract_x
  _atom_site_fract_y
  _atom_site_fract_z
  _atom_site_occupancy
  Zn  Zn1       1.0  0.53072  0.99977  0.74988  1.0000
  Zn  Zn2       1.0  0.46928  0.00023  0.25013  1.0000
  H   H1        1.0  0.98124  0.03116  0.70440  1.0000
  H   H2        1.0  0.94970  0.96837  0.79551  1.0000
  H   H3        1.0  0.01872  0.96883  0.29560  1.0000
  H   H4        1.0  0.05027  0.03163  0.20449  1.0000
  H   H5        1.0  0.13265  0.58050  0.85658  1.0000
  H   H6        1.0  0.55037  0.41879  0.64348  1.0000
  H   H7        1.0  0.86734  0.41953  0.14342  1.0000
  H   H8        1.0  0.44968  0.58121  0.35651  1.0000
  H   H9        1.0  0.97081  0.29986  0.77304  1.0000
  H   H10       1.0  0.66987  0.69955  0.72684  1.0000
  H   H11       1.0  0.02921  0.70017  0.22696  1.0000
  H   H12       1.0  0.33015  0.30043  0.27317  1.0000
  H   H13       1.0  0.30664  0.23500  0.84004  1.0000
  H   H14       1.0  0.07063  0.76454  0.65963  1.0000
  H   H15       1.0  0.69336  0.76500  0.15996  1.0000
  H   H16       1.0  0.92935  0.23542  0.34039  1.0000
  H   H17       1.0  0.43604  0.51671  0.92567  1.0000
  H   H18       1.0  0.91754  0.48259  0.57419  1.0000
  H   H19       1.0  0.56396  0.48329  0.07433  1.0000
  H   H20       1.0  0.08250  0.51739  0.42580  1.0000
  H   H21       1.0  0.25710  0.93107  0.02550  1.0000
  H   H22       1.0  0.32500  0.06893  0.47445  1.0000
  H   H23       1.0  0.74287  0.06895  0.97449  1.0000
  H   H24       1.0  0.67508  0.93108  0.52555  1.0000
  H   H25       1.0  0.25297  0.72614  0.99101  1.0000
  H   H26       1.0  0.52512  0.27413  0.50898  1.0000
  H   H27       1.0  0.74700  0.27389  0.00899  1.0000
  H   H28       1.0  0.47493  0.72586  0.49104  1.0000
  C   C1        1.0  0.79900  0.57182  0.90342  1.0000
  C   C2        1.0  0.22533  0.42744  0.59653  1.0000
  C   C3        1.0  0.20100  0.42820  0.09658  1.0000
  C   C4        1.0  0.77472  0.57254  0.40346  1.0000
  C   C5        1.0  0.94828  0.50977  0.85643  1.0000
  C   C6        1.0  0.43682  0.48953  0.64356  1.0000
  C   C7        1.0  0.05172  0.49025  0.14357  1.0000
  C   C8        1.0  0.56322  0.51046  0.35643  1.0000
  C   C9        1.0  0.85882  0.35236  0.80874  1.0000
  C   C10       1.0  0.50526  0.64712  0.69109  1.0000
  C   C11       1.0  0.14119  0.64766  0.19126  1.0000
  C   C12       1.0  0.49476  0.35288  0.30891  1.0000
  C   C13       1.0  0.48790  0.31674  0.84526  1.0000
  C   C14       1.0  0.16992  0.68271  0.65453  1.0000
  C   C15       1.0  0.51210  0.68328  0.15474  1.0000
  C   C16       1.0  0.83007  0.31725  0.34548  1.0000
  C   C17       1.0  0.56170  0.47348  0.89349  1.0000
  C   C18       1.0  0.08662  0.52588  0.60636  1.0000
  C   C19       1.0  0.43830  0.52653  0.10651  1.0000
  C   C20       1.0  0.91342  0.47410  0.39363  1.0000
  C   C21       1.0  0.19347  0.82554  0.97377  1.0000
  C   C22       1.0  0.36658  0.17433  0.52622  1.0000
  C   C23       1.0  0.80651  0.17448  0.02623  1.0000
  C   C24       1.0  0.63347  0.82566  0.47378  1.0000
  C   C25       1.0  0.29826  0.89202  0.89072  1.0000
  C   C26       1.0  0.40579  0.10796  0.60918  1.0000
  C   C27       1.0  0.70170  0.10798  0.10928  1.0000
  C   C28       1.0  0.59419  0.89205  0.39082  1.0000
  S   S1        1.0  0.88574  0.75518  0.97450  1.0000
  S   S2        1.0  0.12856  0.24390  0.52557  1.0000
  S   S3        1.0  0.11424  0.24483  0.02550  1.0000
  S   S4        1.0  0.87150  0.75610  0.47440  1.0000
  N   N1        1.0  0.63367  0.25320  0.80487  1.0000
  N   N2        1.0  0.37948  0.74634  0.69488  1.0000
  N   N3        1.0  0.36633  0.74681  0.19514  1.0000
  N   N4        1.0  0.62050  0.25363  0.30512  1.0000
  O   O1        1.0  0.18527  0.93921  0.83869  1.0000
  O   O2        1.0  0.24616  0.06079  0.66140  1.0000
  O   O3        1.0  0.81467  0.06081  0.16132  1.0000
  O   O4        1.0  0.75378  0.93919  0.33858  1.0000
  O   O5        1.0  0.50253  0.89904  0.87809  1.0000
  O   O6        1.0  0.60314  0.10092  0.62156  1.0000
  O   O7        1.0  0.49741  0.10095  0.12190  1.0000
  O   O8        1.0  0.39684  0.89907  0.37847  1.0000
  O   O9        1.0  0.86815  0.99962  0.74988  1.0000
  O   O10       1.0  0.13182  0.00038  0.25012  1.0000
