data_image0
_chemical_formula_structural       Dy4H32C24O28
_chemical_formula_sum              "Dy4 H32 C24 O28"
_cell_length_a       7.6548
_cell_length_b       10.6863
_cell_length_c       12.6751
_cell_angle_alpha    95.3341
_cell_angle_beta     107.571
_cell_angle_gamma    110.992

_space_group_name_H-M_alt    "P 1"
_space_group_IT_number       1

loop_
  _space_group_symop_operation_xyz
  'x, y, z'

loop_
  _atom_site_type_symbol
  _atom_site_label
  _atom_site_symmetry_multiplicity
  _atom_site_fract_x
  _atom_site_fract_y
  _atom_site_fract_z
  _atom_site_occupancy
  Dy  Dy1       1.0  0.75542  0.31024  0.77021  1.0000
  Dy  Dy2       1.0  0.17504  0.18980  0.72984  1.0000
  Dy  Dy3       1.0  0.24458  0.68976  0.22979  1.0000
  Dy  Dy4       1.0  0.82496  0.81020  0.27016  1.0000
  H   H1        1.0  0.14715  0.13617  0.04097  1.0000
  H   H2        1.0  0.47027  0.36380  0.45905  1.0000
  H   H3        1.0  0.85285  0.86383  0.95903  1.0000
  H   H4        1.0  0.52973  0.63620  0.54095  1.0000
  H   H5        1.0  0.12685  0.25876  0.13746  1.0000
  H   H6        1.0  0.23080  0.24131  0.36260  1.0000
  H   H7        1.0  0.87315  0.74124  0.86254  1.0000
  H   H8        1.0  0.76919  0.75869  0.63740  1.0000
  H   H9        1.0  0.48739  0.29689  0.14907  1.0000
  H   H10       1.0  0.54142  0.20302  0.35095  1.0000
  H   H11       1.0  0.51261  0.70311  0.85093  1.0000
  H   H12       1.0  0.45858  0.79697  0.64905  1.0000
  H   H13       1.0  0.42969  0.33492  0.01437  1.0000
  H   H14       1.0  0.58032  0.16497  0.48563  1.0000
  H   H15       1.0  0.57031  0.66507  0.98563  1.0000
  H   H16       1.0  0.41968  0.83503  0.51437  1.0000
  H   H17       1.0  0.02188  0.36395  0.47013  1.0000
  H   H18       1.0  0.68789  0.13595  0.02973  1.0000
  H   H19       1.0  0.97812  0.63605  0.52987  1.0000
  H   H20       1.0  0.31211  0.86406  0.97027  1.0000
  H   H21       1.0  0.19557  0.50077  0.58350  1.0000
  H   H22       1.0  0.61108  0.99899  0.91641  1.0000
  H   H23       1.0  0.80443  0.49923  0.41649  1.0000
  H   H24       1.0  0.38892  0.00101  0.08359  1.0000
  H   H25       1.0  0.18845  0.49713  0.85277  1.0000
  H   H26       1.0  0.33851  0.00287  0.64715  1.0000
  H   H27       1.0  0.81155  0.50286  0.14723  1.0000
  H   H28       1.0  0.66149  0.99713  0.35285  1.0000
  H   H29       1.0  0.08466  0.57862  0.91174  1.0000
  H   H30       1.0  0.09424  0.92137  0.58821  1.0000
  H   H31       1.0  0.91534  0.42137  0.08826  1.0000
  H   H32       1.0  0.90576  0.07863  0.41179  1.0000
  C   C1        1.0  0.02812  0.26852  0.96348  1.0000
  C   C2        1.0  0.29624  0.23160  0.53660  1.0000
  C   C3        1.0  0.97189  0.73148  0.03652  1.0000
  C   C4        1.0  0.70375  0.76839  0.46340  1.0000
  C   C5        1.0  0.16926  0.24393  0.06355  1.0000
  C   C6        1.0  0.36193  0.25606  0.43650  1.0000
  C   C7        1.0  0.83074  0.75606  0.93645  1.0000
  C   C8        1.0  0.63807  0.74394  0.56350  1.0000
  C   C9        1.0  0.39097  0.33621  0.09112  1.0000
  C   C10       1.0  0.46359  0.16371  0.40890  1.0000
  C   C11       1.0  0.60903  0.66378  0.90888  1.0000
  C   C12       1.0  0.53641  0.83629  0.59110  1.0000
  C   C13       1.0  0.45176  0.48569  0.14590  1.0000
  C   C14       1.0  0.32012  0.01425  0.35408  1.0000
  C   C15       1.0  0.54824  0.51430  0.85410  1.0000
  C   C16       1.0  0.67988  0.98575  0.64593  1.0000
  C   C17       1.0  0.92267  0.39372  0.60575  1.0000
  C   C18       1.0  0.42314  0.10620  0.89424  1.0000
  C   C19       1.0  0.07733  0.60627  0.39425  1.0000
  C   C20       1.0  0.57686  0.89380  0.10576  1.0000
  C   C21       1.0  0.03493  0.45059  0.53029  1.0000
  C   C22       1.0  0.55402  0.04930  0.96965  1.0000
  C   C23       1.0  0.96506  0.54941  0.46971  1.0000
  C   C24       1.0  0.44598  0.95070  0.03035  1.0000
  O   O1        1.0  0.02455  0.23507  0.86246  1.0000
  O   O2        1.0  0.42712  0.26502  0.63762  1.0000
  O   O3        1.0  0.97545  0.76493  0.13754  1.0000
  O   O4        1.0  0.57288  0.73497  0.36238  1.0000
  O   O5        1.0  0.90594  0.31888  0.97521  1.0000
  O   O6        1.0  0.11196  0.18123  0.52485  1.0000
  O   O7        1.0  0.09406  0.68112  0.02479  1.0000
  O   O8        1.0  0.88803  0.81876  0.47514  1.0000
  O   O9        1.0  0.63555  0.56889  0.17283  1.0000
  O   O10       1.0  0.39391  0.93111  0.32723  1.0000
  O   O11       1.0  0.36445  0.43111  0.82717  1.0000
  O   O12       1.0  0.60609  0.06889  0.67278  1.0000
  O   O13       1.0  0.31681  0.51832  0.16107  1.0000
  O   O14       1.0  0.13731  0.98160  0.33871  1.0000
  O   O15       1.0  0.68319  0.48167  0.83893  1.0000
  O   O16       1.0  0.86270  0.01840  0.66129  1.0000
  O   O17       1.0  0.96368  0.30463  0.65973  1.0000
  O   O18       1.0  0.49931  0.19539  0.84033  1.0000
  O   O19       1.0  0.03631  0.69537  0.34027  1.0000
  O   O20       1.0  0.50069  0.80461  0.15967  1.0000
  O   O21       1.0  0.78931  0.43056  0.61780  1.0000
  O   O22       1.0  0.24092  0.06936  0.88224  1.0000
  O   O23       1.0  0.21069  0.56944  0.38221  1.0000
  O   O24       1.0  0.75908  0.93064  0.11776  1.0000
  O   O25       1.0  0.06521  0.51222  0.84435  1.0000
  O   O26       1.0  0.20860  0.98782  0.65557  1.0000
  O   O27       1.0  0.93479  0.48778  0.15565  1.0000
  O   O28       1.0  0.79140  0.01218  0.34443  1.0000
