data_image0
_chemical_formula_structural       Cu2H24C28N8O8
_chemical_formula_sum              "Cu2 H24 C28 N8 O8"
_cell_length_a       8.0155
_cell_length_b       8.54075
_cell_length_c       10.4971
_cell_angle_alpha    89.9995
_cell_angle_beta     90.0003
_cell_angle_gamma    107.893

_space_group_name_H-M_alt    "P 1"
_space_group_IT_number       1

loop_
  _space_group_symop_operation_xyz
  'x, y, z'

loop_
  _atom_site_type_symbol
  _atom_site_label
  _atom_site_symmetry_multiplicity
  _atom_site_fract_x
  _atom_site_fract_y
  _atom_site_fract_z
  _atom_site_occupancy
  Cu  Cu1       1.0  0.50000  0.00000  0.50000  1.0000
  Cu  Cu2       1.0  0.50000  0.50000  1.00000  1.0000
  H   H1        1.0  0.52656  0.84137  0.16915  1.0000
  H   H2        1.0  0.47345  0.65863  0.66917  1.0000
  H   H3        1.0  0.47344  0.15862  0.83086  1.0000
  H   H4        1.0  0.52655  0.34138  0.33083  1.0000
  H   H5        1.0  0.04657  0.89379  0.70736  1.0000
  H   H6        1.0  0.95345  0.60620  0.20735  1.0000
  H   H7        1.0  0.95343  0.10621  0.29264  1.0000
  H   H8        1.0  0.04655  0.39380  0.79265  1.0000
  H   H9        1.0  0.82715  0.09160  0.69379  1.0000
  H   H10       1.0  0.17286  0.40840  0.19379  1.0000
  H   H11       1.0  0.17285  0.90840  0.30621  1.0000
  H   H12       1.0  0.82714  0.59160  0.80621  1.0000
  H   H13       1.0  0.20590  0.77141  0.56489  1.0000
  H   H14       1.0  0.79410  0.72859  0.06489  1.0000
  H   H15       1.0  0.79410  0.22859  0.43511  1.0000
  H   H16       1.0  0.20590  0.27141  0.93511  1.0000
  H   H17       1.0  0.66065  0.71024  0.42144  1.0000
  H   H18       1.0  0.33935  0.78976  0.92144  1.0000
  H   H19       1.0  0.33935  0.28976  0.57856  1.0000
  H   H20       1.0  0.66065  0.21024  0.07856  1.0000
  H   H21       1.0  0.67920  0.45515  0.49921  1.0000
  H   H22       1.0  0.32080  0.04485  0.99921  1.0000
  H   H23       1.0  0.32080  0.54484  0.50079  1.0000
  H   H24       1.0  0.67920  0.95516  0.00080  1.0000
  C   C1        1.0  0.54526  0.92128  0.25482  1.0000
  C   C2        1.0  0.45474  0.57874  0.75480  1.0000
  C   C3        1.0  0.45474  0.07872  0.74518  1.0000
  C   C4        1.0  0.54526  0.42127  0.24520  1.0000
  C   C5        1.0  0.93575  0.62791  0.53233  1.0000
  C   C6        1.0  0.06425  0.87208  0.03232  1.0000
  C   C7        1.0  0.06424  0.37209  0.46768  1.0000
  C   C8        1.0  0.93575  0.12792  0.96768  1.0000
  C   C9        1.0  0.93237  0.88525  0.64882  1.0000
  C   C10       1.0  0.06764  0.61474  0.14881  1.0000
  C   C11       1.0  0.06763  0.11474  0.35118  1.0000
  C   C12       1.0  0.93236  0.38526  0.85118  1.0000
  C   C13       1.0  0.82441  0.98215  0.64079  1.0000
  C   C14       1.0  0.17559  0.51784  0.14079  1.0000
  C   C15       1.0  0.17558  0.01784  0.35921  1.0000
  C   C16       1.0  0.82441  0.48216  0.85920  1.0000
  C   C17       1.0  0.11611  0.65268  0.53637  1.0000
  C   C18       1.0  0.88390  0.84732  0.03637  1.0000
  C   C19       1.0  0.88388  0.34731  0.46363  1.0000
  C   C20       1.0  0.11611  0.15269  0.96363  1.0000
  C   C21       1.0  0.72789  0.78509  0.50084  1.0000
  C   C22       1.0  0.27211  0.71493  0.00083  1.0000
  C   C23       1.0  0.27211  0.21491  0.49916  1.0000
  C   C24       1.0  0.72789  0.28508  0.99916  1.0000
  C   C25       1.0  0.81985  0.47540  0.49713  1.0000
  C   C26       1.0  0.18015  0.02460  0.99713  1.0000
  C   C27       1.0  0.18015  0.52460  0.50287  1.0000
  C   C28       1.0  0.81985  0.97540  0.00287  1.0000
  N   N1        1.0  0.86836  0.75988  0.56051  1.0000
  N   N2        1.0  0.13165  0.74011  0.06051  1.0000
  N   N3        1.0  0.13164  0.24011  0.43949  1.0000
  N   N4        1.0  0.86835  0.25989  0.93949  1.0000
  N   N5        1.0  0.69829  0.91890  0.54837  1.0000
  N   N6        1.0  0.30171  0.58109  0.04837  1.0000
  N   N7        1.0  0.30171  0.08110  0.45163  1.0000
  N   N8        1.0  0.69830  0.41891  0.95162  1.0000
  O   O1        1.0  0.65012  0.06385  0.25278  1.0000
  O   O2        1.0  0.34986  0.43615  0.75278  1.0000
  O   O3        1.0  0.34988  0.93615  0.74721  1.0000
  O   O4        1.0  0.65013  0.56386  0.24722  1.0000
  O   O5        1.0  0.45069  0.85033  0.35011  1.0000
  O   O6        1.0  0.54931  0.64967  0.85012  1.0000
  O   O7        1.0  0.54931  0.14967  0.64989  1.0000
  O   O8        1.0  0.45069  0.35033  0.14988  1.0000
