data_image0
_chemical_formula_structural       Rb2H6C14N4O12
_chemical_formula_sum              "Rb2 H6 C14 N4 O12"
_cell_length_a       7.27888
_cell_length_b       7.44439
_cell_length_c       10.2785
_cell_angle_alpha    109.484
_cell_angle_beta     108.958
_cell_angle_gamma    94.6

_space_group_name_H-M_alt    "P 1"
_space_group_IT_number       1

loop_
  _space_group_symop_operation_xyz
  'x, y, z'

loop_
  _atom_site_type_symbol
  _atom_site_label
  _atom_site_symmetry_multiplicity
  _atom_site_fract_x
  _atom_site_fract_y
  _atom_site_fract_z
  _atom_site_occupancy
  Rb  Rb1       1.0  0.20101  0.95075  0.90246  1.0000
  Rb  Rb2       1.0  0.79899  0.04926  0.09755  1.0000
  H   H1        1.0  0.31232  0.56276  0.12545  1.0000
  H   H2        1.0  0.68768  0.43724  0.87455  1.0000
  H   H3        1.0  0.78357  0.65803  0.54375  1.0000
  H   H4        1.0  0.25946  0.88608  0.54388  1.0000
  H   H5        1.0  0.21643  0.34197  0.45625  1.0000
  H   H6        1.0  0.74054  0.11391  0.45611  1.0000
  C   C1        1.0  0.37276  0.62326  0.24642  1.0000
  C   C2        1.0  0.62725  0.37673  0.75358  1.0000
  C   C3        1.0  0.55729  0.60001  0.32798  1.0000
  C   C4        1.0  0.26981  0.72811  0.32799  1.0000
  C   C5        1.0  0.44271  0.39998  0.67202  1.0000
  C   C6        1.0  0.73018  0.27188  0.67201  1.0000
  C   C7        1.0  0.63858  0.67818  0.48320  1.0000
  C   C8        1.0  0.34371  0.80518  0.48320  1.0000
  C   C9        1.0  0.36142  0.32181  0.51680  1.0000
  C   C10       1.0  0.65629  0.19481  0.51679  1.0000
  C   C11       1.0  0.53026  0.78082  0.56141  1.0000
  C   C12       1.0  0.46973  0.21917  0.43860  1.0000
  C   C13       1.0  0.61511  0.86559  0.73102  1.0000
  C   C14       1.0  0.38490  0.13441  0.26899  1.0000
  N   N1        1.0  0.66798  0.48386  0.24719  1.0000
  N   N2        1.0  0.07836  0.76344  0.24712  1.0000
  N   N3        1.0  0.33202  0.51614  0.75281  1.0000
  N   N4        1.0  0.92164  0.23654  0.75287  1.0000
  O   O1        1.0  0.78867  0.84493  0.79413  1.0000
  O   O2        1.0  0.50484  0.94939  0.79427  1.0000
  O   O3        1.0  0.21133  0.15509  0.20588  1.0000
  O   O4        1.0  0.49516  0.05063  0.20573  1.0000
  O   O5        1.0  0.83269  0.46461  0.32159  1.0000
  O   O6        1.0  0.98817  0.85750  0.32148  1.0000
  O   O7        1.0  0.16732  0.53540  0.67841  1.0000
  O   O8        1.0  0.01183  0.14251  0.67852  1.0000
  O   O9        1.0  0.59072  0.40826  0.10931  1.0000
  O   O10       1.0  0.01770  0.70089  0.10924  1.0000
  O   O11       1.0  0.40929  0.59176  0.89069  1.0000
  O   O12       1.0  0.98231  0.29912  0.89077  1.0000
