data_image0
_chemical_formula_structural       Cd2H30C42S6N10O12
_chemical_formula_sum              "Cd2 H30 C42 S6 N10 O12"
_cell_length_a       10.5211
_cell_length_b       10.9468
_cell_length_c       12.601
_cell_angle_alpha    95.8364
_cell_angle_beta     114.434
_cell_angle_gamma    113.618

_space_group_name_H-M_alt    "P 1"
_space_group_IT_number       1

loop_
  _space_group_symop_operation_xyz
  'x, y, z'

loop_
  _atom_site_type_symbol
  _atom_site_label
  _atom_site_symmetry_multiplicity
  _atom_site_fract_x
  _atom_site_fract_y
  _atom_site_fract_z
  _atom_site_occupancy
  Cd  Cd1       1.0  0.42129  0.85429  0.06594  1.0000
  Cd  Cd2       1.0  0.57871  0.14570  0.93406  1.0000
  H   H1        1.0  0.82945  0.86400  0.09217  1.0000
  H   H2        1.0  0.17055  0.13600  0.90783  1.0000
  H   H3        1.0  0.79184  0.82345  0.93876  1.0000
  H   H4        1.0  0.20816  0.17655  0.06124  1.0000
  H   H5        1.0  0.71091  0.90707  0.71809  1.0000
  H   H6        1.0  0.28909  0.09293  0.28191  1.0000
  H   H7        1.0  0.67417  0.96111  0.58482  1.0000
  H   H8        1.0  0.32583  0.03889  0.41518  1.0000
  H   H9        1.0  0.19217  0.24680  0.74963  1.0000
  H   H10       1.0  0.80783  0.75320  0.25037  1.0000
  H   H11       1.0  0.01937  0.08812  0.63134  1.0000
  H   H12       1.0  0.98063  0.91188  0.36866  1.0000
  H   H13       1.0  0.25833  0.82025  0.76909  1.0000
  H   H14       1.0  0.74166  0.17975  0.23090  1.0000
  H   H15       1.0  0.03522  0.63571  0.56805  1.0000
  H   H16       1.0  0.96478  0.36428  0.43194  1.0000
  H   H17       1.0  0.88053  0.38916  0.56598  1.0000
  H   H18       1.0  0.11947  0.61083  0.43402  1.0000
  H   H19       1.0  0.83760  0.22305  0.68380  1.0000
  H   H20       1.0  0.16240  0.77695  0.31620  1.0000
  H   H21       1.0  0.90263  0.18147  0.88566  1.0000
  H   H22       1.0  0.09737  0.81853  0.11434  1.0000
  H   H23       1.0  0.06423  0.27293  0.11313  1.0000
  H   H24       1.0  0.93577  0.72707  0.88687  1.0000
  H   H25       1.0  0.28933  0.47617  0.30544  1.0000
  H   H26       1.0  0.71067  0.52383  0.69456  1.0000
  H   H27       1.0  0.43850  0.70845  0.28360  1.0000
  H   H28       1.0  0.56150  0.29155  0.71640  1.0000
  H   H29       1.0  0.30753  0.94392  0.59929  1.0000
  H   H30       1.0  0.69247  0.05608  0.40071  1.0000
  C   C1        1.0  0.48150  0.60263  0.80325  1.0000
  C   C2        1.0  0.51850  0.39737  0.19675  1.0000
  C   C3        1.0  0.45016  0.62521  0.61952  1.0000
  C   C4        1.0  0.54984  0.37479  0.38048  1.0000
  C   C5        1.0  0.29812  0.41685  0.62987  1.0000
  C   C6        1.0  0.70188  0.58315  0.37013  1.0000
  C   C7        1.0  0.73937  0.83489  0.99576  1.0000
  C   C8        1.0  0.26063  0.16511  0.00424  1.0000
  C   C9        1.0  0.70337  0.95551  0.98000  1.0000
  C   C10       1.0  0.29663  0.04449  0.02000  1.0000
  C   C11       1.0  0.61667  0.89718  0.63026  1.0000
  C   C12       1.0  0.38333  0.10282  0.36974  1.0000
  C   C13       1.0  0.52029  0.95689  0.65634  1.0000
  C   C14       1.0  0.47971  0.04311  0.34366  1.0000
  C   C15       1.0  0.14526  0.16481  0.66508  1.0000
  C   C16       1.0  0.85474  0.83519  0.33492  1.0000
  C   C17       1.0  0.24034  0.08573  0.68602  1.0000
  C   C18       1.0  0.75966  0.91427  0.31398  1.0000
  C   C19       1.0  0.18977  0.71237  0.76477  1.0000
  C   C20       1.0  0.81023  0.28763  0.23522  1.0000
  C   C21       1.0  0.06550  0.60759  0.65203  1.0000
  C   C22       1.0  0.93449  0.39240  0.34796  1.0000
  C   C23       1.0  0.98107  0.47250  0.65103  1.0000
  C   C24       1.0  0.01893  0.52749  0.34897  1.0000
  C   C25       1.0  0.02199  0.44219  0.76288  1.0000
  C   C26       1.0  0.97801  0.55781  0.23712  1.0000
  C   C27       1.0  0.93664  0.30627  0.76940  1.0000
  C   C28       1.0  0.06336  0.69373  0.23059  1.0000
  C   C29       1.0  0.97251  0.28304  0.87999  1.0000
  C   C30       1.0  0.02749  0.71695  0.12001  1.0000
  C   C31       1.0  0.09837  0.39416  0.99263  1.0000
  C   C32       1.0  0.90163  0.60584  0.00737  1.0000
  C   C33       1.0  0.13556  0.37536  0.10907  1.0000
  C   C34       1.0  0.86444  0.62465  0.89093  1.0000
  C   C35       1.0  0.25864  0.48699  0.21431  1.0000
  C   C36       1.0  0.74136  0.51302  0.78569  1.0000
  C   C37       1.0  0.34276  0.61723  0.20278  1.0000
  C   C38       1.0  0.65724  0.38278  0.79722  1.0000
  C   C39       1.0  0.18844  0.52995  0.98984  1.0000
  C   C40       1.0  0.81156  0.47005  0.01016  1.0000
  C   C41       1.0  0.14819  0.55484  0.87273  1.0000
  C   C42       1.0  0.85181  0.44515  0.12727  1.0000
  S   S1        1.0  0.57793  0.66520  0.96336  1.0000
  S   S2        1.0  0.42206  0.33480  0.03664  1.0000
  S   S3        1.0  0.50323  0.71969  0.52733  1.0000
  S   S4        1.0  0.49677  0.28031  0.47267  1.0000
  S   S5        1.0  0.14279  0.24406  0.54579  1.0000
  S   S6        1.0  0.85721  0.75594  0.45422  1.0000
  N   N1        1.0  0.52647  0.68820  0.74151  1.0000
  N   N2        1.0  0.47353  0.31180  0.25849  1.0000
  N   N3        1.0  0.33564  0.49047  0.55777  1.0000
  N   N4        1.0  0.66436  0.50953  0.44223  1.0000
  N   N5        1.0  0.36621  0.46637  0.75238  1.0000
  N   N6        1.0  0.63379  0.53363  0.24762  1.0000
  N   N7        1.0  0.22862  0.68637  0.87136  1.0000
  N   N8        1.0  0.77138  0.31363  0.12864  1.0000
  N   N9        1.0  0.30801  0.63811  0.09438  1.0000
  N   N10       1.0  0.69199  0.36189  0.90562  1.0000
  O   O1        1.0  0.56011  0.93382  0.94637  1.0000
  O   O2        1.0  0.43988  0.06618  0.05363  1.0000
  O   O3        1.0  0.81619  0.07127  0.99965  1.0000
  O   O4        1.0  0.18381  0.92873  0.00035  1.0000
  O   O5        1.0  0.36459  0.88372  0.58530  1.0000
  O   O6        1.0  0.63541  0.11628  0.41470  1.0000
  O   O7        1.0  0.59304  0.07101  0.73877  1.0000
  O   O8        1.0  0.40696  0.92899  0.26123  1.0000
  O   O9        1.0  0.32103  0.09161  0.79555  1.0000
  O   O10       1.0  0.67897  0.90839  0.20445  1.0000
  O   O11       1.0  0.22459  0.01537  0.59003  1.0000
  O   O12       1.0  0.77541  0.98463  0.40997  1.0000
