data_image0
_chemical_formula_structural       Co6H28C48O26
_chemical_formula_sum              "Co6 H28 C48 O26"
_cell_length_a       9.76857
_cell_length_b       11.9191
_cell_length_c       13.0039
_cell_angle_alpha    91.8662
_cell_angle_beta     101.012
_cell_angle_gamma    101.794

_space_group_name_H-M_alt    "P 1"
_space_group_IT_number       1

loop_
  _space_group_symop_operation_xyz
  'x, y, z'

loop_
  _atom_site_type_symbol
  _atom_site_label
  _atom_site_symmetry_multiplicity
  _atom_site_fract_x
  _atom_site_fract_y
  _atom_site_fract_z
  _atom_site_occupancy
  Co  Co1       1.0  0.52954  0.71742  0.67534  1.0000
  Co  Co2       1.0  0.47046  0.28257  0.32466  1.0000
  Co  Co3       1.0  0.50000  0.50000  0.50000  1.0000
  Co  Co4       1.0  0.13469  0.21496  0.16588  1.0000
  Co  Co5       1.0  0.86531  0.78504  0.83411  1.0000
  Co  Co6       1.0  0.00000  0.00000  1.00000  1.0000
  H   H1        1.0  0.79453  0.37544  0.65329  1.0000
  H   H2        1.0  0.20545  0.62455  0.34671  1.0000
  H   H3        1.0  0.89029  0.23214  0.76806  1.0000
  H   H4        1.0  0.10970  0.76785  0.23194  1.0000
  H   H5        1.0  0.85161  0.42687  0.04136  1.0000
  H   H6        1.0  0.14839  0.57314  0.95863  1.0000
  H   H7        1.0  0.75040  0.56737  0.92712  1.0000
  H   H8        1.0  0.24961  0.43264  0.07288  1.0000
  H   H9        1.0  0.65662  0.70053  0.28715  1.0000
  H   H10       1.0  0.34338  0.29947  0.71285  1.0000
  H   H11       1.0  0.79667  0.82504  0.17467  1.0000
  H   H12       1.0  0.20333  0.17496  0.82533  1.0000
  H   H13       1.0  0.91370  0.09917  0.41935  1.0000
  H   H14       1.0  0.08630  0.90084  0.58064  1.0000
  H   H15       1.0  0.77035  0.97498  0.53081  1.0000
  H   H16       1.0  0.22965  0.02502  0.46919  1.0000
  H   H17       1.0  0.19357  0.39628  0.56336  1.0000
  H   H18       1.0  0.80642  0.60372  0.43665  1.0000
  H   H19       1.0  0.05687  0.71380  0.50698  1.0000
  H   H20       1.0  0.94313  0.28620  0.49303  1.0000
  H   H21       1.0  0.50488  0.18907  0.92332  1.0000
  H   H22       1.0  0.49513  0.81093  0.07668  1.0000
  H   H23       1.0  0.32315  0.93085  0.11143  1.0000
  H   H24       1.0  0.67686  0.06915  0.88857  1.0000
  H   H25       1.0  0.36736  0.75131  0.80995  1.0000
  H   H26       1.0  0.63265  0.24870  0.19004  1.0000
  H   H27       1.0  0.50873  0.71756  0.87657  1.0000
  H   H28       1.0  0.49127  0.28245  0.12343  1.0000
  C   C1        1.0  0.77090  0.48096  0.78357  1.0000
  C   C2        1.0  0.22910  0.51904  0.21642  1.0000
  C   C3        1.0  0.80729  0.38533  0.73827  1.0000
  C   C4        1.0  0.19269  0.61466  0.26173  1.0000
  C   C5        1.0  0.85967  0.30601  0.80159  1.0000
  C   C6        1.0  0.14032  0.69399  0.19840  1.0000
  C   C7        1.0  0.87714  0.32222  0.91104  1.0000
  C   C8        1.0  0.12285  0.67778  0.08896  1.0000
  C   C9        1.0  0.83734  0.41602  0.95622  1.0000
  C   C10       1.0  0.16266  0.58399  0.04378  1.0000
  C   C11       1.0  0.78298  0.49491  0.89279  1.0000
  C   C12       1.0  0.21702  0.50509  0.10721  1.0000
  C   C13       1.0  0.71502  0.56251  0.71257  1.0000
  C   C14       1.0  0.28498  0.43749  0.28743  1.0000
  C   C15       1.0  0.94467  0.24186  0.97868  1.0000
  C   C16       1.0  0.05532  0.75815  0.02132  1.0000
  C   C17       1.0  0.70456  0.83133  0.41487  1.0000
  C   C18       1.0  0.29544  0.16867  0.58513  1.0000
  C   C19       1.0  0.71253  0.78826  0.31482  1.0000
  C   C20       1.0  0.28747  0.21174  0.68518  1.0000
  C   C21       1.0  0.79008  0.85728  0.25255  1.0000
  C   C22       1.0  0.20992  0.14272  0.74745  1.0000
  C   C23       1.0  0.86211  0.96965  0.29049  1.0000
  C   C24       1.0  0.13790  0.03034  0.70951  1.0000
  C   C25       1.0  0.85648  0.01204  0.39112  1.0000
  C   C26       1.0  0.14352  0.98796  0.60888  1.0000
  C   C27       1.0  0.77705  0.94347  0.45276  1.0000
  C   C28       1.0  0.22295  0.05653  0.54724  1.0000
  C   C29       1.0  0.62082  0.75626  0.48096  1.0000
  C   C30       1.0  0.37918  0.24374  0.51904  1.0000
  C   C31       1.0  0.94296  0.04302  0.22277  1.0000
  C   C32       1.0  0.05704  0.95698  0.77723  1.0000
  C   C33       1.0  0.28504  0.62691  0.58180  1.0000
  C   C34       1.0  0.71496  0.37309  0.41821  1.0000
  C   C35       1.0  0.10815  0.44052  0.53523  1.0000
  C   C36       1.0  0.89184  0.55948  0.46478  1.0000
  C   C37       1.0  0.13894  0.56108  0.53864  1.0000
  C   C38       1.0  0.86106  0.43892  0.46137  1.0000
  C   C39       1.0  0.03039  0.62028  0.50352  1.0000
  C   C40       1.0  0.96961  0.37972  0.49648  1.0000
  C   C41       1.0  0.31143  0.14305  0.04571  1.0000
  C   C42       1.0  0.68858  0.85695  0.95429  1.0000
  C   C43       1.0  0.50413  0.10635  0.95678  1.0000
  C   C44       1.0  0.49588  0.89365  0.04322  1.0000
  C   C45       1.0  0.40436  0.06665  0.01936  1.0000
  C   C46       1.0  0.59564  0.93335  0.98064  1.0000
  C   C47       1.0  0.40063  0.95998  0.06265  1.0000
  C   C48       1.0  0.59938  0.04003  0.93735  1.0000
  O   O1        1.0  0.70407  0.66289  0.75302  1.0000
  O   O2        1.0  0.29593  0.33711  0.24698  1.0000
  O   O3        1.0  0.67636  0.53470  0.61613  1.0000
  O   O4        1.0  0.32364  0.46530  0.38387  1.0000
  O   O5        1.0  0.94778  0.14503  0.93708  1.0000
  O   O6        1.0  0.05223  0.85497  0.06292  1.0000
  O   O7        1.0  0.99800  0.28019  0.07468  1.0000
  O   O8        1.0  0.00200  0.71982  0.92532  1.0000
  O   O9        1.0  0.61810  0.80003  0.57211  1.0000
  O   O10       1.0  0.38191  0.19997  0.42789  1.0000
  O   O11       1.0  0.56062  0.65470  0.44329  1.0000
  O   O12       1.0  0.43938  0.34530  0.55671  1.0000
  O   O13       1.0  0.90997  0.01838  0.12385  1.0000
  O   O14       1.0  0.09004  0.98162  0.87615  1.0000
  O   O15       1.0  0.04086  0.12955  0.26691  1.0000
  O   O16       1.0  0.95913  0.87045  0.73309  1.0000
  O   O17       1.0  0.39066  0.57314  0.60233  1.0000
  O   O18       1.0  0.60934  0.42685  0.39767  1.0000
  O   O19       1.0  0.31231  0.73414  0.60466  1.0000
  O   O20       1.0  0.68769  0.26586  0.39534  1.0000
  O   O21       1.0  0.20642  0.09874  0.09134  1.0000
  O   O22       1.0  0.79359  0.90126  0.90866  1.0000
  O   O23       1.0  0.34101  0.24881  0.03246  1.0000
  O   O24       1.0  0.65900  0.75119  0.96754  1.0000
  O   O25       1.0  0.44232  0.70965  0.80638  1.0000
  O   O26       1.0  0.55768  0.29036  0.19362  1.0000
