data_image0
_chemical_formula_structural       Ag4H24C48N12O20
_chemical_formula_sum              "Ag4 H24 C48 N12 O20"
_cell_length_a       9.43433
_cell_length_b       10.4496
_cell_length_c       12.1615
_cell_angle_alpha    90
_cell_angle_beta     99.8407
_cell_angle_gamma    90

_space_group_name_H-M_alt    "P 1"
_space_group_IT_number       1

loop_
  _space_group_symop_operation_xyz
  'x, y, z'

loop_
  _atom_site_type_symbol
  _atom_site_label
  _atom_site_symmetry_multiplicity
  _atom_site_fract_x
  _atom_site_fract_y
  _atom_site_fract_z
  _atom_site_occupancy
  Ag  Ag1       1.0  0.22909  0.15020  0.49542  1.0000
  Ag  Ag2       1.0  0.27091  0.65020  0.00458  1.0000
  Ag  Ag3       1.0  0.77091  0.84980  0.50458  1.0000
  Ag  Ag4       1.0  0.72909  0.34980  0.99542  1.0000
  H   H1        1.0  0.32986  0.88848  0.41224  1.0000
  H   H2        1.0  0.17014  0.38849  0.08777  1.0000
  H   H3        1.0  0.67014  0.11151  0.58777  1.0000
  H   H4        1.0  0.82986  0.61151  0.91224  1.0000
  H   H5        1.0  0.49548  0.80049  0.28913  1.0000
  H   H6        1.0  0.00452  0.30049  0.21086  1.0000
  H   H7        1.0  0.50452  0.19951  0.71086  1.0000
  H   H8        1.0  0.99548  0.69951  0.78914  1.0000
  H   H9        1.0  0.62786  0.95500  0.18555  1.0000
  H   H10       1.0  0.87213  0.45500  0.31445  1.0000
  H   H11       1.0  0.37214  0.04500  0.81445  1.0000
  H   H12       1.0  0.12787  0.54500  0.68555  1.0000
  H   H13       1.0  0.51004  0.59285  0.24944  1.0000
  H   H14       1.0  0.98996  0.09284  0.25057  1.0000
  H   H15       1.0  0.48996  0.40716  0.75057  1.0000
  H   H16       1.0  0.01005  0.90715  0.74943  1.0000
  H   H17       1.0  0.34703  0.65566  0.38974  1.0000
  H   H18       1.0  0.15296  0.15566  0.11026  1.0000
  H   H19       1.0  0.65296  0.34434  0.61026  1.0000
  H   H20       1.0  0.84704  0.84434  0.88974  1.0000
  H   H21       1.0  0.24221  0.48164  0.48928  1.0000
  H   H22       1.0  0.25779  0.98164  0.01072  1.0000
  H   H23       1.0  0.75779  0.51836  0.51072  1.0000
  H   H24       1.0  0.74221  0.01836  0.98928  1.0000
  C   C1        1.0  0.39112  0.95178  0.36653  1.0000
  C   C2        1.0  0.10887  0.45179  0.13347  1.0000
  C   C3        1.0  0.60887  0.04822  0.63346  1.0000
  C   C4        1.0  0.89113  0.54822  0.86653  1.0000
  C   C5        1.0  0.48250  0.90306  0.29809  1.0000
  C   C6        1.0  0.01749  0.40306  0.20191  1.0000
  C   C7        1.0  0.51750  0.09694  0.70191  1.0000
  C   C8        1.0  0.98250  0.59694  0.79809  1.0000
  C   C9        1.0  0.55530  0.98837  0.24012  1.0000
  C   C10       1.0  0.94469  0.48837  0.25988  1.0000
  C   C11       1.0  0.44470  0.01163  0.75988  1.0000
  C   C12       1.0  0.05531  0.51163  0.74012  1.0000
  C   C13       1.0  0.53524  0.11959  0.25319  1.0000
  C   C14       1.0  0.96476  0.61959  0.24682  1.0000
  C   C15       1.0  0.46476  0.88041  0.74682  1.0000
  C   C16       1.0  0.03525  0.38041  0.75318  1.0000
  C   C17       1.0  0.61231  0.21116  0.19280  1.0000
  C   C18       1.0  0.88769  0.71116  0.30720  1.0000
  C   C19       1.0  0.38769  0.78884  0.80720  1.0000
  C   C20       1.0  0.11231  0.28884  0.69280  1.0000
  C   C21       1.0  0.57856  0.35378  0.20081  1.0000
  C   C22       1.0  0.92143  0.85378  0.29919  1.0000
  C   C23       1.0  0.42143  0.64622  0.79919  1.0000
  C   C24       1.0  0.07857  0.14622  0.70081  1.0000
  C   C25       1.0  0.48350  0.39249  0.27872  1.0000
  C   C26       1.0  0.01650  0.89249  0.22128  1.0000
  C   C27       1.0  0.51650  0.60751  0.72128  1.0000
  C   C28       1.0  0.98351  0.10751  0.77872  1.0000
  C   C29       1.0  0.45856  0.52248  0.29593  1.0000
  C   C30       1.0  0.04144  0.02248  0.20407  1.0000
  C   C31       1.0  0.54144  0.47752  0.70407  1.0000
  C   C32       1.0  0.95857  0.97751  0.79593  1.0000
  C   C33       1.0  0.37059  0.55664  0.37188  1.0000
  C   C34       1.0  0.12941  0.05664  0.12813  1.0000
  C   C35       1.0  0.62941  0.44336  0.62813  1.0000
  C   C36       1.0  0.87059  0.94336  0.87187  1.0000
  C   C37       1.0  0.31005  0.45933  0.42774  1.0000
  C   C38       1.0  0.18995  0.95933  0.07226  1.0000
  C   C39       1.0  0.68995  0.54067  0.57226  1.0000
  C   C40       1.0  0.81005  0.04067  0.92773  1.0000
  C   C41       1.0  0.41779  0.30052  0.33861  1.0000
  C   C42       1.0  0.08221  0.80052  0.16139  1.0000
  C   C43       1.0  0.58221  0.69948  0.66139  1.0000
  C   C44       1.0  0.91779  0.19948  0.83861  1.0000
  C   C45       1.0  0.44114  0.16204  0.32378  1.0000
  C   C46       1.0  0.05886  0.66204  0.17623  1.0000
  C   C47       1.0  0.55886  0.83796  0.67622  1.0000
  C   C48       1.0  0.94114  0.33796  0.82378  1.0000
  N   N1        1.0  0.33255  0.33483  0.41127  1.0000
  N   N2        1.0  0.16745  0.83483  0.08873  1.0000
  N   N3        1.0  0.66745  0.66517  0.58873  1.0000
  N   N4        1.0  0.83255  0.16517  0.91127  1.0000
  N   N5        1.0  0.37085  0.07795  0.37925  1.0000
  N   N6        1.0  0.12914  0.57795  0.12075  1.0000
  N   N7        1.0  0.62914  0.92205  0.62075  1.0000
  N   N8        1.0  0.87086  0.42205  0.87925  1.0000
  N   N9        1.0  0.86557  0.25060  0.46127  1.0000
  N   N10       1.0  0.63443  0.75060  0.03873  1.0000
  N   N11       1.0  0.13443  0.74940  0.53873  1.0000
  N   N12       1.0  0.36557  0.24940  0.96127  1.0000
  O   O1        1.0  0.63621  0.43262  0.14638  1.0000
  O   O2        1.0  0.86379  0.93263  0.35362  1.0000
  O   O3        1.0  0.36379  0.56738  0.85362  1.0000
  O   O4        1.0  0.13622  0.06738  0.64638  1.0000
  O   O5        1.0  0.70292  0.17622  0.13709  1.0000
  O   O6        1.0  0.79706  0.67622  0.36290  1.0000
  O   O7        1.0  0.29706  0.82378  0.86290  1.0000
  O   O8        1.0  0.20294  0.32378  0.63710  1.0000
  O   O9        1.0  0.97502  0.23086  0.41679  1.0000
  O   O10       1.0  0.52498  0.73086  0.08321  1.0000
  O   O11       1.0  0.02498  0.76914  0.58321  1.0000
  O   O12       1.0  0.47502  0.26914  0.91679  1.0000
  O   O13       1.0  0.86783  0.22878  0.56501  1.0000
  O   O14       1.0  0.63217  0.72878  0.93499  1.0000
  O   O15       1.0  0.13217  0.77122  0.43499  1.0000
  O   O16       1.0  0.36783  0.27123  0.06501  1.0000
  O   O17       1.0  0.75082  0.29406  0.40475  1.0000
  O   O18       1.0  0.74918  0.79406  0.09525  1.0000
  O   O19       1.0  0.24918  0.70594  0.59525  1.0000
  O   O20       1.0  0.25082  0.20594  0.90475  1.0000
