data_image0
_chemical_formula_structural       Zn4H16C4Se4N4O12
_chemical_formula_sum              "Zn4 H16 C4 Se4 N4 O12"
_cell_length_a       6.66865
_cell_length_b       7.96487
_cell_length_c       9.60324
_cell_angle_alpha    90.0001
_cell_angle_beta     89.9999
_cell_angle_gamma    112.986

_space_group_name_H-M_alt    "P 1"
_space_group_IT_number       1

loop_
  _space_group_symop_operation_xyz
  'x, y, z'

loop_
  _atom_site_type_symbol
  _atom_site_label
  _atom_site_symmetry_multiplicity
  _atom_site_fract_x
  _atom_site_fract_y
  _atom_site_fract_z
  _atom_site_occupancy
  Zn  Zn1       1.0  0.82102  0.88659  0.26826  1.0000
  Zn  Zn2       1.0  0.32102  0.38659  0.23174  1.0000
  Zn  Zn3       1.0  0.17898  0.11340  0.73174  1.0000
  Zn  Zn4       1.0  0.67898  0.61341  0.76826  1.0000
  H   H1        1.0  0.66193  0.11968  0.20183  1.0000
  H   H2        1.0  0.16193  0.61968  0.29817  1.0000
  H   H3        1.0  0.33807  0.88032  0.79817  1.0000
  H   H4        1.0  0.83806  0.38031  0.70183  1.0000
  H   H5        1.0  0.84899  0.12288  0.08773  1.0000
  H   H6        1.0  0.34899  0.62288  0.41227  1.0000
  H   H7        1.0  0.15101  0.87712  0.91227  1.0000
  H   H8        1.0  0.65101  0.37712  0.58773  1.0000
  H   H9        1.0  0.39407  0.84585  0.10541  1.0000
  H   H10       1.0  0.89407  0.34585  0.39459  1.0000
  H   H11       1.0  0.60593  0.15415  0.89459  1.0000
  H   H12       1.0  0.10593  0.65415  0.60541  1.0000
  H   H13       1.0  0.58706  0.84949  0.97756  1.0000
  H   H14       1.0  0.08706  0.34949  0.52243  1.0000
  H   H15       1.0  0.41294  0.15051  0.02244  1.0000
  H   H16       1.0  0.91294  0.65050  0.47756  1.0000
  C   C1        1.0  0.53364  0.93604  0.04396  1.0000
  C   C2        1.0  0.03364  0.43604  0.45605  1.0000
  C   C3        1.0  0.46636  0.06397  0.95605  1.0000
  C   C4        1.0  0.96636  0.56397  0.54395  1.0000
  Se  Se1       1.0  0.80714  0.57528  0.09277  1.0000
  Se  Se2       1.0  0.30714  0.07528  0.40723  1.0000
  Se  Se3       1.0  0.19286  0.42472  0.90723  1.0000
  Se  Se4       1.0  0.69286  0.92472  0.59277  1.0000
  N   N1        1.0  0.71255  0.03656  0.14090  1.0000
  N   N2        1.0  0.21255  0.53656  0.35910  1.0000
  N   N3        1.0  0.28745  0.96344  0.85910  1.0000
  N   N4        1.0  0.78745  0.46344  0.64090  1.0000
  O   O1        1.0  0.57638  0.60120  0.15174  1.0000
  O   O2        1.0  0.07638  0.10120  0.34826  1.0000
  O   O3        1.0  0.42362  0.39880  0.84827  1.0000
  O   O4        1.0  0.92362  0.89880  0.65173  1.0000
  O   O5        1.0  0.98931  0.73576  0.20255  1.0000
  O   O6        1.0  0.48931  0.23576  0.29745  1.0000
  O   O7        1.0  0.01070  0.26424  0.79745  1.0000
  O   O8        1.0  0.51069  0.76424  0.70255  1.0000
  O   O9        1.0  0.86426  0.69693  0.93825  1.0000
  O   O10       1.0  0.36426  0.19693  0.56175  1.0000
  O   O11       1.0  0.13574  0.30307  0.06175  1.0000
  O   O12       1.0  0.63574  0.80307  0.43825  1.0000
