data_image0
_chemical_formula_structural       Mn2H20C24Br4N4O12
_chemical_formula_sum              "Mn2 H20 C24 Br4 N4 O12"
_cell_length_a       6.99046
_cell_length_b       9.82092
_cell_length_c       10.1572
_cell_angle_alpha    90.0002
_cell_angle_beta     98.1614
_cell_angle_gamma    89.9998

_space_group_name_H-M_alt    "P 1"
_space_group_IT_number       1

loop_
  _space_group_symop_operation_xyz
  'x, y, z'

loop_
  _atom_site_type_symbol
  _atom_site_label
  _atom_site_symmetry_multiplicity
  _atom_site_fract_x
  _atom_site_fract_y
  _atom_site_fract_z
  _atom_site_occupancy
  Mn  Mn1       1.0  0.50000  0.50000  0.50000  1.0000
  Mn  Mn2       1.0  1.00000  0.00000  0.50000  1.0000
  H   H1        1.0  0.27725  0.38236  0.66326  1.0000
  H   H2        1.0  0.77725  0.11764  0.66327  1.0000
  H   H3        1.0  0.72275  0.61764  0.33674  1.0000
  H   H4        1.0  0.22275  0.88236  0.33674  1.0000
  H   H5        1.0  0.45351  0.27508  0.65644  1.0000
  H   H6        1.0  0.95351  0.22492  0.65644  1.0000
  H   H7        1.0  0.54649  0.72492  0.34356  1.0000
  H   H8        1.0  0.04648  0.77508  0.34356  1.0000
  H   H9        1.0  0.12852  0.28823  0.49536  1.0000
  H   H10       1.0  0.62852  0.21177  0.49536  1.0000
  H   H11       1.0  0.87148  0.71177  0.50464  1.0000
  H   H12       1.0  0.37148  0.78823  0.50464  1.0000
  H   H13       1.0  0.89251  0.44553  0.10938  1.0000
  H   H14       1.0  0.39251  0.05446  0.10937  1.0000
  H   H15       1.0  0.10749  0.55447  0.89062  1.0000
  H   H16       1.0  0.60749  0.94554  0.89063  1.0000
  H   H17       1.0  0.89342  0.01594  0.20479  1.0000
  H   H18       1.0  0.39342  0.48405  0.20479  1.0000
  H   H19       1.0  0.10657  0.98406  0.79521  1.0000
  H   H20       1.0  0.60658  0.51595  0.79521  1.0000
  C   C1        1.0  0.05774  0.27421  0.39431  1.0000
  C   C2        1.0  0.55774  0.22579  0.39431  1.0000
  C   C3        1.0  0.94226  0.72579  0.60569  1.0000
  C   C4        1.0  0.44226  0.77421  0.60569  1.0000
  C   C5        1.0  0.02185  0.38427  0.30783  1.0000
  C   C6        1.0  0.52183  0.11572  0.30782  1.0000
  C   C7        1.0  0.97816  0.61573  0.69217  1.0000
  C   C8        1.0  0.47817  0.88428  0.69218  1.0000
  C   C9        1.0  0.92768  0.36137  0.17820  1.0000
  C   C10       1.0  0.42767  0.13863  0.17820  1.0000
  C   C11       1.0  0.07233  0.63863  0.82180  1.0000
  C   C12       1.0  0.57233  0.86137  0.82180  1.0000
  C   C13       1.0  0.88790  0.22719  0.14025  1.0000
  C   C14       1.0  0.38790  0.27280  0.14025  1.0000
  C   C15       1.0  0.11210  0.77281  0.85975  1.0000
  C   C16       1.0  0.61210  0.72720  0.85975  1.0000
  C   C17       1.0  0.92489  0.12157  0.23155  1.0000
  C   C18       1.0  0.42489  0.37843  0.23155  1.0000
  C   C19       1.0  0.07510  0.87843  0.76845  1.0000
  C   C20       1.0  0.57511  0.62157  0.76845  1.0000
  C   C21       1.0  0.07736  0.52583  0.35161  1.0000
  C   C22       1.0  0.57736  0.97418  0.35161  1.0000
  C   C23       1.0  0.92264  0.47417  0.64839  1.0000
  C   C24       1.0  0.42264  0.02582  0.64838  1.0000
  Br  Br1       1.0  0.77845  0.18602  0.96327  1.0000
  Br  Br2       1.0  0.27845  0.31397  0.96327  1.0000
  Br  Br3       1.0  0.22155  0.81398  0.03673  1.0000
  Br  Br4       1.0  0.72155  0.68602  0.03673  1.0000
  N   N1        1.0  0.00142  0.14592  0.35983  1.0000
  N   N2        1.0  0.50142  0.35408  0.35983  1.0000
  N   N3        1.0  0.99858  0.85408  0.64017  1.0000
  N   N4        1.0  0.49858  0.64592  0.64017  1.0000
  O   O1        1.0  0.23442  0.54974  0.42883  1.0000
  O   O2        1.0  0.73441  0.95026  0.42883  1.0000
  O   O3        1.0  0.76558  0.45026  0.57117  1.0000
  O   O4        1.0  0.26559  0.04974  0.57117  1.0000
  O   O5        1.0  0.96091  0.62193  0.30875  1.0000
  O   O6        1.0  0.46091  0.87806  0.30875  1.0000
  O   O7        1.0  0.03909  0.37807  0.69125  1.0000
  O   O8        1.0  0.53909  0.12194  0.69125  1.0000
  O   O9        1.0  0.41226  0.37341  0.64402  1.0000
  O   O10       1.0  0.91226  0.12659  0.64402  1.0000
  O   O11       1.0  0.58774  0.62659  0.35598  1.0000
  O   O12       1.0  0.08774  0.87341  0.35598  1.0000
