data_image0
_chemical_formula_structural       Na4H40C36S4N8O20F12
_chemical_formula_sum              "Na4 H40 C36 S4 N8 O20 F12"
_cell_length_a       4.89247
_cell_length_b       6.32579
_cell_length_c       40.456
_cell_angle_alpha    90
_cell_angle_beta     90
_cell_angle_gamma    90

_space_group_name_H-M_alt    "P 1"
_space_group_IT_number       1

loop_
  _space_group_symop_operation_xyz
  'x, y, z'

loop_
  _atom_site_type_symbol
  _atom_site_label
  _atom_site_symmetry_multiplicity
  _atom_site_fract_x
  _atom_site_fract_y
  _atom_site_fract_z
  _atom_site_occupancy
  Na  Na1       1.0  0.68308  0.49029  0.48838  1.0000
  Na  Na2       1.0  0.81693  0.50971  0.98838  1.0000
  Na  Na3       1.0  0.31692  0.99029  0.01162  1.0000
  Na  Na4       1.0  0.18308  0.00971  0.51162  1.0000
  H   H1        1.0  0.15969  0.64709  0.45547  1.0000
  H   H2        1.0  0.34031  0.35291  0.95547  1.0000
  H   H3        1.0  0.84031  0.14709  0.04453  1.0000
  H   H4        1.0  0.65969  0.85291  0.54453  1.0000
  H   H5        1.0  0.14323  0.40972  0.44507  1.0000
  H   H6        1.0  0.35677  0.59028  0.94507  1.0000
  H   H7        1.0  0.85677  0.90971  0.05493  1.0000
  H   H8        1.0  0.64324  0.09028  0.55493  1.0000
  H   H9        1.0  0.86163  0.15685  0.39290  1.0000
  H   H10       1.0  0.63837  0.84316  0.89290  1.0000
  H   H11       1.0  0.13837  0.65684  0.10710  1.0000
  H   H12       1.0  0.36163  0.34316  0.60710  1.0000
  H   H13       1.0  0.78965  0.38269  0.35374  1.0000
  H   H14       1.0  0.71035  0.61732  0.85374  1.0000
  H   H15       1.0  0.21036  0.88268  0.14626  1.0000
  H   H16       1.0  0.28965  0.11732  0.64626  1.0000
  H   H17       1.0  0.92910  0.91875  0.34823  1.0000
  H   H18       1.0  0.57090  0.08125  0.84823  1.0000
  H   H19       1.0  0.07090  0.41875  0.15177  1.0000
  H   H20       1.0  0.42911  0.58126  0.65176  1.0000
  H   H21       1.0  0.14165  0.62426  0.37970  1.0000
  H   H22       1.0  0.35834  0.37575  0.87970  1.0000
  H   H23       1.0  0.85835  0.12426  0.12030  1.0000
  H   H24       1.0  0.64167  0.87575  0.62030  1.0000
  H   H25       1.0  0.68871  0.80532  0.40950  1.0000
  H   H26       1.0  0.81129  0.19468  0.90950  1.0000
  H   H27       1.0  0.31129  0.30532  0.09050  1.0000
  H   H28       1.0  0.18871  0.69468  0.59050  1.0000
  H   H29       1.0  0.35136  0.91909  0.40979  1.0000
  H   H30       1.0  0.14864  0.08091  0.90979  1.0000
  H   H31       1.0  0.64865  0.41909  0.09021  1.0000
  H   H32       1.0  0.85136  0.58091  0.59021  1.0000
  H   H33       1.0  0.73491  0.54591  0.30177  1.0000
  H   H34       1.0  0.76508  0.45409  0.80177  1.0000
  H   H35       1.0  0.26509  0.04590  0.19823  1.0000
  H   H36       1.0  0.23492  0.95409  0.69823  1.0000
  H   H37       1.0  0.52468  0.83967  0.27077  1.0000
  H   H38       1.0  0.97532  0.16031  0.77077  1.0000
  H   H39       1.0  0.47532  0.33967  0.22923  1.0000
  H   H40       1.0  0.02468  0.66032  0.72923  1.0000
  C   C1        1.0  0.47175  0.25891  0.38040  1.0000
  C   C2        1.0  0.02826  0.74109  0.88040  1.0000
  C   C3        1.0  0.52826  0.75891  0.11960  1.0000
  C   C4        1.0  0.97175  0.24109  0.61960  1.0000
  C   C5        1.0  0.10565  0.83673  0.33813  1.0000
  C   C6        1.0  0.39435  0.16327  0.83813  1.0000
  C   C7        1.0  0.89435  0.33673  0.16187  1.0000
  C   C8        1.0  0.60566  0.66327  0.66187  1.0000
  C   C9        1.0  0.45421  0.56766  0.34291  1.0000
  C   C10       1.0  0.04578  0.43235  0.84291  1.0000
  C   C11       1.0  0.54578  0.06765  0.15709  1.0000
  C   C12       1.0  0.95422  0.93235  0.65709  1.0000
  C   C13       1.0  0.21477  0.89945  0.30778  1.0000
  C   C14       1.0  0.28523  0.10055  0.80779  1.0000
  C   C15       1.0  0.78523  0.39944  0.19222  1.0000
  C   C16       1.0  0.71476  0.60055  0.69221  1.0000
  C   C17       1.0  0.22354  0.67099  0.35576  1.0000
  C   C18       1.0  0.27645  0.32902  0.85576  1.0000
  C   C19       1.0  0.77646  0.17099  0.14424  1.0000
  C   C20       1.0  0.72355  0.82902  0.64423  1.0000
  C   C21       1.0  0.56875  0.94951  0.41401  1.0000
  C   C22       1.0  0.93125  0.05049  0.91401  1.0000
  C   C23       1.0  0.43125  0.44951  0.08599  1.0000
  C   C24       1.0  0.06875  0.55049  0.58599  1.0000
  C   C25       1.0  0.55988  0.62902  0.31207  1.0000
  C   C26       1.0  0.94013  0.37098  0.81207  1.0000
  C   C27       1.0  0.44013  0.12902  0.18793  1.0000
  C   C28       1.0  0.05988  0.87098  0.68793  1.0000
  C   C29       1.0  0.44110  0.79355  0.29464  1.0000
  C   C30       1.0  0.05890  0.20644  0.79464  1.0000
  C   C31       1.0  0.55890  0.29355  0.20536  1.0000
  C   C32       1.0  0.94110  0.70645  0.70536  1.0000
  C   C33       1.0  0.10072  0.08217  0.28899  1.0000
  C   C34       1.0  0.39928  0.91782  0.78900  1.0000
  C   C35       1.0  0.89928  0.58217  0.21101  1.0000
  C   C36       1.0  0.60071  0.41783  0.71100  1.0000
  S   S1        1.0  0.60472  0.99852  0.45786  1.0000
  S   S2        1.0  0.89527  0.00149  0.95786  1.0000
  S   S3        1.0  0.39527  0.49851  0.04214  1.0000
  S   S4        1.0  0.10473  0.50149  0.54214  1.0000
  N   N1        1.0  0.65697  0.12163  0.39392  1.0000
  N   N2        1.0  0.84303  0.87838  0.89392  1.0000
  N   N3        1.0  0.34303  0.62162  0.10608  1.0000
  N   N4        1.0  0.15698  0.37838  0.60608  1.0000
  N   N5        1.0  0.59194  0.40951  0.36042  1.0000
  N   N6        1.0  0.90806  0.59049  0.86042  1.0000
  N   N7        1.0  0.40807  0.90951  0.13958  1.0000
  N   N8        1.0  0.09195  0.09049  0.63958  1.0000
  O   O1        1.0  0.45742  0.19610  0.46580  1.0000
  O   O2        1.0  0.04257  0.80390  0.96580  1.0000
  O   O3        1.0  0.54257  0.69610  0.03420  1.0000
  O   O4        1.0  0.95744  0.30390  0.53420  1.0000
  O   O5        1.0  0.47196  0.81171  0.47319  1.0000
  O   O6        1.0  0.02803  0.18830  0.97319  1.0000
  O   O7        1.0  0.52802  0.31170  0.02681  1.0000
  O   O8        1.0  0.97198  0.68830  0.52681  1.0000
  O   O9        1.0  0.22020  0.24631  0.38480  1.0000
  O   O10       1.0  0.27980  0.75369  0.88480  1.0000
  O   O11       1.0  0.77981  0.74631  0.11520  1.0000
  O   O12       1.0  0.72020  0.25369  0.61520  1.0000
  O   O13       1.0  0.89775  0.01293  0.46450  1.0000
  O   O14       1.0  0.60224  0.98708  0.96449  1.0000
  O   O15       1.0  0.10224  0.51292  0.03551  1.0000
  O   O16       1.0  0.39776  0.48708  0.53550  1.0000
  O   O17       1.0  0.03292  0.53778  0.44753  1.0000
  O   O18       1.0  0.46708  0.46223  0.94753  1.0000
  O   O19       1.0  0.96708  0.03777  0.05247  1.0000
  O   O20       1.0  0.53292  0.96223  0.55247  1.0000
  F   F1        1.0  0.00394  0.02651  0.25832  1.0000
  F   F2        1.0  0.49610  0.97349  0.75832  1.0000
  F   F3        1.0  0.99604  0.52650  0.24168  1.0000
  F   F4        1.0  0.50390  0.47349  0.74168  1.0000
  F   F5        1.0  0.29457  0.23502  0.28341  1.0000
  F   F6        1.0  0.20543  0.76498  0.78341  1.0000
  F   F7        1.0  0.70544  0.73502  0.21659  1.0000
  F   F8        1.0  0.79455  0.26499  0.71659  1.0000
  F   F9        1.0  0.88857  0.17937  0.30505  1.0000
  F   F10       1.0  0.61140  0.82061  0.80506  1.0000
  F   F11       1.0  0.11144  0.67936  0.19495  1.0000
  F   F12       1.0  0.38858  0.32062  0.69494  1.0000
