data_image0
_chemical_formula_structural       Cd2H20C28N2O10
_chemical_formula_sum              "Cd2 H20 C28 N2 O10"
_cell_length_a       5.29
_cell_length_b       10.4826
_cell_length_c       12.9027
_cell_angle_alpha    68.2895
_cell_angle_beta     82.2012
_cell_angle_gamma    76.6686

_space_group_name_H-M_alt    "P 1"
_space_group_IT_number       1

loop_
  _space_group_symop_operation_xyz
  'x, y, z'

loop_
  _atom_site_type_symbol
  _atom_site_label
  _atom_site_symmetry_multiplicity
  _atom_site_fract_x
  _atom_site_fract_y
  _atom_site_fract_z
  _atom_site_occupancy
  Cd  Cd1       1.0  0.25417  0.57136  0.38857  1.0000
  Cd  Cd2       1.0  0.74582  0.42864  0.61143  1.0000
  H   H1        1.0  0.21863  0.57447  0.63260  1.0000
  H   H2        1.0  0.78137  0.42554  0.36740  1.0000
  H   H3        1.0  0.42772  0.67896  0.56016  1.0000
  H   H4        1.0  0.57228  0.32104  0.43984  1.0000
  H   H5        1.0  0.58932  0.73423  0.22591  1.0000
  H   H6        1.0  0.41067  0.26578  0.77408  1.0000
  H   H7        1.0  0.87513  0.88995  0.09876  1.0000
  H   H8        1.0  0.12485  0.11006  0.90123  1.0000
  H   H9        1.0  0.77435  0.14507  0.06807  1.0000
  H   H10       1.0  0.22565  0.85494  0.93193  1.0000
  H   H11       1.0  0.39265  0.24421  0.16993  1.0000
  H   H12       1.0  0.60736  0.75579  0.83007  1.0000
  H   H13       1.0  0.01298  0.20552  0.30938  1.0000
  H   H14       1.0  0.98703  0.79448  0.69063  1.0000
  H   H15       1.0  0.72156  0.04070  0.42993  1.0000
  H   H16       1.0  0.27845  0.95930  0.57007  1.0000
  H   H17       1.0  0.34739  0.62796  0.99107  1.0000
  H   H18       1.0  0.65261  0.37203  0.00894  1.0000
  H   H19       1.0  0.75604  0.40319  0.18126  1.0000
  H   H20       1.0  0.24397  0.59680  0.81874  1.0000
  C   C1        1.0  0.96127  0.86367  0.39345  1.0000
  C   C2        1.0  0.03872  0.13633  0.60655  1.0000
  C   C3        1.0  0.32940  0.89954  0.27208  1.0000
  C   C4        1.0  0.67060  0.10046  0.72792  1.0000
  C   C5        1.0  0.54958  0.84513  0.21433  1.0000
  C   C6        1.0  0.45042  0.15487  0.78567  1.0000
  C   C7        1.0  0.70545  0.93293  0.14242  1.0000
  C   C8        1.0  0.29455  0.06708  0.85757  1.0000
  C   C9        1.0  0.64845  0.07767  0.12550  1.0000
  C   C10       1.0  0.35154  0.92233  0.87450  1.0000
  C   C11       1.0  0.43743  0.13302  0.18172  1.0000
  C   C12       1.0  0.56257  0.86699  0.81828  1.0000
  C   C13       1.0  0.27278  0.04583  0.25647  1.0000
  C   C14       1.0  0.72722  0.95417  0.74353  1.0000
  C   C15       1.0  0.05386  0.09550  0.31714  1.0000
  C   C16       1.0  0.94615  0.90450  0.68286  1.0000
  C   C17       1.0  0.89557  0.00565  0.38429  1.0000
  C   C18       1.0  0.10444  0.99435  0.61571  1.0000
  C   C19       1.0  0.78467  0.76308  0.46165  1.0000
  C   C20       1.0  0.21534  0.23693  0.53834  1.0000
  C   C21       1.0  0.19422  0.57320  0.99319  1.0000
  C   C22       1.0  0.80579  0.42680  0.00681  1.0000
  C   C23       1.0  0.05965  0.51736  0.09580  1.0000
  C   C24       1.0  0.94036  0.48263  0.90420  1.0000
  C   C25       1.0  0.86381  0.44425  0.10202  1.0000
  C   C26       1.0  0.13620  0.55573  0.89798  1.0000
  C   C27       1.0  0.13308  0.53367  0.19741  1.0000
  C   C28       1.0  0.86692  0.46633  0.80259  1.0000
  N   N1        1.0  0.17323  0.81258  0.34164  1.0000
  N   N2        1.0  0.82676  0.18743  0.65836  1.0000
  O   O1        1.0  0.84376  0.63871  0.45833  1.0000
  O   O2        1.0  0.15624  0.36129  0.54167  1.0000
  O   O3        1.0  0.36824  0.58775  0.57544  1.0000
  O   O4        1.0  0.63176  0.41226  0.42456  1.0000
  O   O5        1.0  0.58753  0.80672  0.51491  1.0000
  O   O6        1.0  0.41245  0.19329  0.48509  1.0000
  O   O7        1.0  0.04461  0.46110  0.29391  1.0000
  O   O8        1.0  0.95539  0.53890  0.70609  1.0000
  O   O9        1.0  0.28470  0.61605  0.18646  1.0000
  O   O10       1.0  0.71531  0.38395  0.81354  1.0000
