data_image0
_chemical_formula_structural       Na4P4H68C32S4N4Cl4O4
_chemical_formula_sum              "Na4 P4 H68 C32 S4 N4 Cl4 O4"
_cell_length_a       9.79
_cell_length_b       11.2029
_cell_length_c       12.0474
_cell_angle_alpha    100.733
_cell_angle_beta     90
_cell_angle_gamma    90

_space_group_name_H-M_alt    "P 1"
_space_group_IT_number       1

loop_
  _space_group_symop_operation_xyz
  'x, y, z'

loop_
  _atom_site_type_symbol
  _atom_site_label
  _atom_site_symmetry_multiplicity
  _atom_site_fract_x
  _atom_site_fract_y
  _atom_site_fract_z
  _atom_site_occupancy
  Na  Na1       1.0  0.75978  0.34727  0.14228  1.0000
  Na  Na2       1.0  0.20691  0.17234  0.86678  1.0000
  Na  Na3       1.0  0.29313  0.67241  0.86662  1.0000
  Na  Na4       1.0  0.74039  0.84783  0.14176  1.0000
  P   P1        1.0  0.56952  0.60743  0.03655  1.0000
  P   P2        1.0  0.06229  0.90979  0.96287  1.0000
  P   P3        1.0  0.43781  0.40983  0.96286  1.0000
  P   P4        1.0  0.93065  0.10741  0.03660  1.0000
  H   H1        1.0  0.52890  0.50821  0.26755  1.0000
  H   H2        1.0  0.00915  0.99045  0.70548  1.0000
  H   H3        1.0  0.49087  0.49052  0.70543  1.0000
  H   H4        1.0  0.97138  0.00810  0.26771  1.0000
  H   H5        1.0  0.43121  0.37428  0.21843  1.0000
  H   H6        1.0  0.91284  0.12225  0.76396  1.0000
  H   H7        1.0  0.58722  0.62230  0.76391  1.0000
  H   H8        1.0  0.06905  0.87422  0.21845  1.0000
  H   H9        1.0  0.37312  0.48295  0.33588  1.0000
  H   H10       1.0  0.84216  0.01085  0.65354  1.0000
  H   H11       1.0  0.65784  0.51093  0.65346  1.0000
  H   H12       1.0  0.12723  0.98286  0.33588  1.0000
  H   H13       1.0  0.27999  0.68534  0.30679  1.0000
  H   H14       1.0  0.77270  0.80647  0.69394  1.0000
  H   H15       1.0  0.72729  0.30643  0.69392  1.0000
  H   H16       1.0  0.22026  0.18532  0.30678  1.0000
  H   H17       1.0  0.27570  0.72277  0.16959  1.0000
  H   H18       1.0  0.78480  0.77377  0.83234  1.0000
  H   H19       1.0  0.71516  0.27383  0.83236  1.0000
  H   H20       1.0  0.22441  0.22275  0.16955  1.0000
  H   H21       1.0  0.43511  0.71704  0.23990  1.0000
  H   H22       1.0  0.93562  0.78093  0.75074  1.0000
  H   H23       1.0  0.56433  0.28096  0.75070  1.0000
  H   H24       1.0  0.06506  0.21702  0.23998  1.0000
  H   H25       1.0  0.14567  0.49150  0.23258  1.0000
  H   H26       1.0  0.63531  0.99646  0.77615  1.0000
  H   H27       1.0  0.86479  0.49633  0.77612  1.0000
  H   H28       1.0  0.35459  0.99149  0.23247  1.0000
  H   H29       1.0  0.20343  0.39082  0.11024  1.0000
  H   H30       1.0  0.70450  0.10499  0.88863  1.0000
  H   H31       1.0  0.79563  0.60495  0.88855  1.0000
  H   H32       1.0  0.29671  0.89081  0.11013  1.0000
  H   H33       1.0  0.13995  0.53716  0.10085  1.0000
  H   H34       1.0  0.65306  0.96052  0.91381  1.0000
  H   H35       1.0  0.84686  0.46044  0.91379  1.0000
  H   H36       1.0  0.36010  0.03718  0.10072  1.0000
  H   H37       1.0  0.62096  0.23014  0.35234  1.0000
  H   H38       1.0  0.11781  0.27476  0.64596  1.0000
  H   H39       1.0  0.38223  0.77472  0.64593  1.0000
  H   H40       1.0  0.87888  0.73025  0.35210  1.0000
  H   H41       1.0  0.62413  0.34872  0.47770  1.0000
  H   H42       1.0  0.12193  0.14951  0.52925  1.0000
  H   H43       1.0  0.37806  0.64949  0.52925  1.0000
  H   H44       1.0  0.87552  0.84906  0.47735  1.0000
  H   H45       1.0  0.84669  0.16434  0.38588  1.0000
  H   H46       1.0  0.34997  0.33412  0.60856  1.0000
  H   H47       1.0  0.15008  0.83417  0.60860  1.0000
  H   H48       1.0  0.65317  0.66440  0.38559  1.0000
  H   H49       1.0  0.79168  0.20293  0.52882  1.0000
  H   H50       1.0  0.29029  0.28804  0.46741  1.0000
  H   H51       1.0  0.20974  0.78805  0.46740  1.0000
  H   H52       1.0  0.70809  0.70319  0.52854  1.0000
  H   H53       1.0  0.92401  0.38533  0.56088  1.0000
  H   H54       1.0  0.40670  0.09728  0.44571  1.0000
  H   H55       1.0  0.09332  0.59729  0.44579  1.0000
  H   H56       1.0  0.57573  0.88557  0.56039  1.0000
  H   H57       1.0  0.01680  0.31512  0.43993  1.0000
  H   H58       1.0  0.51558  0.17887  0.55008  1.0000
  H   H59       1.0  0.98446  0.67890  0.55005  1.0000
  H   H60       1.0  0.48288  0.81507  0.43957  1.0000
  H   H61       1.0  0.81455  0.51853  0.46268  1.0000
  H   H62       1.0  0.32940  0.97933  0.57400  1.0000
  H   H63       1.0  0.17047  0.47935  0.57413  1.0000
  H   H64       1.0  0.68475  0.01871  0.46180  1.0000
  H   H65       1.0  0.92242  0.46930  0.34403  1.0000
  H   H66       1.0  0.43164  0.06379  0.68423  1.0000
  H   H67       1.0  0.06831  0.56396  0.68436  1.0000
  H   H68       1.0  0.57700  0.96891  0.34322  1.0000
  C   C1        1.0  0.34434  0.53912  0.17434  1.0000
  C   C2        1.0  0.84341  0.95780  0.81836  1.0000
  C   C3        1.0  0.65659  0.45782  0.81827  1.0000
  C   C4        1.0  0.15586  0.03909  0.17435  1.0000
  C   C5        1.0  0.42470  0.47196  0.25340  1.0000
  C   C6        1.0  0.90617  0.02448  0.72987  1.0000
  C   C7        1.0  0.59385  0.52454  0.72980  1.0000
  C   C8        1.0  0.07558  0.97190  0.25344  1.0000
  C   C9        1.0  0.33374  0.67463  0.22550  1.0000
  C   C10       1.0  0.83433  0.82130  0.77148  1.0000
  C   C11       1.0  0.66564  0.32131  0.77144  1.0000
  C   C12       1.0  0.16644  0.17461  0.22550  1.0000
  C   C13       1.0  0.20091  0.48631  0.15253  1.0000
  C   C14       1.0  0.70048  0.00785  0.85174  1.0000
  C   C15       1.0  0.79954  0.50780  0.85168  1.0000
  C   C16       1.0  0.29928  0.98628  0.15247  1.0000
  C   C17       1.0  0.68516  0.29589  0.40801  1.0000
  C   C18       1.0  0.18397  0.20614  0.59573  1.0000
  C   C19       1.0  0.31604  0.70610  0.59574  1.0000
  C   C20       1.0  0.81460  0.79606  0.40766  1.0000
  C   C21       1.0  0.81130  0.23932  0.45174  1.0000
  C   C22       1.0  0.31024  0.25710  0.54712  1.0000
  C   C23       1.0  0.18978  0.75711  0.54714  1.0000
  C   C24       1.0  0.68845  0.73949  0.45142  1.0000
  C   C25       1.0  0.91478  0.34521  0.47077  1.0000
  C   C26       1.0  0.40993  0.14902  0.53249  1.0000
  C   C27       1.0  0.09007  0.64905  0.53252  1.0000
  C   C28       1.0  0.58490  0.84526  0.47030  1.0000
  C   C29       1.0  0.85371  0.43796  0.40460  1.0000
  C   C30       1.0  0.35807  0.07137  0.61698  1.0000
  C   C31       1.0  0.14186  0.57144  0.61704  1.0000
  C   C32       1.0  0.64583  0.93789  0.40390  1.0000
  S   S1        1.0  0.52563  0.75998  0.97594  1.0000
  S   S2        1.0  0.05241  0.74391  0.98901  1.0000
  S   S3        1.0  0.44769  0.24398  0.98904  1.0000
  S   S4        1.0  0.97438  0.25996  0.97593  1.0000
  N   N1        1.0  0.41476  0.52889  0.06365  1.0000
  N   N2        1.0  0.92840  0.97814  0.92187  1.0000
  N   N3        1.0  0.57164  0.47819  0.92180  1.0000
  N   N4        1.0  0.08537  0.02884  0.06368  1.0000
  Cl  Cl1       1.0  0.85915  0.58067  0.17046  1.0000
  Cl  Cl2       1.0  0.23360  0.91863  0.84035  1.0000
  Cl  Cl3       1.0  0.26662  0.41854  0.84033  1.0000
  Cl  Cl4       1.0  0.64137  0.08146  0.17007  1.0000
  O   O1        1.0  0.74104  0.37739  0.34032  1.0000
  O   O2        1.0  0.23826  0.13206  0.67114  1.0000
  O   O3        1.0  0.26180  0.63210  0.67113  1.0000
  O   O4        1.0  0.75865  0.87734  0.33980  1.0000
