data_image0
_chemical_formula_structural       Ag8H20C20S4N12O24
_chemical_formula_sum              "Ag8 H20 C20 S4 N12 O24"
_cell_length_a       8.21204
_cell_length_b       11.1258
_cell_length_c       12.1143
_cell_angle_alpha    117.323
_cell_angle_beta     90
_cell_angle_gamma    90

_space_group_name_H-M_alt    "P 1"
_space_group_IT_number       1

loop_
  _space_group_symop_operation_xyz
  'x, y, z'

loop_
  _atom_site_type_symbol
  _atom_site_label
  _atom_site_symmetry_multiplicity
  _atom_site_fract_x
  _atom_site_fract_y
  _atom_site_fract_z
  _atom_site_occupancy
  Ag  Ag1       1.0  0.12833  0.30700  0.25216  1.0000
  Ag  Ag2       1.0  0.37168  0.80700  0.75216  1.0000
  Ag  Ag3       1.0  0.87167  0.69300  0.74783  1.0000
  Ag  Ag4       1.0  0.62833  0.19300  0.24784  1.0000
  Ag  Ag5       1.0  0.15612  0.06003  0.01366  1.0000
  Ag  Ag6       1.0  0.34388  0.56003  0.51366  1.0000
  Ag  Ag7       1.0  0.84388  0.93997  0.98634  1.0000
  Ag  Ag8       1.0  0.65613  0.43997  0.48634  1.0000
  H   H1        1.0  0.22901  0.07093  0.28312  1.0000
  H   H2        1.0  0.27099  0.57094  0.78312  1.0000
  H   H3        1.0  0.77099  0.92906  0.71688  1.0000
  H   H4        1.0  0.72901  0.42907  0.21688  1.0000
  H   H5        1.0  0.09704  0.78737  0.40438  1.0000
  H   H6        1.0  0.40296  0.28737  0.90438  1.0000
  H   H7        1.0  0.90295  0.21263  0.59562  1.0000
  H   H8        1.0  0.59705  0.71263  0.09562  1.0000
  H   H9        1.0  0.72382  0.96079  0.29083  1.0000
  H   H10       1.0  0.77618  0.46079  0.79083  1.0000
  H   H11       1.0  0.27618  0.03921  0.70917  1.0000
  H   H12       1.0  0.22383  0.53921  0.20917  1.0000
  H   H13       1.0  0.81979  0.81192  0.38237  1.0000
  H   H14       1.0  0.68021  0.31192  0.88237  1.0000
  H   H15       1.0  0.18021  0.18808  0.61763  1.0000
  H   H16       1.0  0.31979  0.68808  0.11763  1.0000
  H   H17       1.0  0.30519  0.91360  0.36915  1.0000
  H   H18       1.0  0.19481  0.41360  0.86915  1.0000
  H   H19       1.0  0.69481  0.08640  0.63085  1.0000
  H   H20       1.0  0.80519  0.58640  0.13085  1.0000
  C   C1        1.0  0.13484  0.01277  0.30004  1.0000
  C   C2        1.0  0.36516  0.51277  0.80004  1.0000
  C   C3        1.0  0.86516  0.98723  0.69995  1.0000
  C   C4        1.0  0.63484  0.48723  0.19996  1.0000
  C   C5        1.0  0.85312  0.95308  0.30626  1.0000
  C   C6        1.0  0.64688  0.45308  0.80627  1.0000
  C   C7        1.0  0.14688  0.04691  0.69373  1.0000
  C   C8        1.0  0.35312  0.54692  0.19374  1.0000
  C   C9        1.0  0.90397  0.86933  0.35535  1.0000
  C   C10       1.0  0.59603  0.36933  0.85535  1.0000
  C   C11       1.0  0.09603  0.13067  0.64465  1.0000
  C   C12       1.0  0.40397  0.63067  0.14465  1.0000
  C   C13       1.0  0.97030  0.02410  0.27444  1.0000
  C   C14       1.0  0.52970  0.52410  0.77444  1.0000
  C   C15       1.0  0.02970  0.97590  0.72556  1.0000
  C   C16       1.0  0.47030  0.47590  0.22556  1.0000
  C   C17       1.0  0.17933  0.92739  0.34886  1.0000
  C   C18       1.0  0.32066  0.42740  0.84886  1.0000
  C   C19       1.0  0.82066  0.07260  0.65114  1.0000
  C   C20       1.0  0.67934  0.57260  0.15114  1.0000
  S   S1        1.0  0.91501  0.12420  0.20270  1.0000
  S   S2        1.0  0.58499  0.62420  0.70271  1.0000
  S   S3        1.0  0.08499  0.87580  0.79729  1.0000
  S   S4        1.0  0.41501  0.37580  0.29729  1.0000
  N   N1        1.0  0.06386  0.85696  0.37391  1.0000
  N   N2        1.0  0.43614  0.35697  0.87391  1.0000
  N   N3        1.0  0.93614  0.14303  0.62609  1.0000
  N   N4        1.0  0.56386  0.64303  0.12609  1.0000
  N   N5        1.0  0.02795  0.32911  0.00567  1.0000
  N   N6        1.0  0.47205  0.82911  0.50567  1.0000
  N   N7        1.0  0.97205  0.67089  0.99433  1.0000
  N   N8        1.0  0.52795  0.17089  0.49433  1.0000
  N   N9        1.0  0.92542  0.58189  0.42066  1.0000
  N   N10       1.0  0.57458  0.08189  0.92066  1.0000
  N   N11       1.0  0.07458  0.41811  0.57935  1.0000
  N   N12       1.0  0.42542  0.91811  0.07934  1.0000
  O   O1        1.0  0.15988  0.25880  0.97825  1.0000
  O   O2        1.0  0.34012  0.75880  0.47825  1.0000
  O   O3        1.0  0.84012  0.74120  0.02175  1.0000
  O   O4        1.0  0.65988  0.24120  0.52175  1.0000
  O   O5        1.0  0.95838  0.35137  0.92495  1.0000
  O   O6        1.0  0.54163  0.85137  0.42495  1.0000
  O   O7        1.0  0.04163  0.64863  0.07505  1.0000
  O   O8        1.0  0.45837  0.14863  0.57505  1.0000
  O   O9        1.0  0.97206  0.37630  0.11541  1.0000
  O   O10       1.0  0.52793  0.87630  0.61541  1.0000
  O   O11       1.0  0.02794  0.62370  0.88459  1.0000
  O   O12       1.0  0.47206  0.12370  0.38459  1.0000
  O   O13       1.0  0.89712  0.45579  0.38918  1.0000
  O   O14       1.0  0.60288  0.95579  0.88918  1.0000
  O   O15       1.0  0.10288  0.54421  0.61082  1.0000
  O   O16       1.0  0.39712  0.04421  0.11082  1.0000
  O   O17       1.0  0.82241  0.66993  0.48362  1.0000
  O   O18       1.0  0.67759  0.16993  0.98362  1.0000
  O   O19       1.0  0.17760  0.33008  0.51638  1.0000
  O   O20       1.0  0.32241  0.83007  0.01638  1.0000
  O   O21       1.0  0.05791  0.61143  0.38648  1.0000
  O   O22       1.0  0.44209  0.11143  0.88648  1.0000
  O   O23       1.0  0.94209  0.38857  0.61352  1.0000
  O   O24       1.0  0.55791  0.88857  0.11352  1.0000
