data_image0
_chemical_formula_structural       Cu6H34C60N6O26
_chemical_formula_sum              "Cu6 H34 C60 N6 O26"
_cell_length_a       10.1445
_cell_length_b       10.8627
_cell_length_c       13.7264
_cell_angle_alpha    91.3
_cell_angle_beta     90.466
_cell_angle_gamma    112.307

_space_group_name_H-M_alt    "P 1"
_space_group_IT_number       1

loop_
  _space_group_symop_operation_xyz
  'x, y, z'

loop_
  _atom_site_type_symbol
  _atom_site_label
  _atom_site_symmetry_multiplicity
  _atom_site_fract_x
  _atom_site_fract_y
  _atom_site_fract_z
  _atom_site_occupancy
  Cu  Cu1       1.0  0.85004  0.44326  0.50665  1.0000
  Cu  Cu2       1.0  0.14999  0.55679  0.49338  1.0000
  Cu  Cu3       1.0  0.87148  0.11950  0.18844  1.0000
  Cu  Cu4       1.0  0.12745  0.88027  0.81131  1.0000
  Cu  Cu5       1.0  0.18419  0.23883  0.15338  1.0000
  Cu  Cu6       1.0  0.81582  0.76118  0.84681  1.0000
  H   H1        1.0  0.39500  0.25443  0.26577  1.0000
  H   H2        1.0  0.60605  0.74584  0.73378  1.0000
  H   H3        1.0  0.44119  0.20009  0.16915  1.0000
  H   H4        1.0  0.55993  0.79934  0.83099  1.0000
  H   H5        1.0  0.62568  0.53062  0.56704  1.0000
  H   H6        1.0  0.37424  0.46948  0.43309  1.0000
  H   H7        1.0  0.45252  0.48557  0.70208  1.0000
  H   H8        1.0  0.54748  0.51458  0.29805  1.0000
  H   H9        1.0  0.63393  0.21311  0.81388  1.0000
  H   H10       1.0  0.36594  0.78676  0.18608  1.0000
  H   H11       1.0  0.79019  0.26155  0.66913  1.0000
  H   H12       1.0  0.20957  0.73840  0.33080  1.0000
  H   H13       1.0  0.41492  0.51254  0.86061  1.0000
  H   H14       1.0  0.58480  0.48740  0.13959  1.0000
  H   H15       1.0  0.26420  0.45899  0.00934  1.0000
  H   H16       1.0  0.73555  0.54078  0.99081  1.0000
  H   H17       1.0  0.27881  0.08406  0.02248  1.0000
  H   H18       1.0  0.72110  0.91586  0.97757  1.0000
  H   H19       1.0  0.42863  0.11909  0.87815  1.0000
  H   H20       1.0  0.57114  0.88076  0.12190  1.0000
  H   H21       1.0  0.87346  0.74628  0.28409  1.0000
  H   H22       1.0  0.12659  0.25404  0.71610  1.0000
  H   H23       1.0  0.14316  0.59399  0.04328  1.0000
  H   H24       1.0  0.85673  0.40608  0.95689  1.0000
  H   H25       1.0  0.69047  0.24154  0.28148  1.0000
  H   H26       1.0  0.30918  0.75819  0.71852  1.0000
  H   H27       1.0  0.52178  0.19609  0.41557  1.0000
  H   H28       1.0  0.47827  0.80344  0.58456  1.0000
  H   H29       1.0  0.61092  0.84375  0.47206  1.0000
  H   H30       1.0  0.38960  0.15589  0.52769  1.0000
  H   H31       1.0  0.77381  0.90343  0.33256  1.0000
  H   H32       1.0  0.22647  0.09658  0.66704  1.0000
  H   H33       1.0  0.15225  0.93100  0.38908  1.0000
  H   H34       1.0  0.84774  0.06902  0.61068  1.0000
  C   C1        1.0  0.62100  0.45885  0.62239  1.0000
  C   C2        1.0  0.37893  0.54125  0.37773  1.0000
  C   C3        1.0  0.52739  0.43545  0.69932  1.0000
  C   C4        1.0  0.47257  0.56467  0.30081  1.0000
  C   C5        1.0  0.52936  0.34577  0.77076  1.0000
  C   C6        1.0  0.47052  0.65422  0.22931  1.0000
  C   C7        1.0  0.62465  0.28094  0.75946  1.0000
  C   C8        1.0  0.37522  0.71904  0.24057  1.0000
  C   C9        1.0  0.71374  0.30848  0.68013  1.0000
  C   C10       1.0  0.28607  0.69150  0.31988  1.0000
  C   C11       1.0  0.43602  0.32019  0.85590  1.0000
  C   C12       1.0  0.56378  0.67973  0.14414  1.0000
  C   C13       1.0  0.38578  0.41543  0.89345  1.0000
  C   C14       1.0  0.61402  0.58447  0.10667  1.0000
  C   C15       1.0  0.30238  0.38703  0.97617  1.0000
  C   C16       1.0  0.69741  0.61280  0.02396  1.0000
  C   C17       1.0  0.31167  0.17749  0.98475  1.0000
  C   C18       1.0  0.68813  0.82239  0.01530  1.0000
  C   C19       1.0  0.39625  0.19894  0.90338  1.0000
  C   C20       1.0  0.60352  0.80094  0.09664  1.0000
  C   C21       1.0  0.92952  0.58331  0.23547  1.0000
  C   C22       1.0  0.07002  0.41668  0.76453  1.0000
  C   C23       1.0  0.93229  0.71252  0.23086  1.0000
  C   C24       1.0  0.06743  0.28759  0.76919  1.0000
  C   C25       1.0  0.01169  0.80043  0.16087  1.0000
  C   C26       1.0  0.98815  0.19968  0.83923  1.0000
  C   C27       1.0  0.08596  0.75607  0.09132  1.0000
  C   C28       1.0  0.91384  0.24396  0.90881  1.0000
  C   C29       1.0  0.08390  0.62719  0.09654  1.0000
  C   C30       1.0  0.91592  0.37284  0.90363  1.0000
  C   C31       1.0  0.00819  0.54080  0.16837  1.0000
  C   C32       1.0  0.99137  0.45916  0.83168  1.0000
  C   C33       1.0  0.85477  0.50278  0.32008  1.0000
  C   C34       1.0  0.14507  0.49731  0.68003  1.0000
  C   C35       1.0  0.01780  0.94074  0.16467  1.0000
  C   C36       1.0  0.98210  0.05944  0.83533  1.0000
  C   C37       1.0  0.15941  0.83411  0.00464  1.0000
  C   C38       1.0  0.84067  0.16609  0.99563  1.0000
  C   C39       1.0  0.01402  0.40514  0.17200  1.0000
  C   C40       1.0  0.98562  0.59480  0.82788  1.0000
  C   C41       1.0  0.66844  0.15344  0.32477  1.0000
  C   C42       1.0  0.33154  0.84635  0.67523  1.0000
  C   C43       1.0  0.57428  0.12711  0.40154  1.0000
  C   C44       1.0  0.42578  0.87244  0.59851  1.0000
  C   C45       1.0  0.54882  0.01441  0.45808  1.0000
  C   C46       1.0  0.45139  0.98509  0.54193  1.0000
  C   C47       1.0  0.62158  0.93175  0.43137  1.0000
  C   C48       1.0  0.37873  0.06790  0.56846  1.0000
  C   C49       1.0  0.71470  0.96466  0.35393  1.0000
  C   C50       1.0  0.28556  0.03522  0.64587  1.0000
  C   C51       1.0  0.99795  0.73267  0.50279  1.0000
  C   C52       1.0  0.00222  0.26745  0.49713  1.0000
  C   C53       1.0  0.99765  0.87036  0.50257  1.0000
  C   C54       1.0  0.00255  0.12980  0.49733  1.0000
  C   C55       1.0  0.08507  0.96166  0.43746  1.0000
  C   C56       1.0  0.91510  0.03850  0.56241  1.0000
  C   C57       1.0  0.91187  0.90914  0.56596  1.0000
  C   C58       1.0  0.08841  0.09110  0.43392  1.0000
  C   C59       1.0  0.81822  0.82023  0.64105  1.0000
  C   C60       1.0  0.18208  0.18009  0.35874  1.0000
  N   N1        1.0  0.71298  0.39673  0.61301  1.0000
  N   N2        1.0  0.28684  0.60326  0.38700  1.0000
  N   N3        1.0  0.26634  0.27022  0.02128  1.0000
  N   N4        1.0  0.73339  0.72959  0.97884  1.0000
  N   N5        1.0  0.73915  0.07418  0.30120  1.0000
  N   N6        1.0  0.26101  0.92579  0.69873  1.0000
  O   O1        1.0  0.93985  0.47532  0.37946  1.0000
  O   O2        1.0  0.06027  0.52497  0.62054  1.0000
  O   O3        1.0  0.72585  0.47529  0.33458  1.0000
  O   O4        1.0  0.27404  0.52471  0.66578  1.0000
  O   O5        1.0  0.42073  0.27481  0.19545  1.0000
  O   O6        1.0  0.58090  0.72513  0.80423  1.0000
  O   O7        1.0  0.90352  0.95270  0.19375  1.0000
  O   O8        1.0  0.09618  0.04729  0.80604  1.0000
  O   O9        1.0  0.13432  0.03261  0.14276  1.0000
  O   O10       1.0  0.86559  0.96740  0.85712  1.0000
  O   O11       1.0  0.07118  0.86116  0.94763  1.0000
  O   O12       1.0  0.92923  0.13926  0.05253  1.0000
  O   O13       1.0  0.28731  0.85801  0.98952  1.0000
  O   O14       1.0  0.71289  0.14228  0.01112  1.0000
  O   O15       1.0  0.13379  0.39979  0.15091  1.0000
  O   O16       1.0  0.86597  0.60058  0.84883  1.0000
  O   O17       1.0  0.89871  0.31020  0.19383  1.0000
  O   O18       1.0  0.10076  0.68972  0.80585  1.0000
  O   O19       1.0  0.87930  0.63794  0.51689  1.0000
  O   O20       1.0  0.12089  0.36218  0.48308  1.0000
  O   O21       1.0  0.11869  0.72559  0.48644  1.0000
  O   O22       1.0  0.88151  0.27455  0.51352  1.0000
  O   O23       1.0  0.88461  0.79226  0.71208  1.0000
  O   O24       1.0  0.11550  0.20801  0.28778  1.0000
  O   O25       1.0  0.68584  0.78822  0.63207  1.0000
  O   O26       1.0  0.31450  0.21229  0.36779  1.0000
