data_image0
_chemical_formula_structural       Fe2H12C20N8O16
_chemical_formula_sum              "Fe2 H12 C20 N8 O16"
_cell_length_a       6.96977
_cell_length_b       11.1365
_cell_length_c       11.5632
_cell_angle_alpha    89.9999
_cell_angle_beta     89.9996
_cell_angle_gamma    100.637

_space_group_name_H-M_alt    "P 1"
_space_group_IT_number       1

loop_
  _space_group_symop_operation_xyz
  'x, y, z'

loop_
  _atom_site_type_symbol
  _atom_site_label
  _atom_site_symmetry_multiplicity
  _atom_site_fract_x
  _atom_site_fract_y
  _atom_site_fract_z
  _atom_site_occupancy
  Fe  Fe1       1.0  1.00000  1.00000  1.00000  1.0000
  Fe  Fe2       1.0  0.50000  0.50000  0.50000  1.0000
  H   H1        1.0  0.50210  0.19421  0.81356  1.0000
  H   H2        1.0  0.00209  0.69420  0.68644  1.0000
  H   H3        1.0  0.49790  0.80579  0.18644  1.0000
  H   H4        1.0  0.99791  0.30580  0.31356  1.0000
  H   H5        1.0  0.90962  0.28468  0.73285  1.0000
  H   H6        1.0  0.40963  0.78468  0.76715  1.0000
  H   H7        1.0  0.09038  0.71532  0.26715  1.0000
  H   H8        1.0  0.59037  0.21532  0.23285  1.0000
  H   H9        1.0  0.00797  0.44458  0.58110  1.0000
  H   H10       1.0  0.50797  0.94459  0.91889  1.0000
  H   H11       1.0  0.99203  0.55542  0.41890  1.0000
  H   H12       1.0  0.49203  0.05541  0.08111  1.0000
  C   C1        1.0  0.11080  0.39748  0.62370  1.0000
  C   C2        1.0  0.61080  0.89749  0.87630  1.0000
  C   C3        1.0  0.88920  0.60251  0.37630  1.0000
  C   C4        1.0  0.38920  0.10251  0.12370  1.0000
  C   C5        1.0  0.21677  0.26967  0.74428  1.0000
  C   C6        1.0  0.71677  0.76967  0.75573  1.0000
  C   C7        1.0  0.78323  0.73033  0.25572  1.0000
  C   C8        1.0  0.28323  0.23034  0.24427  1.0000
  C   C9        1.0  0.37121  0.33123  0.67815  1.0000
  C   C10       1.0  0.87121  0.83123  0.82185  1.0000
  C   C11       1.0  0.62879  0.66877  0.32185  1.0000
  C   C12       1.0  0.12879  0.16877  0.17815  1.0000
  C   C13       1.0  0.21461  0.17723  0.83357  1.0000
  C   C14       1.0  0.71460  0.67723  0.66643  1.0000
  C   C15       1.0  0.78539  0.82277  0.16643  1.0000
  C   C16       1.0  0.28540  0.32277  0.33357  1.0000
  C   C17       1.0  0.57953  0.32642  0.67096  1.0000
  C   C18       1.0  0.07953  0.82641  0.82904  1.0000
  C   C19       1.0  0.42047  0.67358  0.32904  1.0000
  C   C20       1.0  0.92047  0.17359  0.17096  1.0000
  N   N1        1.0  0.30225  0.40993  0.60352  1.0000
  N   N2        1.0  0.80225  0.90993  0.89648  1.0000
  N   N3        1.0  0.69775  0.59007  0.39648  1.0000
  N   N4        1.0  0.19775  0.09007  0.10352  1.0000
  N   N5        1.0  0.05503  0.31347  0.70744  1.0000
  N   N6        1.0  0.55503  0.81346  0.79256  1.0000
  N   N7        1.0  0.94497  0.68653  0.29257  1.0000
  N   N8        1.0  0.44497  0.18653  0.20743  1.0000
  O   O1        1.0  0.05433  0.13084  0.87956  1.0000
  O   O2        1.0  0.55434  0.63084  0.62045  1.0000
  O   O3        1.0  0.94567  0.86916  0.12044  1.0000
  O   O4        1.0  0.44567  0.36916  0.37955  1.0000
  O   O5        1.0  0.38125  0.14630  0.86232  1.0000
  O   O6        1.0  0.88125  0.64630  0.63769  1.0000
  O   O7        1.0  0.61875  0.85370  0.13769  1.0000
  O   O8        1.0  0.11876  0.35371  0.36231  1.0000
  O   O9        1.0  0.67494  0.39167  0.59218  1.0000
  O   O10       1.0  0.17494  0.89168  0.90782  1.0000
  O   O11       1.0  0.32506  0.60833  0.40783  1.0000
  O   O12       1.0  0.82506  0.10832  0.09218  1.0000
  O   O13       1.0  0.65482  0.25934  0.74213  1.0000
  O   O14       1.0  0.15482  0.75933  0.75787  1.0000
  O   O15       1.0  0.34518  0.74066  0.25787  1.0000
  O   O16       1.0  0.84518  0.24067  0.24213  1.0000
