data_image0
_chemical_formula_structural       Gd2H20C18S6N6O16
_chemical_formula_sum              "Gd2 H20 C18 S6 N6 O16"
_cell_length_a       8.51954
_cell_length_b       8.69349
_cell_length_c       11.3594
_cell_angle_alpha    104.879
_cell_angle_beta     96.7239
_cell_angle_gamma    94.4751

_space_group_name_H-M_alt    "P 1"
_space_group_IT_number       1

loop_
  _space_group_symop_operation_xyz
  'x, y, z'

loop_
  _atom_site_type_symbol
  _atom_site_label
  _atom_site_symmetry_multiplicity
  _atom_site_fract_x
  _atom_site_fract_y
  _atom_site_fract_z
  _atom_site_occupancy
  Gd  Gd1       1.0  0.95674  0.83633  0.58748  1.0000
  Gd  Gd2       1.0  0.04326  0.16366  0.41252  1.0000
  H   H1        1.0  0.13317  0.27763  0.06334  1.0000
  H   H2        1.0  0.86681  0.72238  0.93666  1.0000
  H   H3        1.0  0.09469  0.07105  0.98272  1.0000
  H   H4        1.0  0.90531  0.92896  0.01728  1.0000
  H   H5        1.0  0.51895  0.91780  0.22592  1.0000
  H   H6        1.0  0.48105  0.08220  0.77408  1.0000
  H   H7        1.0  0.44427  0.01215  0.36145  1.0000
  H   H8        1.0  0.55574  0.98786  0.63855  1.0000
  H   H9        1.0  0.06756  0.74241  0.15948  1.0000
  H   H10       1.0  0.93244  0.25759  0.84050  1.0000
  H   H11       1.0  0.87041  0.79516  0.16750  1.0000
  H   H12       1.0  0.12959  0.20484  0.83249  1.0000
  H   H13       1.0  0.80014  0.49136  0.54419  1.0000
  H   H14       1.0  0.19985  0.50864  0.45580  1.0000
  H   H15       1.0  0.73841  0.58804  0.66830  1.0000
  H   H16       1.0  0.26160  0.41196  0.33170  1.0000
  H   H17       1.0  0.13000  0.55521  0.63835  1.0000
  H   H18       1.0  0.87001  0.44478  0.36163  1.0000
  H   H19       1.0  0.24440  0.72058  0.65729  1.0000
  H   H20       1.0  0.75561  0.27941  0.34270  1.0000
  C   C1        1.0  0.16413  0.15728  0.06358  1.0000
  C   C2        1.0  0.83587  0.84273  0.93642  1.0000
  C   C3        1.0  0.51215  0.91399  0.32096  1.0000
  C   C4        1.0  0.48785  0.08602  0.67905  1.0000
  C   C5        1.0  0.11936  0.12182  0.17948  1.0000
  C   C6        1.0  0.88064  0.87818  0.82052  1.0000
  C   C7        1.0  0.67972  0.94354  0.39215  1.0000
  C   C8        1.0  0.32031  0.05647  0.60786  1.0000
  C   C9        1.0  0.48104  0.58593  0.23023  1.0000
  C   C10       1.0  0.51895  0.41408  0.76979  1.0000
  C   C11       1.0  0.97870  0.74369  0.32776  1.0000
  C   C12       1.0  0.02130  0.25631  0.67224  1.0000
  C   C13       1.0  0.46314  0.32762  0.11705  1.0000
  C   C14       1.0  0.53685  0.67240  0.88296  1.0000
  C   C15       1.0  0.95360  0.71281  0.18955  1.0000
  C   C16       1.0  0.04640  0.28720  0.81043  1.0000
  C   C17       1.0  0.68682  0.49457  0.13646  1.0000
  C   C18       1.0  0.31318  0.50544  0.86356  1.0000
  S   S1        1.0  0.88225  0.51036  0.10489  1.0000
  S   S2        1.0  0.11774  0.48963  0.89511  1.0000
  S   S3        1.0  0.38769  0.73593  0.31909  1.0000
  S   S4        1.0  0.61229  0.26408  0.68091  1.0000
  S   S5        1.0  0.36573  0.14027  0.03747  1.0000
  S   S6        1.0  0.63427  0.85975  0.96253  1.0000
  N   N1        1.0  0.61073  0.34731  0.08786  1.0000
  N   N2        1.0  0.38927  0.65269  0.91215  1.0000
  N   N3        1.0  0.62560  0.62143  0.20190  1.0000
  N   N4        1.0  0.37441  0.37858  0.79811  1.0000
  N   N5        1.0  0.39593  0.43876  0.19551  1.0000
  N   N6        1.0  0.60407  0.56125  0.80450  1.0000
  O   O1        1.0  0.22280  0.09691  0.26034  1.0000
  O   O2        1.0  0.77720  0.90308  0.73966  1.0000
  O   O3        1.0  0.97263  0.12493  0.19402  1.0000
  O   O4        1.0  0.02737  0.87507  0.80599  1.0000
  O   O5        1.0  0.71751  0.86755  0.47053  1.0000
  O   O6        1.0  0.28247  0.13244  0.52948  1.0000
  O   O7        1.0  0.76933  0.05073  0.36597  1.0000
  O   O8        1.0  0.23067  0.94925  0.63402  1.0000
  O   O9        1.0  0.94279  0.63850  0.38175  1.0000
  O   O10       1.0  0.05720  0.36150  0.61823  1.0000
  O   O11       1.0  0.03484  0.88561  0.39121  1.0000
  O   O12       1.0  0.96518  0.11438  0.60879  1.0000
  O   O13       1.0  0.15909  0.64499  0.60253  1.0000
  O   O14       1.0  0.84090  0.35499  0.39745  1.0000
  O   O15       1.0  0.80480  0.59661  0.60430  1.0000
  O   O16       1.0  0.19521  0.40338  0.39570  1.0000
