data_image0
_chemical_formula_structural       Mn2H38C56N4O12
_chemical_formula_sum              "Mn2 H38 C56 N4 O12"
_cell_length_a       9.33547
_cell_length_b       11.0111
_cell_length_c       11.3995
_cell_angle_alpha    90.001
_cell_angle_beta     90.0418
_cell_angle_gamma    107.391

_space_group_name_H-M_alt    "P 1"
_space_group_IT_number       1

loop_
  _space_group_symop_operation_xyz
  'x, y, z'

loop_
  _atom_site_type_symbol
  _atom_site_label
  _atom_site_symmetry_multiplicity
  _atom_site_fract_x
  _atom_site_fract_y
  _atom_site_fract_z
  _atom_site_occupancy
  Mn  Mn1       1.0  0.49185  0.00050  0.00207  1.0000
  Mn  Mn2       1.0  0.49156  0.50074  0.49798  1.0000
  H   H1        1.0  0.74753  0.38991  0.89940  1.0000
  H   H2        1.0  0.25113  0.10924  0.39862  1.0000
  H   H3        1.0  0.25017  0.60929  0.10143  1.0000
  H   H4        1.0  0.74741  0.89032  0.60064  1.0000
  H   H5        1.0  0.90054  0.56506  0.02507  1.0000
  H   H6        1.0  0.10047  0.93399  0.52516  1.0000
  H   H7        1.0  0.09979  0.43391  0.97468  1.0000
  H   H8        1.0  0.90074  0.06512  0.47496  1.0000
  H   H9        1.0  0.89828  0.54041  0.24380  1.0000
  H   H10       1.0  0.10474  0.95936  0.74375  1.0000
  H   H11       1.0  0.10523  0.45884  0.75604  1.0000
  H   H12       1.0  0.89866  0.04000  0.25625  1.0000
  H   H13       1.0  0.74223  0.34225  0.33398  1.0000
  H   H14       1.0  0.26054  0.15865  0.83308  1.0000
  H   H15       1.0  0.26144  0.65802  0.66701  1.0000
  H   H16       1.0  0.74242  0.84178  0.16607  1.0000
  H   H17       1.0  0.54577  0.14751  0.32019  1.0000
  H   H18       1.0  0.46079  0.35147  0.81714  1.0000
  H   H19       1.0  0.46083  0.85101  0.68314  1.0000
  H   H20       1.0  0.54557  0.64730  0.17978  1.0000
  H   H21       1.0  0.52434  0.93797  0.37953  1.0000
  H   H22       1.0  0.47321  0.56414  0.87535  1.0000
  H   H23       1.0  0.47195  0.06345  0.62499  1.0000
  H   H24       1.0  0.52399  0.43741  0.12096  1.0000
  H   H25       1.0  0.33198  0.77027  0.48835  1.0000
  H   H26       1.0  0.66504  0.72885  0.98754  1.0000
  H   H27       1.0  0.66294  0.22855  0.51273  1.0000
  H   H28       1.0  0.33164  0.26961  0.01200  1.0000
  H   H29       1.0  0.07140  0.68914  0.41018  1.0000
  H   H30       1.0  0.92755  0.80823  0.91339  1.0000
  H   H31       1.0  0.92571  0.30855  0.58654  1.0000
  H   H32       1.0  0.07093  0.18874  0.08970  1.0000
  H   H33       1.0  0.00576  0.77506  0.22184  1.0000
  H   H34       1.0  0.99486  0.72346  0.72560  1.0000
  H   H35       1.0  0.99413  0.22363  0.77402  1.0000
  H   H36       1.0  0.00524  0.27488  0.27780  1.0000
  H   H37       1.0  0.99852  0.00811  0.98589  1.0000
  H   H38       1.0  0.99820  0.50822  0.51355  1.0000
  C   C1        1.0  0.65939  0.26373  0.04407  1.0000
  C   C2        1.0  0.33891  0.23651  0.54268  1.0000
  C   C3        1.0  0.33867  0.73632  0.95745  1.0000
  C   C4        1.0  0.65907  0.76388  0.45605  1.0000
  C   C5        1.0  0.74818  0.37930  0.99444  1.0000
  C   C6        1.0  0.25113  0.12027  0.49366  1.0000
  C   C7        1.0  0.25057  0.62021  0.00640  1.0000
  C   C8        1.0  0.74804  0.87952  0.50559  1.0000
  C   C9        1.0  0.83314  0.47688  0.06550  1.0000
  C   C10       1.0  0.16755  0.02258  0.56526  1.0000
  C   C11       1.0  0.16711  0.52243  0.93472  1.0000
  C   C12       1.0  0.83318  0.97692  0.43450  1.0000
  C   C13       1.0  0.83225  0.46361  0.18821  1.0000
  C   C14       1.0  0.16947  0.03631  0.68786  1.0000
  C   C15       1.0  0.16955  0.53593  0.81211  1.0000
  C   C16       1.0  0.83236  0.96341  0.31182  1.0000
  C   C17       1.0  0.74613  0.35131  0.23874  1.0000
  C   C18       1.0  0.25512  0.14925  0.73783  1.0000
  C   C19       1.0  0.25546  0.64876  0.76222  1.0000
  C   C20       1.0  0.74613  0.85105  0.26134  1.0000
  C   C21       1.0  0.66092  0.24888  0.16909  1.0000
  C   C22       1.0  0.33837  0.25184  0.66764  1.0000
  C   C23       1.0  0.33844  0.75147  0.83245  1.0000
  C   C24       1.0  0.66067  0.74883  0.33107  1.0000
  C   C25       1.0  0.56327  0.14010  0.22577  1.0000
  C   C26       1.0  0.43772  0.36071  0.72371  1.0000
  C   C27       1.0  0.43763  0.86032  0.77646  1.0000
  C   C28       1.0  0.56289  0.64003  0.27433  1.0000
  C   C29       1.0  0.37505  0.94428  0.23744  1.0000
  C   C30       1.0  0.62343  0.55716  0.73461  1.0000
  C   C31       1.0  0.62287  0.05688  0.76545  1.0000
  C   C32       1.0  0.37458  0.44415  0.26267  1.0000
  C   C33       1.0  0.41047  0.90088  0.34562  1.0000
  C   C34       1.0  0.58761  0.60081  0.84261  1.0000
  C   C35       1.0  0.58649  0.10028  0.65749  1.0000
  C   C36       1.0  0.41008  0.40044  0.15470  1.0000
  C   C37       1.0  0.30198  0.80775  0.40656  1.0000
  C   C38       1.0  0.69580  0.69224  0.90562  1.0000
  C   C39       1.0  0.69424  0.19191  0.59445  1.0000
  C   C40       1.0  0.30161  0.30725  0.09365  1.0000
  C   C41       1.0  0.15637  0.76089  0.36189  1.0000
  C   C42       1.0  0.84244  0.73838  0.86323  1.0000
  C   C43       1.0  0.84101  0.23840  0.63671  1.0000
  C   C44       1.0  0.15591  0.26057  0.13797  1.0000
  C   C45       1.0  0.11969  0.80742  0.25617  1.0000
  C   C46       1.0  0.88000  0.69192  0.75794  1.0000
  C   C47       1.0  0.87916  0.19193  0.74186  1.0000
  C   C48       1.0  0.11922  0.30721  0.24360  1.0000
  C   C49       1.0  0.22848  0.89780  0.19151  1.0000
  C   C50       1.0  0.77186  0.60224  0.69161  1.0000
  C   C51       1.0  0.77146  0.10205  0.80824  1.0000
  C   C52       1.0  0.22801  0.39764  0.30838  1.0000
  C   C53       1.0  0.18197  0.94762  0.08071  1.0000
  C   C54       1.0  0.82141  0.55081  0.58354  1.0000
  C   C55       1.0  0.82144  0.05051  0.91613  1.0000
  C   C56       1.0  0.18143  0.44745  0.41915  1.0000
  N   N1        1.0  0.48466  0.03613  0.17162  1.0000
  N   N2        1.0  0.51166  0.46582  0.66937  1.0000
  N   N3        1.0  0.51146  0.96550  0.83082  1.0000
  N   N4        1.0  0.48416  0.53616  0.32851  1.0000
  O   O1        1.0  0.57106  0.17654  0.97458  1.0000
  O   O2        1.0  0.42649  0.32388  0.47267  1.0000
  O   O3        1.0  0.42632  0.82375  0.02746  1.0000
  O   O4        1.0  0.57053  0.67690  0.52557  1.0000
  O   O5        1.0  0.27581  0.99792  0.99808  1.0000
  O   O6        1.0  0.73763  0.50005  0.49939  1.0000
  O   O7        1.0  0.73802  0.99974  0.00038  1.0000
  O   O8        1.0  0.27526  0.49782  0.50190  1.0000
  O   O9        1.0  0.04358  0.93888  0.07143  1.0000
  O   O10       1.0  0.96494  0.56120  0.58331  1.0000
  O   O11       1.0  0.96496  0.06085  0.91603  1.0000
  O   O12       1.0  0.04300  0.43860  0.42820  1.0000
