data_image0
_chemical_formula_structural       La2H34C36N4O18
_chemical_formula_sum              "La2 H34 C36 N4 O18"
_cell_length_a       10.175
_cell_length_b       10.167
_cell_length_c       10.7165
_cell_angle_alpha    77.4954
_cell_angle_beta     89.0915
_cell_angle_gamma    65.8966

_space_group_name_H-M_alt    "P 1"
_space_group_IT_number       1

loop_
  _space_group_symop_operation_xyz
  'x, y, z'

loop_
  _atom_site_type_symbol
  _atom_site_label
  _atom_site_symmetry_multiplicity
  _atom_site_fract_x
  _atom_site_fract_y
  _atom_site_fract_z
  _atom_site_occupancy
  La  La1       1.0  0.97041  0.79424  0.99585  1.0000
  La  La2       1.0  0.02959  0.20576  0.00415  1.0000
  H   H1        1.0  0.47408  0.15525  0.03135  1.0000
  H   H2        1.0  0.52592  0.84475  0.96865  1.0000
  H   H3        1.0  0.33398  0.57378  0.13946  1.0000
  H   H4        1.0  0.66602  0.42621  0.86054  1.0000
  H   H5        1.0  0.77998  0.26626  0.21193  1.0000
  H   H6        1.0  0.22002  0.73374  0.78807  1.0000
  H   H7        1.0  0.55582  0.31285  0.42818  1.0000
  H   H8        1.0  0.44418  0.68715  0.57182  1.0000
  H   H9        1.0  0.68486  0.21610  0.64613  1.0000
  H   H10       1.0  0.31514  0.78389  0.35387  1.0000
  H   H11       1.0  0.89899  0.50912  0.54626  1.0000
  H   H12       1.0  0.10100  0.49088  0.45374  1.0000
  H   H13       1.0  0.71697  0.65915  0.21977  1.0000
  H   H14       1.0  0.28303  0.34085  0.78023  1.0000
  H   H15       1.0  0.85972  0.64425  0.30809  1.0000
  H   H16       1.0  0.14028  0.35575  0.69191  1.0000
  H   H17       1.0  0.67862  0.02549  0.87318  1.0000
  H   H18       1.0  0.32139  0.97451  0.12682  1.0000
  H   H19       1.0  0.78447  0.10119  0.82338  1.0000
  H   H20       1.0  0.21554  0.89881  0.17662  1.0000
  H   H21       1.0  0.04570  0.83667  0.58985  1.0000
  H   H22       1.0  0.95430  0.16334  0.41014  1.0000
  H   H23       1.0  0.76951  0.73423  0.73665  1.0000
  H   H24       1.0  0.23049  0.26577  0.26335  1.0000
  H   H25       1.0  0.69340  0.74738  0.58222  1.0000
  H   H26       1.0  0.30660  0.25263  0.41777  1.0000
  H   H27       1.0  0.63681  0.90729  0.64960  1.0000
  H   H28       1.0  0.36319  0.09272  0.35040  1.0000
  H   H29       1.0  0.73298  0.02608  0.43288  1.0000
  H   H30       1.0  0.26701  0.97392  0.56712  1.0000
  H   H31       1.0  0.78488  0.85211  0.38967  1.0000
  H   H32       1.0  0.21512  0.14789  0.61032  1.0000
  H   H33       1.0  0.91775  0.91997  0.41025  1.0000
  H   H34       1.0  0.08224  0.08003  0.58975  1.0000
  C   C1        1.0  0.76183  0.05639  0.10378  1.0000
  C   C2        1.0  0.23818  0.94361  0.89622  1.0000
  C   C3        1.0  0.64025  0.19571  0.11963  1.0000
  C   C4        1.0  0.35975  0.80429  0.88038  1.0000
  C   C5        1.0  0.49846  0.23159  0.07402  1.0000
  C   C6        1.0  0.50155  0.76841  0.92598  1.0000
  C   C7        1.0  0.38847  0.36871  0.07932  1.0000
  C   C8        1.0  0.61153  0.63129  0.92067  1.0000
  C   C9        1.0  0.23651  0.41398  0.02632  1.0000
  C   C10       1.0  0.76350  0.58602  0.97367  1.0000
  C   C11       1.0  0.41835  0.46637  0.13602  1.0000
  C   C12       1.0  0.58166  0.53363  0.86398  1.0000
  C   C13       1.0  0.55738  0.42502  0.18761  1.0000
  C   C14       1.0  0.44262  0.57498  0.81240  1.0000
  C   C15       1.0  0.67000  0.29265  0.17698  1.0000
  C   C16       1.0  0.33000  0.70735  0.82302  1.0000
  C   C17       1.0  0.65528  0.46332  0.36660  1.0000
  C   C18       1.0  0.34472  0.53668  0.63340  1.0000
  C   C19       1.0  0.63248  0.35379  0.45492  1.0000
  C   C20       1.0  0.36752  0.64622  0.54509  1.0000
  C   C21       1.0  0.70493  0.29978  0.57671  1.0000
  C   C22       1.0  0.29506  0.70022  0.42329  1.0000
  C   C23       1.0  0.80243  0.35527  0.60859  1.0000
  C   C24       1.0  0.19757  0.64472  0.39141  1.0000
  C   C25       1.0  0.87972  0.30165  0.73809  1.0000
  C   C26       1.0  0.12028  0.69835  0.26191  1.0000
  C   C27       1.0  0.82428  0.46607  0.51904  1.0000
  C   C28       1.0  0.17572  0.53393  0.48096  1.0000
  C   C29       1.0  0.74941  0.52490  0.39689  1.0000
  C   C30       1.0  0.25058  0.47510  0.60311  1.0000
  C   C31       1.0  0.96640  0.80875  0.64891  1.0000
  C   C32       1.0  0.03360  0.19125  0.35109  1.0000
  C   C33       1.0  0.72877  0.80501  0.64091  1.0000
  C   C34       1.0  0.27122  0.19499  0.35909  1.0000
  C   C35       1.0  0.81854  0.91319  0.44585  1.0000
  C   C36       1.0  0.18146  0.08681  0.55415  1.0000
  N   N1        1.0  0.76068  0.64022  0.31002  1.0000
  N   N2        1.0  0.23932  0.35978  0.68998  1.0000
  N   N3        1.0  0.84446  0.83816  0.58109  1.0000
  N   N4        1.0  0.15554  0.16185  0.41891  1.0000
  O   O1        1.0  0.89023  0.05204  0.09673  1.0000
  O   O2        1.0  0.10978  0.94796  0.90327  1.0000
  O   O3        1.0  0.73598  0.94715  0.09359  1.0000
  O   O4        1.0  0.26401  0.05285  0.90641  1.0000
  O   O5        1.0  0.15062  0.54954  0.00860  1.0000
  O   O6        1.0  0.84938  0.45046  0.99140  1.0000
  O   O7        1.0  0.20335  0.31345  0.00278  1.0000
  O   O8        1.0  0.79666  0.68655  0.99721  1.0000
  O   O9        1.0  0.58408  0.52266  0.24520  1.0000
  O   O10       1.0  0.41592  0.47734  0.75480  1.0000
  O   O11       1.0  0.83935  0.22474  0.82995  1.0000
  O   O12       1.0  0.16065  0.77526  0.17004  1.0000
  O   O13       1.0  0.98356  0.33462  0.76129  1.0000
  O   O14       1.0  0.01644  0.66538  0.23871  1.0000
  O   O15       1.0  0.76640  0.00923  0.82900  1.0000
  O   O16       1.0  0.23360  0.99077  0.17099  1.0000
  O   O17       1.0  0.99461  0.75301  0.76672  1.0000
  O   O18       1.0  0.00540  0.24698  0.23328  1.0000
