data_image0
_chemical_formula_structural       Zn2H42C50N6O18
_chemical_formula_sum              "Zn2 H42 C50 N6 O18"
_cell_length_a       9.75881
_cell_length_b       10.6451
_cell_length_c       12.0639
_cell_angle_alpha    87.8666
_cell_angle_beta     84.6524
_cell_angle_gamma    69.4484

_space_group_name_H-M_alt    "P 1"
_space_group_IT_number       1

loop_
  _space_group_symop_operation_xyz
  'x, y, z'

loop_
  _atom_site_type_symbol
  _atom_site_label
  _atom_site_symmetry_multiplicity
  _atom_site_fract_x
  _atom_site_fract_y
  _atom_site_fract_z
  _atom_site_occupancy
  Zn  Zn1       1.0  0.32915  0.80497  0.96128  1.0000
  Zn  Zn2       1.0  0.67085  0.19503  0.03872  1.0000
  H   H1        1.0  0.77503  0.79183  0.98796  1.0000
  H   H2        1.0  0.22497  0.20817  0.01204  1.0000
  H   H3        1.0  0.74392  0.47624  0.21197  1.0000
  H   H4        1.0  0.25608  0.52376  0.78802  1.0000
  H   H5        1.0  0.15586  0.53990  0.14646  1.0000
  H   H6        1.0  0.84414  0.46010  0.85354  1.0000
  H   H7        1.0  0.86513  0.57280  0.39892  1.0000
  H   H8        1.0  0.13487  0.42720  0.60108  1.0000
  H   H9        1.0  0.76981  0.52024  0.58770  1.0000
  H   H10       1.0  0.23019  0.47976  0.41230  1.0000
  H   H11       1.0  0.64661  0.35941  0.79395  1.0000
  H   H12       1.0  0.35339  0.64059  0.20605  1.0000
  H   H13       1.0  0.95242  0.09915  0.51207  1.0000
  H   H14       1.0  0.04757  0.90085  0.48793  1.0000
  H   H15       1.0  0.08620  0.03456  0.32236  1.0000
  H   H16       1.0  0.91380  0.96544  0.67764  1.0000
  H   H17       1.0  0.07578  0.15915  0.22536  1.0000
  H   H18       1.0  0.92422  0.84085  0.77464  1.0000
  H   H19       1.0  0.12837  0.96412  0.78901  1.0000
  H   H20       1.0  0.87163  0.03587  0.21099  1.0000
  H   H21       1.0  0.14897  0.11057  0.62601  1.0000
  H   H22       1.0  0.85103  0.88943  0.37399  1.0000
  H   H23       1.0  0.56278  0.09923  0.73767  1.0000
  H   H24       1.0  0.43722  0.90076  0.26233  1.0000
  H   H25       1.0  0.52060  0.96129  0.89688  1.0000
  H   H26       1.0  0.47940  0.03870  0.10313  1.0000
  H   H27       1.0  0.26260  0.11004  0.45950  1.0000
  H   H28       1.0  0.73740  0.88996  0.54050  1.0000
  H   H29       1.0  0.33065  0.21445  0.28719  1.0000
  H   H30       1.0  0.66935  0.78555  0.71282  1.0000
  H   H31       1.0  0.59833  0.36283  0.44870  1.0000
  H   H32       1.0  0.40167  0.63717  0.55130  1.0000
  H   H33       1.0  0.52588  0.27941  0.63259  1.0000
  H   H34       1.0  0.47413  0.72059  0.36741  1.0000
  H   H35       1.0  0.14765  0.02949  0.07381  1.0000
  H   H36       1.0  0.85235  0.97051  0.92619  1.0000
  H   H37       1.0  0.21506  0.91057  0.15924  1.0000
  H   H38       1.0  0.78494  0.08943  0.84076  1.0000
  H   H39       1.0  0.43089  0.56399  0.85162  1.0000
  H   H40       1.0  0.56911  0.43601  0.14838  1.0000
  H   H41       1.0  0.45566  0.67294  0.76208  1.0000
  H   H42       1.0  0.54434  0.32706  0.23792  1.0000
  C   C1        1.0  0.06662  0.75045  0.00483  1.0000
  C   C2        1.0  0.93338  0.24955  0.99517  1.0000
  C   C3        1.0  0.97442  0.67597  0.06224  1.0000
  C   C4        1.0  0.02558  0.32403  0.93775  1.0000
  C   C5        1.0  0.82619  0.71040  0.04453  1.0000
  C   C6        1.0  0.17381  0.28961  0.95547  1.0000
  C   C7        1.0  0.74270  0.63937  0.09890  1.0000
  C   C8        1.0  0.25730  0.36063  0.90109  1.0000
  C   C9        1.0  0.58432  0.67427  0.07878  1.0000
  C   C10       1.0  0.41568  0.32573  0.92122  1.0000
  C   C11       1.0  0.80734  0.53377  0.17135  1.0000
  C   C12       1.0  0.19266  0.46623  0.82865  1.0000
  C   C13       1.0  0.95565  0.49938  0.18688  1.0000
  C   C14       1.0  0.04435  0.50062  0.81312  1.0000
  C   C15       1.0  0.03997  0.56889  0.13363  1.0000
  C   C16       1.0  0.96003  0.43111  0.86637  1.0000
  C   C17       1.0  0.96305  0.36603  0.35160  1.0000
  C   C18       1.0  0.03695  0.63398  0.64840  1.0000
  C   C19       1.0  0.88308  0.46940  0.42434  1.0000
  C   C20       1.0  0.11692  0.53061  0.57566  1.0000
  C   C21       1.0  0.82993  0.44028  0.52962  1.0000
  C   C22       1.0  0.17007  0.55972  0.47038  1.0000
  C   C23       1.0  0.85701  0.30635  0.56161  1.0000
  C   C24       1.0  0.14299  0.69365  0.43839  1.0000
  C   C25       1.0  0.79504  0.27384  0.67081  1.0000
  C   C26       1.0  0.20495  0.72616  0.32918  1.0000
  C   C27       1.0  0.93709  0.20232  0.48745  1.0000
  C   C28       1.0  0.06291  0.79768  0.51255  1.0000
  C   C29       1.0  0.99189  0.22924  0.38119  1.0000
  C   C30       1.0  0.00811  0.77076  0.61880  1.0000
  C   C31       1.0  0.22175  0.99810  0.77371  1.0000
  C   C32       1.0  0.77825  0.00189  0.22629  1.0000
  C   C33       1.0  0.23545  0.07806  0.68284  1.0000
  C   C34       1.0  0.76455  0.92194  0.31716  1.0000
  C   C35       1.0  0.36089  0.11458  0.66510  1.0000
  C   C36       1.0  0.63911  0.88541  0.33491  1.0000
  C   C37       1.0  0.46259  0.07523  0.74576  1.0000
  C   C38       1.0  0.53741  0.92477  0.25424  1.0000
  C   C39       1.0  0.44064  0.99649  0.83512  1.0000
  C   C40       1.0  0.55935  0.00351  0.16489  1.0000
  C   C41       1.0  0.39116  0.18298  0.56203  1.0000
  C   C42       1.0  0.60884  0.81702  0.43797  1.0000
  C   C43       1.0  0.33440  0.16797  0.46279  1.0000
  C   C44       1.0  0.66560  0.83203  0.53721  1.0000
  C   C45       1.0  0.37506  0.22402  0.36487  1.0000
  C   C46       1.0  0.62494  0.77599  0.63514  1.0000
  C   C47       1.0  0.52240  0.30756  0.45523  1.0000
  C   C48       1.0  0.47760  0.69244  0.54477  1.0000
  C   C49       1.0  0.48417  0.25853  0.55743  1.0000
  C   C50       1.0  0.51583  0.74147  0.44257  1.0000
  N   N1        1.0  0.07585  0.13210  0.30723  1.0000
  N   N2        1.0  0.92415  0.86790  0.69277  1.0000
  N   N3        1.0  0.32445  0.95520  0.84728  1.0000
  N   N4        1.0  0.67555  0.04479  0.15272  1.0000
  N   N5        1.0  0.47035  0.28967  0.36002  1.0000
  N   N6        1.0  0.52965  0.71033  0.63999  1.0000
  O   O1        1.0  0.20011  0.71050  0.03047  1.0000
  O   O2        1.0  0.79989  0.28951  0.96953  1.0000
  O   O3        1.0  0.01358  0.84450  0.93663  1.0000
  O   O4        1.0  0.98642  0.15550  0.06336  1.0000
  O   O5        1.0  0.50997  0.61113  0.13255  1.0000
  O   O6        1.0  0.49004  0.38887  0.86745  1.0000
  O   O7        1.0  0.53277  0.76721  0.00803  1.0000
  O   O8        1.0  0.46723  0.23279  0.99196  1.0000
  O   O9        1.0  0.02756  0.38677  0.24946  1.0000
  O   O10       1.0  0.97244  0.61323  0.75054  1.0000
  O   O11       1.0  0.70363  0.38070  0.72550  1.0000
  O   O12       1.0  0.29637  0.61931  0.27450  1.0000
  O   O13       1.0  0.82231  0.15668  0.70639  1.0000
  O   O14       1.0  0.17769  0.84332  0.29361  1.0000
  O   O15       1.0  0.24062  0.95714  0.09239  1.0000
  O   O16       1.0  0.75939  0.04286  0.90761  1.0000
  O   O17       1.0  0.39579  0.66073  0.83213  1.0000
  O   O18       1.0  0.60421  0.33927  0.16787  1.0000
