data_image0
_chemical_formula_structural       Hg4H8C4N20Cl4
_chemical_formula_sum              "Hg4 H8 C4 N20 Cl4"
_cell_length_a       6.21132
_cell_length_b       9.04705
_cell_length_c       9.04991
_cell_angle_alpha    89.2786
_cell_angle_beta     90.0011
_cell_angle_gamma    90.0002

_space_group_name_H-M_alt    "P 1"
_space_group_IT_number       1

loop_
  _space_group_symop_operation_xyz
  'x, y, z'

loop_
  _atom_site_type_symbol
  _atom_site_label
  _atom_site_symmetry_multiplicity
  _atom_site_fract_x
  _atom_site_fract_y
  _atom_site_fract_z
  _atom_site_occupancy
  Hg  Hg1       1.0  0.75010  0.14052  0.64153  1.0000
  Hg  Hg2       1.0  0.25011  0.35948  0.85847  1.0000
  Hg  Hg3       1.0  0.24990  0.85947  0.35847  1.0000
  Hg  Hg4       1.0  0.74992  0.64052  0.14153  1.0000
  H   H1        1.0  0.74382  0.00357  0.14310  1.0000
  H   H2        1.0  0.24383  0.49645  0.35689  1.0000
  H   H3        1.0  0.25617  0.99644  0.85689  1.0000
  H   H4        1.0  0.75617  0.50357  0.64311  1.0000
  H   H5        1.0  0.74350  0.14215  0.00482  1.0000
  H   H6        1.0  0.24350  0.35785  0.49520  1.0000
  H   H7        1.0  0.25650  0.85784  0.99518  1.0000
  H   H8        1.0  0.75650  0.64216  0.50482  1.0000
  C   C1        1.0  0.75566  0.92919  0.93041  1.0000
  C   C2        1.0  0.25569  0.57081  0.56959  1.0000
  C   C3        1.0  0.24431  0.07080  0.06958  1.0000
  C   C4        1.0  0.74433  0.42920  0.43042  1.0000
  N   N1        1.0  0.74639  0.03254  0.03362  1.0000
  N   N2        1.0  0.24638  0.46747  0.46638  1.0000
  N   N3        1.0  0.25361  0.96746  0.96638  1.0000
  N   N4        1.0  0.75360  0.53254  0.53362  1.0000
  N   N5        1.0  0.76271  0.78041  0.95241  1.0000
  N   N6        1.0  0.26270  0.71960  0.54759  1.0000
  N   N7        1.0  0.23730  0.21960  0.04759  1.0000
  N   N8        1.0  0.73729  0.28041  0.45242  1.0000
  N   N9        1.0  0.77588  0.71528  0.81694  1.0000
  N   N10       1.0  0.27588  0.78470  0.68308  1.0000
  N   N11       1.0  0.22413  0.28469  0.18307  1.0000
  N   N12       1.0  0.72412  0.21528  0.31694  1.0000
  N   N13       1.0  0.77576  0.81584  0.71647  1.0000
  N   N14       1.0  0.27575  0.68417  0.78350  1.0000
  N   N15       1.0  0.22425  0.18416  0.28349  1.0000
  N   N16       1.0  0.72425  0.31585  0.21647  1.0000
  N   N17       1.0  0.76248  0.95129  0.78166  1.0000
  N   N18       1.0  0.26246  0.54871  0.71833  1.0000
  N   N19       1.0  0.23753  0.04871  0.21833  1.0000
  N   N20       1.0  0.73753  0.45129  0.28167  1.0000
  Cl  Cl1       1.0  0.24924  0.14876  0.64768  1.0000
  Cl  Cl2       1.0  0.74924  0.35124  0.85232  1.0000
  Cl  Cl3       1.0  0.75075  0.85125  0.35232  1.0000
  Cl  Cl4       1.0  0.25075  0.64875  0.14769  1.0000
