data_image0
_chemical_formula_structural       Hg4H8C4N20
_chemical_formula_sum              "Hg4 H8 C4 N20"
_cell_length_a       5.02947
_cell_length_b       6.98103
_cell_length_c       13.1143
_cell_angle_alpha    89.9994
_cell_angle_beta     90.0002
_cell_angle_gamma    104.242

_space_group_name_H-M_alt    "P 1"
_space_group_IT_number       1

loop_
  _space_group_symop_operation_xyz
  'x, y, z'

loop_
  _atom_site_type_symbol
  _atom_site_label
  _atom_site_symmetry_multiplicity
  _atom_site_fract_x
  _atom_site_fract_y
  _atom_site_fract_z
  _atom_site_occupancy
  Hg  Hg1       1.0  0.47569  0.98201  0.09721  1.0000
  Hg  Hg2       1.0  0.52431  0.51799  0.59721  1.0000
  Hg  Hg3       1.0  0.52431  0.01799  0.90279  1.0000
  Hg  Hg4       1.0  0.47569  0.48201  0.40279  1.0000
  H   H1        1.0  0.63052  0.08320  0.35463  1.0000
  H   H2        1.0  0.36948  0.41680  0.85463  1.0000
  H   H3        1.0  0.36948  0.91680  0.64537  1.0000
  H   H4        1.0  0.63052  0.58320  0.14537  1.0000
  H   H5        1.0  0.90228  0.21018  0.42789  1.0000
  H   H6        1.0  0.09772  0.28982  0.92789  1.0000
  H   H7        1.0  0.09772  0.78982  0.57211  1.0000
  H   H8        1.0  0.90228  0.71018  0.07211  1.0000
  C   C1        1.0  0.95062  0.25324  0.27382  1.0000
  C   C2        1.0  0.04937  0.24676  0.77382  1.0000
  C   C3        1.0  0.04938  0.74676  0.72618  1.0000
  C   C4        1.0  0.95063  0.75324  0.22618  1.0000
  N   N1        1.0  0.79949  0.20158  0.36017  1.0000
  N   N2        1.0  0.20051  0.29843  0.86018  1.0000
  N   N3        1.0  0.20051  0.79842  0.63983  1.0000
  N   N4        1.0  0.79949  0.70157  0.13982  1.0000
  N   N5        1.0  0.86079  0.20832  0.17792  1.0000
  N   N6        1.0  0.13921  0.29167  0.67793  1.0000
  N   N7        1.0  0.13921  0.79168  0.82208  1.0000
  N   N8        1.0  0.86079  0.70833  0.32207  1.0000
  N   N9        1.0  0.06935  0.29689  0.11485  1.0000
  N   N10       1.0  0.93065  0.20311  0.61485  1.0000
  N   N11       1.0  0.93065  0.70311  0.88515  1.0000
  N   N12       1.0  0.06935  0.79689  0.38515  1.0000
  N   N13       1.0  0.27701  0.39211  0.16918  1.0000
  N   N14       1.0  0.72298  0.10789  0.66918  1.0000
  N   N15       1.0  0.72298  0.60789  0.83082  1.0000
  N   N16       1.0  0.27702  0.89211  0.33082  1.0000
  N   N17       1.0  0.20940  0.36796  0.26955  1.0000
  N   N18       1.0  0.79059  0.13204  0.76955  1.0000
  N   N19       1.0  0.79060  0.63204  0.73045  1.0000
  N   N20       1.0  0.20941  0.86796  0.23045  1.0000
