data_image0
_chemical_formula_structural       Cu2H40C28S2N8O14
_chemical_formula_sum              "Cu2 H40 C28 S2 N8 O14"
_cell_length_a       7.77757
_cell_length_b       10.0424
_cell_length_c       12.4561
_cell_angle_alpha    66.8889
_cell_angle_beta     87.8301
_cell_angle_gamma    80.5655

_space_group_name_H-M_alt    "P 1"
_space_group_IT_number       1

loop_
  _space_group_symop_operation_xyz
  'x, y, z'

loop_
  _atom_site_type_symbol
  _atom_site_label
  _atom_site_symmetry_multiplicity
  _atom_site_fract_x
  _atom_site_fract_y
  _atom_site_fract_z
  _atom_site_occupancy
  Cu  Cu1       1.0  0.69624  0.34275  0.84999  1.0000
  Cu  Cu2       1.0  0.30201  0.65825  0.14936  1.0000
  H   H1        1.0  0.47160  0.34051  0.99663  1.0000
  H   H2        1.0  0.52816  0.65978  0.00334  1.0000
  H   H3        1.0  0.66182  0.31950  0.06406  1.0000
  H   H4        1.0  0.33830  0.68086  0.93554  1.0000
  H   H5        1.0  0.77996  0.53101  0.93090  1.0000
  H   H6        1.0  0.22047  0.46900  0.06919  1.0000
  H   H7        1.0  0.91186  0.51450  0.82968  1.0000
  H   H8        1.0  0.08862  0.48521  0.17042  1.0000
  H   H9        1.0  0.05918  0.26882  0.72887  1.0000
  H   H10       1.0  0.94003  0.73153  0.27109  1.0000
  H   H11       1.0  0.61407  0.15787  0.58233  1.0000
  H   H12       1.0  0.38601  0.84223  0.41767  1.0000
  H   H13       1.0  0.12327  0.00316  0.67979  1.0000
  H   H14       1.0  0.87647  0.99680  0.32018  1.0000
  H   H15       1.0  0.75428  0.43941  0.41428  1.0000
  H   H16       1.0  0.24565  0.56058  0.58544  1.0000
  H   H17       1.0  0.31174  0.97122  0.84557  1.0000
  H   H18       1.0  0.68749  0.02940  0.15342  1.0000
  H   H19       1.0  0.54662  0.78231  0.79438  1.0000
  H   H20       1.0  0.45352  0.21781  0.20563  1.0000
  H   H21       1.0  0.75357  0.83377  0.75361  1.0000
  H   H22       1.0  0.24647  0.16665  0.24647  1.0000
  H   H23       1.0  0.47525  0.74149  0.62657  1.0000
  H   H24       1.0  0.52479  0.25865  0.37342  1.0000
  H   H25       1.0  0.20761  0.25530  0.54596  1.0000
  H   H26       1.0  0.79195  0.74454  0.45427  1.0000
  H   H27       1.0  0.09415  0.35224  0.40889  1.0000
  H   H28       1.0  0.90569  0.64771  0.59121  1.0000
  H   H29       1.0  0.55738  0.49030  0.59328  1.0000
  H   H30       1.0  0.44206  0.51026  0.40600  1.0000
  H   H31       1.0  0.35171  0.20934  0.89924  1.0000
  H   H32       1.0  0.64646  0.79209  0.09907  1.0000
  H   H33       1.0  0.95425  0.22552  0.31814  1.0000
  H   H34       1.0  0.04541  0.77446  0.68185  1.0000
  H   H35       1.0  0.82533  0.06170  0.77367  1.0000
  H   H36       1.0  0.17434  0.93835  0.22705  1.0000
  H   H37       1.0  0.08623  0.24950  0.96301  1.0000
  H   H38       1.0  0.91099  0.74863  0.03806  1.0000
  H   H39       1.0  0.10460  0.08018  0.01330  1.0000
  H   H40       1.0  0.90809  0.91709  0.98966  1.0000
  C   C1        1.0  0.04421  0.13064  0.49872  1.0000
  C   C2        1.0  0.95542  0.86935  0.50128  1.0000
  C   C3        1.0  0.94804  0.32073  0.66867  1.0000
  C   C4        1.0  0.05120  0.67958  0.33125  1.0000
  C   C5        1.0  0.55220  0.94204  0.61845  1.0000
  C   C6        1.0  0.44786  0.05808  0.38157  1.0000
  C   C7        1.0  0.56299  0.08801  0.54703  1.0000
  C   C8        1.0  0.43709  0.91211  0.45296  1.0000
  C   C9        1.0  0.06679  0.00307  0.60085  1.0000
  C   C10       1.0  0.93287  0.99691  0.39914  1.0000
  C   C11       1.0  0.78428  0.41108  0.50586  1.0000
  C   C12       1.0  0.21542  0.58905  0.49387  1.0000
  C   C13       1.0  0.42117  0.02832  0.83702  1.0000
  C   C14       1.0  0.57798  0.97228  0.16226  1.0000
  C   C15       1.0  0.61282  0.87545  0.74520  1.0000
  C   C16       1.0  0.38717  0.12477  0.25482  1.0000
  C   C17       1.0  0.48780  0.85448  0.57063  1.0000
  C   C18       1.0  0.51225  0.14565  0.42938  1.0000
  C   C19       1.0  0.08475  0.27271  0.49834  1.0000
  C   C20       1.0  0.91492  0.72724  0.50174  1.0000
  C   C21       1.0  0.68982  0.43635  0.59346  1.0000
  C   C22       1.0  0.30963  0.56408  0.40606  1.0000
  C   C23       1.0  0.44345  0.14371  0.86506  1.0000
  C   C24       1.0  0.55514  0.85729  0.13385  1.0000
  C   C25       1.0  0.97671  0.12656  0.39778  1.0000
  C   C26       1.0  0.02287  0.87344  0.60223  1.0000
  C   C27       1.0  0.69290  0.06950  0.80391  1.0000
  C   C28       1.0  0.30639  0.93095  0.19612  1.0000
  S   S1        1.0  0.25110  0.52026  0.83460  1.0000
  S   S2        1.0  0.74919  0.47996  0.16522  1.0000
  N   N1        1.0  0.58028  0.98173  0.79959  1.0000
  N   N2        1.0  0.41931  0.01855  0.20036  1.0000
  N   N3        1.0  0.79361  0.37999  0.69394  1.0000
  N   N4        1.0  0.20557  0.62055  0.30572  1.0000
  N   N5        1.0  0.61295  0.16847  0.84369  1.0000
  N   N6        1.0  0.38576  0.83239  0.15569  1.0000
  N   N7        1.0  0.94674  0.33798  0.55515  1.0000
  N   N8        1.0  0.05279  0.66206  0.44481  1.0000
  O   O1        1.0  0.59757  0.29398  0.00671  1.0000
  O   O2        1.0  0.40222  0.70633  0.99303  1.0000
  O   O3        1.0  0.78771  0.51293  0.85746  1.0000
  O   O4        1.0  0.21287  0.48662  0.14283  1.0000
  O   O5        1.0  0.22781  0.66678  0.84181  1.0000
  O   O6        1.0  0.77248  0.33372  0.15747  1.0000
  O   O7        1.0  0.41113  0.49483  0.77290  1.0000
  O   O8        1.0  0.58910  0.50525  0.22684  1.0000
  O   O9        1.0  0.26128  0.40339  0.95898  1.0000
  O   O10       1.0  0.73922  0.59727  0.04090  1.0000
  O   O11       1.0  0.09698  0.50895  0.77317  1.0000
  O   O12       1.0  0.90333  0.49074  0.22689  1.0000
  O   O13       1.0  0.03795  0.16883  0.95586  1.0000
  O   O14       1.0  0.96523  0.82474  0.04835  1.0000
