data_image0
_chemical_formula_structural       H12Pb4C16S2O18
_chemical_formula_sum              "H12 Pb4 C16 S2 O18"
_cell_length_a       6.81744
_cell_length_b       8.45761
_cell_length_c       10.8842
_cell_angle_alpha    89.9152
_cell_angle_beta     107.289
_cell_angle_gamma    91.4864

_space_group_name_H-M_alt    "P 1"
_space_group_IT_number       1

loop_
  _space_group_symop_operation_xyz
  'x, y, z'

loop_
  _atom_site_type_symbol
  _atom_site_label
  _atom_site_symmetry_multiplicity
  _atom_site_fract_x
  _atom_site_fract_y
  _atom_site_fract_z
  _atom_site_occupancy
  H   H1        1.0  0.55840  0.34118  0.43160  1.0000
  H   H2        1.0  0.44159  0.65883  0.56841  1.0000
  H   H3        1.0  0.84987  0.91406  0.59812  1.0000
  H   H4        1.0  0.15016  0.08596  0.40189  1.0000
  H   H5        1.0  0.57693  0.94254  0.18777  1.0000
  H   H6        1.0  0.42306  0.05746  0.81223  1.0000
  H   H7        1.0  0.17282  0.34482  0.91205  1.0000
  H   H8        1.0  0.82717  0.65517  0.08794  1.0000
  H   H9        1.0  0.00026  0.09512  0.12426  1.0000
  H   H10       1.0  0.99974  0.90486  0.87574  1.0000
  H   H11       1.0  0.79178  0.02149  0.03610  1.0000
  H   H12       1.0  0.20822  0.97849  0.96391  1.0000
  Pb  Pb1       1.0  0.06418  0.54697  0.70571  1.0000
  Pb  Pb2       1.0  0.93580  0.45303  0.29428  1.0000
  Pb  Pb3       1.0  0.75030  0.35636  0.91465  1.0000
  Pb  Pb4       1.0  0.24969  0.64364  0.08535  1.0000
  C   C1        1.0  0.55446  0.14910  0.29804  1.0000
  C   C2        1.0  0.44553  0.85090  0.70196  1.0000
  C   C3        1.0  0.60572  0.22150  0.41917  1.0000
  C   C4        1.0  0.39428  0.77850  0.58084  1.0000
  C   C5        1.0  0.71632  0.13683  0.52750  1.0000
  C   C6        1.0  0.28369  0.86318  0.47251  1.0000
  C   C7        1.0  0.76876  0.98058  0.51334  1.0000
  C   C8        1.0  0.23125  0.01943  0.48667  1.0000
  C   C9        1.0  0.71772  0.91022  0.39126  1.0000
  C   C10       1.0  0.28229  0.08978  0.60874  1.0000
  C   C11       1.0  0.61304  0.99600  0.28288  1.0000
  C   C12       1.0  0.38696  0.00401  0.71712  1.0000
  C   C13       1.0  0.77338  0.21292  0.65836  1.0000
  C   C14       1.0  0.22662  0.78708  0.34164  1.0000
  C   C15       1.0  0.77222  0.74429  0.37197  1.0000
  C   C16       1.0  0.22779  0.25572  0.62803  1.0000
  S   S1        1.0  0.40753  0.25199  0.16025  1.0000
  S   S2        1.0  0.59246  0.74801  0.83975  1.0000
  O   O1        1.0  0.83161  0.12869  0.75786  1.0000
  O   O2        1.0  0.16838  0.87132  0.24213  1.0000
  O   O3        1.0  0.75463  0.36488  0.66253  1.0000
  O   O4        1.0  0.24537  0.63512  0.33747  1.0000
  O   O5        1.0  0.87766  0.66469  0.46667  1.0000
  O   O6        1.0  0.12237  0.33532  0.53332  1.0000
  O   O7        1.0  0.71402  0.68809  0.25718  1.0000
  O   O8        1.0  0.28597  0.31191  0.74281  1.0000
  O   O9        1.0  0.35144  0.14168  0.05091  1.0000
  O   O10       1.0  0.64855  0.85830  0.94910  1.0000
  O   O11       1.0  0.22999  0.31202  0.19512  1.0000
  O   O12       1.0  0.77001  0.68799  0.80487  1.0000
  O   O13       1.0  0.54172  0.38419  0.13953  1.0000
  O   O14       1.0  0.45829  0.61579  0.86047  1.0000
  O   O15       1.0  0.08797  0.43642  0.91301  1.0000
  O   O16       1.0  0.91201  0.56358  0.08698  1.0000
  O   O17       1.0  0.85848  0.12063  0.07818  1.0000
  O   O18       1.0  0.14152  0.87935  0.92182  1.0000
