data_image0
_chemical_formula_structural       Zn4P8H48C52O16
_chemical_formula_sum              "Zn4 P8 H48 C52 O16"
_cell_length_a       9.49699
_cell_length_b       11.6192
_cell_length_c       12.516
_cell_angle_alpha    95.1259
_cell_angle_beta     90
_cell_angle_gamma    90

_space_group_name_H-M_alt    "P 1"
_space_group_IT_number       1

loop_
  _space_group_symop_operation_xyz
  'x, y, z'

loop_
  _atom_site_type_symbol
  _atom_site_label
  _atom_site_symmetry_multiplicity
  _atom_site_fract_x
  _atom_site_fract_y
  _atom_site_fract_z
  _atom_site_occupancy
  Zn  Zn1       1.0  0.50999  0.92299  0.65496  1.0000
  Zn  Zn2       1.0  0.99001  0.92299  0.15496  1.0000
  Zn  Zn3       1.0  0.49002  0.07701  0.34504  1.0000
  Zn  Zn4       1.0  0.00999  0.07701  0.84504  1.0000
  P   P1        1.0  0.52933  0.17301  0.57240  1.0000
  P   P2        1.0  0.97067  0.17301  0.07239  1.0000
  P   P3        1.0  0.47067  0.82699  0.42760  1.0000
  P   P4        1.0  0.02934  0.82700  0.92761  1.0000
  P   P5        1.0  0.29446  0.10959  0.73152  1.0000
  P   P6        1.0  0.20554  0.10959  0.23152  1.0000
  P   P7        1.0  0.70554  0.89040  0.26848  1.0000
  P   P8        1.0  0.79446  0.89041  0.76848  1.0000
  H   H1        1.0  0.30058  0.25879  0.60809  1.0000
  H   H2        1.0  0.19942  0.25879  0.10809  1.0000
  H   H3        1.0  0.69942  0.74121  0.39191  1.0000
  H   H4        1.0  0.80058  0.74121  0.89191  1.0000
  H   H5        1.0  0.28920  0.11676  0.54475  1.0000
  H   H6        1.0  0.21080  0.11675  0.04475  1.0000
  H   H7        1.0  0.71080  0.88325  0.45525  1.0000
  H   H8        1.0  0.78921  0.88325  0.95526  1.0000
  H   H9        1.0  0.73013  0.18529  0.74984  1.0000
  H   H10       1.0  0.76987  0.18529  0.24984  1.0000
  H   H11       1.0  0.26987  0.81471  0.25016  1.0000
  H   H12       1.0  0.23013  0.81471  0.75016  1.0000
  H   H13       1.0  0.82167  0.35129  0.86828  1.0000
  H   H14       1.0  0.67833  0.35129  0.36828  1.0000
  H   H15       1.0  0.17834  0.64871  0.13171  1.0000
  H   H16       1.0  0.32167  0.64871  0.63172  1.0000
  H   H17       1.0  0.74398  0.55191  0.84009  1.0000
  H   H18       1.0  0.75602  0.55191  0.34009  1.0000
  H   H19       1.0  0.25603  0.44809  0.15991  1.0000
  H   H20       1.0  0.24398  0.44809  0.65991  1.0000
  H   H21       1.0  0.57511  0.58548  0.69385  1.0000
  H   H22       1.0  0.92489  0.58547  0.19385  1.0000
  H   H23       1.0  0.42489  0.41452  0.30615  1.0000
  H   H24       1.0  0.07511  0.41453  0.80615  1.0000
  H   H25       1.0  0.49041  0.41943  0.57166  1.0000
  H   H26       1.0  0.00959  0.41942  0.07166  1.0000
  H   H27       1.0  0.50959  0.58057  0.42834  1.0000
  H   H28       1.0  0.99042  0.58058  0.92834  1.0000
  H   H29       1.0  0.27925  0.34356  0.83340  1.0000
  H   H30       1.0  0.22075  0.34356  0.33340  1.0000
  H   H31       1.0  0.72075  0.65644  0.16659  1.0000
  H   H32       1.0  0.77924  0.65644  0.66660  1.0000
  H   H33       1.0  0.39760  0.44312  0.99121  1.0000
  H   H34       1.0  0.10240  0.44312  0.49121  1.0000
  H   H35       1.0  0.60241  0.55688  0.00879  1.0000
  H   H36       1.0  0.89759  0.55688  0.50879  1.0000
  H   H37       1.0  0.57162  0.33682  0.09536  1.0000
  H   H38       1.0  0.92837  0.33682  0.59536  1.0000
  H   H39       1.0  0.42837  0.66318  0.90464  1.0000
  H   H40       1.0  0.07162  0.66319  0.40464  1.0000
  H   H41       1.0  0.62704  0.13136  0.03872  1.0000
  H   H42       1.0  0.87295  0.13136  0.53872  1.0000
  H   H43       1.0  0.37295  0.86863  0.96128  1.0000
  H   H44       1.0  0.12704  0.86865  0.46128  1.0000
  H   H45       1.0  0.50872  0.03125  0.87927  1.0000
  H   H46       1.0  0.99128  0.03125  0.37926  1.0000
  H   H47       1.0  0.49127  0.96874  0.12074  1.0000
  H   H48       1.0  0.00871  0.96875  0.62074  1.0000
  C   C1        1.0  0.34384  0.17118  0.60869  1.0000
  C   C2        1.0  0.15616  0.17118  0.10869  1.0000
  C   C3        1.0  0.65616  0.82882  0.39131  1.0000
  C   C4        1.0  0.84384  0.82883  0.89132  1.0000
  C   C5        1.0  0.60539  0.29232  0.65358  1.0000
  C   C6        1.0  0.89461  0.29231  0.15358  1.0000
  C   C7        1.0  0.39461  0.70768  0.34642  1.0000
  C   C8        1.0  0.10540  0.70769  0.84641  1.0000
  C   C9        1.0  0.69860  0.27326  0.73696  1.0000
  C   C10       1.0  0.80140  0.27326  0.23696  1.0000
  C   C11       1.0  0.30140  0.72674  0.26304  1.0000
  C   C12       1.0  0.19860  0.72675  0.76303  1.0000
  C   C13       1.0  0.74942  0.36711  0.80341  1.0000
  C   C14       1.0  0.75058  0.36711  0.30341  1.0000
  C   C15       1.0  0.25059  0.63288  0.19659  1.0000
  C   C16       1.0  0.24942  0.63289  0.69659  1.0000
  C   C17       1.0  0.70525  0.47894  0.78753  1.0000
  C   C18       1.0  0.79475  0.47894  0.28754  1.0000
  C   C19       1.0  0.29476  0.52106  0.21246  1.0000
  C   C20       1.0  0.20525  0.52106  0.71246  1.0000
  C   C21       1.0  0.61115  0.49820  0.70500  1.0000
  C   C22       1.0  0.88886  0.49819  0.20500  1.0000
  C   C23       1.0  0.38886  0.50180  0.29500  1.0000
  C   C24       1.0  0.11115  0.50181  0.79500  1.0000
  C   C25       1.0  0.56249  0.40506  0.63716  1.0000
  C   C26       1.0  0.93752  0.40506  0.13717  1.0000
  C   C27       1.0  0.43752  0.59494  0.36284  1.0000
  C   C28       1.0  0.06249  0.59494  0.86284  1.0000
  C   C29       1.0  0.38599  0.18082  0.84550  1.0000
  C   C30       1.0  0.11401  0.18082  0.34550  1.0000
  C   C31       1.0  0.61400  0.81917  0.15450  1.0000
  C   C32       1.0  0.88599  0.81918  0.65450  1.0000
  C   C33       1.0  0.35561  0.29687  0.87780  1.0000
  C   C34       1.0  0.14439  0.29687  0.37779  1.0000
  C   C35       1.0  0.64439  0.70312  0.12220  1.0000
  C   C36       1.0  0.85561  0.70313  0.62220  1.0000
  C   C37       1.0  0.42218  0.35283  0.96708  1.0000
  C   C38       1.0  0.07782  0.35283  0.46708  1.0000
  C   C39       1.0  0.57782  0.64717  0.03292  1.0000
  C   C40       1.0  0.92217  0.64717  0.53292  1.0000
  C   C41       1.0  0.51963  0.29329  0.02526  1.0000
  C   C42       1.0  0.98037  0.29329  0.52526  1.0000
  C   C43       1.0  0.48036  0.70671  0.97474  1.0000
  C   C44       1.0  0.01962  0.70672  0.47474  1.0000
  C   C45       1.0  0.55060  0.17770  0.99362  1.0000
  C   C46       1.0  0.94939  0.17770  0.49362  1.0000
  C   C47       1.0  0.44939  0.82229  0.00638  1.0000
  C   C48       1.0  0.05060  0.82230  0.50638  1.0000
  C   C49       1.0  0.48428  0.12140  0.90396  1.0000
  C   C50       1.0  0.01572  0.12140  0.40396  1.0000
  C   C51       1.0  0.51571  0.87860  0.09604  1.0000
  C   C52       1.0  0.98428  0.87861  0.59604  1.0000
  O   O1        1.0  0.59897  0.05952  0.59660  1.0000
  O   O2        1.0  0.90103  0.05952  0.09660  1.0000
  O   O3        1.0  0.40103  0.94048  0.40340  1.0000
  O   O4        1.0  0.09897  0.94048  0.90340  1.0000
  O   O5        1.0  0.53632  0.20130  0.45503  1.0000
  O   O6        1.0  0.96368  0.20130  0.95502  1.0000
  O   O7        1.0  0.46368  0.79870  0.54498  1.0000
  O   O8        1.0  0.03633  0.79870  0.04498  1.0000
  O   O9        1.0  0.33506  0.98172  0.72112  1.0000
  O   O10       1.0  0.16494  0.98172  0.22112  1.0000
  O   O11       1.0  0.66494  0.01827  0.27888  1.0000
  O   O12       1.0  0.83506  0.01828  0.77889  1.0000
  O   O13       1.0  0.13666  0.13504  0.74183  1.0000
  O   O14       1.0  0.36334  0.13504  0.24183  1.0000
  O   O15       1.0  0.86334  0.86496  0.25817  1.0000
  O   O16       1.0  0.63666  0.86497  0.75818  1.0000
