data_image0
_chemical_formula_structural       Cu2Mo4H20C28N4O17
_chemical_formula_sum              "Cu2 Mo4 H20 C28 N4 O17"
_cell_length_a       7.43362
_cell_length_b       9.94331
_cell_length_c       12.0216
_cell_angle_alpha    68.9552
_cell_angle_beta     76.6924
_cell_angle_gamma    76.5211

_space_group_name_H-M_alt    "P 1"
_space_group_IT_number       1

loop_
  _space_group_symop_operation_xyz
  'x, y, z'

loop_
  _atom_site_type_symbol
  _atom_site_label
  _atom_site_symmetry_multiplicity
  _atom_site_fract_x
  _atom_site_fract_y
  _atom_site_fract_z
  _atom_site_occupancy
  Cu  Cu1       1.0  0.39678  0.70208  0.29956  1.0000
  Cu  Cu2       1.0  0.60322  0.29792  0.70044  1.0000
  Mo  Mo1       1.0  0.02355  0.95926  0.14275  1.0000
  Mo  Mo2       1.0  0.97645  0.04075  0.85725  1.0000
  Mo  Mo3       1.0  0.41598  0.98465  0.86753  1.0000
  Mo  Mo4       1.0  0.58402  0.01534  0.13247  1.0000
  H   H1        1.0  0.26423  0.92501  0.43101  1.0000
  H   H2        1.0  0.73578  0.07499  0.56899  1.0000
  H   H3        1.0  0.33737  0.52091  0.96424  1.0000
  H   H4        1.0  0.66265  0.47909  0.03577  1.0000
  H   H5        1.0  0.16221  0.28870  0.64941  1.0000
  H   H6        1.0  0.83779  0.71130  0.35058  1.0000
  H   H7        1.0  0.90163  0.31918  0.93721  1.0000
  H   H8        1.0  0.09839  0.68082  0.06280  1.0000
  H   H9        1.0  0.03402  0.47437  0.70538  1.0000
  H   H10       1.0  0.96597  0.52563  0.29462  1.0000
  H   H11       1.0  0.45561  0.16325  0.33786  1.0000
  H   H12       1.0  0.54437  0.83675  0.66213  1.0000
  H   H13       1.0  0.49967  0.42269  0.23167  1.0000
  H   H14       1.0  0.50032  0.57731  0.76832  1.0000
  H   H15       1.0  0.28798  0.09504  0.55682  1.0000
  H   H16       1.0  0.71201  0.90496  0.44318  1.0000
  H   H17       1.0  0.06449  0.92593  0.63351  1.0000
  H   H18       1.0  0.93551  0.07406  0.36649  1.0000
  H   H19       1.0  0.94542  0.69890  0.76976  1.0000
  H   H20       1.0  0.05457  0.30110  0.23024  1.0000
  C   C1        1.0  0.13460  0.41048  0.94386  1.0000
  C   C2        1.0  0.86542  0.58952  0.05615  1.0000
  C   C3        1.0  0.21105  0.82845  0.49656  1.0000
  C   C4        1.0  0.78895  0.17154  0.50344  1.0000
  C   C5        1.0  0.20075  0.58230  0.53757  1.0000
  C   C6        1.0  0.79926  0.41770  0.46243  1.0000
  C   C7        1.0  0.27460  0.31576  0.88116  1.0000
  C   C8        1.0  0.72542  0.68424  0.11885  1.0000
  C   C9        1.0  0.18961  0.51243  0.97944  1.0000
  C   C10       1.0  0.81040  0.48757  0.02057  1.0000
  C   C11       1.0  0.23747  0.31567  0.55719  1.0000
  C   C12       1.0  0.76252  0.68433  0.44280  1.0000
  C   C13       1.0  0.26613  0.45847  0.49084  1.0000
  C   C14       1.0  0.73387  0.54152  0.50915  1.0000
  C   C15       1.0  0.94426  0.39844  0.96483  1.0000
  C   C16       1.0  0.05576  0.60156  0.03517  1.0000
  C   C17       1.0  0.08531  0.57536  0.64848  1.0000
  C   C18       1.0  0.91469  0.42463  0.35152  1.0000
  C   C19       1.0  0.40104  0.24307  0.38508  1.0000
  C   C20       1.0  0.59895  0.75693  0.61491  1.0000
  C   C21       1.0  0.42595  0.38771  0.32400  1.0000
  C   C22       1.0  0.57404  0.61230  0.67600  1.0000
  C   C23       1.0  0.30719  0.20678  0.50362  1.0000
  C   C24       1.0  0.69280  0.79322  0.49637  1.0000
  C   C25       1.0  0.09976  0.82807  0.60700  1.0000
  C   C26       1.0  0.90023  0.17193  0.39300  1.0000
  C   C27       1.0  0.03492  0.69984  0.68388  1.0000
  C   C28       1.0  0.96507  0.30016  0.31612  1.0000
  N   N1        1.0  0.26049  0.70820  0.46345  1.0000
  N   N2        1.0  0.73951  0.29180  0.53655  1.0000
  N   N3        1.0  0.36175  0.49198  0.37624  1.0000
  N   N4        1.0  0.63825  0.50803  0.62375  1.0000
  O   O1        1.0  0.16198  0.93931  0.98855  1.0000
  O   O2        1.0  0.83802  0.06069  0.01145  1.0000
  O   O3        1.0  0.77825  0.98731  0.23041  1.0000
  O   O4        1.0  0.22175  0.01270  0.76959  1.0000
  O   O5        1.0  0.43829  0.35106  0.83768  1.0000
  O   O6        1.0  0.56172  0.64894  0.16232  1.0000
  O   O7        1.0  0.55506  0.10003  0.74597  1.0000
  O   O8        1.0  0.44494  0.89997  0.25403  1.0000
  O   O9        1.0  0.51603  0.81110  0.86960  1.0000
  O   O10       1.0  0.48397  0.18889  0.13041  1.0000
  O   O11       1.0  0.22219  0.20878  0.87130  1.0000
  O   O12       1.0  0.77781  0.79122  0.12871  1.0000
  O   O13       1.0  0.12056  0.08637  0.16299  1.0000
  O   O14       1.0  0.87944  0.91363  0.83701  1.0000
  O   O15       1.0  0.11842  0.78707  0.23387  1.0000
  O   O16       1.0  0.88159  0.21293  0.76613  1.0000
  O   O17       1.0  0.50000  0.00000  0.00000  1.0000
