data_image0
_chemical_formula_structural       Zn4H52C60N4O20
_chemical_formula_sum              "Zn4 H52 C60 N4 O20"
_cell_length_a       8.44372
_cell_length_b       12.9205
_cell_length_c       15.66
_cell_angle_alpha    90
_cell_angle_beta     90
_cell_angle_gamma    91.3659

_space_group_name_H-M_alt    "P 1"
_space_group_IT_number       1

loop_
  _space_group_symop_operation_xyz
  'x, y, z'

loop_
  _atom_site_type_symbol
  _atom_site_label
  _atom_site_symmetry_multiplicity
  _atom_site_fract_x
  _atom_site_fract_y
  _atom_site_fract_z
  _atom_site_occupancy
  Zn  Zn1       1.0  0.38210  0.07821  0.99627  1.0000
  Zn  Zn2       1.0  0.38210  0.57821  0.50373  1.0000
  Zn  Zn3       1.0  0.61790  0.92179  0.00373  1.0000
  Zn  Zn4       1.0  0.61790  0.42179  0.49627  1.0000
  H   H1        1.0  0.03352  0.94027  0.15801  1.0000
  H   H2        1.0  0.03352  0.44027  0.34199  1.0000
  H   H3        1.0  0.96649  0.05973  0.84199  1.0000
  H   H4        1.0  0.96649  0.55973  0.65802  1.0000
  H   H5        1.0  0.41914  0.74115  0.21632  1.0000
  H   H6        1.0  0.41913  0.24115  0.28368  1.0000
  H   H7        1.0  0.58087  0.25886  0.78369  1.0000
  H   H8        1.0  0.58086  0.75885  0.71632  1.0000
  H   H9        1.0  0.24579  0.63604  0.31421  1.0000
  H   H10       1.0  0.24579  0.13604  0.18580  1.0000
  H   H11       1.0  0.75421  0.36397  0.68580  1.0000
  H   H12       1.0  0.75420  0.86397  0.81420  1.0000
  H   H13       1.0  0.97948  0.59796  0.37352  1.0000
  H   H14       1.0  0.97947  0.09796  0.12648  1.0000
  H   H15       1.0  0.02053  0.40204  0.62648  1.0000
  H   H16       1.0  0.02052  0.90205  0.87352  1.0000
  H   H17       1.0  0.59182  0.79569  0.31569  1.0000
  H   H18       1.0  0.59182  0.29569  0.18431  1.0000
  H   H19       1.0  0.40819  0.20431  0.68431  1.0000
  H   H20       1.0  0.40818  0.70432  0.81569  1.0000
  H   H21       1.0  0.76743  0.90521  0.22170  1.0000
  H   H22       1.0  0.76743  0.40521  0.27830  1.0000
  H   H23       1.0  0.23257  0.09479  0.77830  1.0000
  H   H24       1.0  0.23257  0.59479  0.72170  1.0000
  H   H25       1.0  0.34240  0.27085  0.89462  1.0000
  H   H26       1.0  0.34240  0.77085  0.60539  1.0000
  H   H27       1.0  0.65759  0.72914  0.10539  1.0000
  H   H28       1.0  0.65760  0.22915  0.39461  1.0000
  H   H29       1.0  0.19086  0.49878  0.90738  1.0000
  H   H30       1.0  0.19086  0.99879  0.59262  1.0000
  H   H31       1.0  0.80914  0.50120  0.09262  1.0000
  H   H32       1.0  0.80914  0.00121  0.40738  1.0000
  H   H33       1.0  0.06165  0.43918  0.83040  1.0000
  H   H34       1.0  0.06165  0.93918  0.66960  1.0000
  H   H35       1.0  0.93835  0.56081  0.16959  1.0000
  H   H36       1.0  0.93835  0.06081  0.33040  1.0000
  H   H37       1.0  0.26663  0.41053  0.83043  1.0000
  H   H38       1.0  0.26663  0.91054  0.66958  1.0000
  H   H39       1.0  0.73337  0.58945  0.16957  1.0000
  H   H40       1.0  0.73337  0.08946  0.33042  1.0000
  H   H41       1.0  0.96494  0.26121  0.00262  1.0000
  H   H42       1.0  0.96496  0.76121  0.49738  1.0000
  H   H43       1.0  0.03503  0.73879  0.99738  1.0000
  H   H44       1.0  0.03505  0.23879  0.50261  1.0000
  H   H45       1.0  0.89107  0.36545  0.93966  1.0000
  H   H46       1.0  0.89108  0.86545  0.56034  1.0000
  H   H47       1.0  0.10891  0.63455  0.06033  1.0000
  H   H48       1.0  0.10892  0.13455  0.43965  1.0000
  H   H49       1.0  0.00345  0.39145  0.03496  1.0000
  H   H50       1.0  0.00347  0.89146  0.46504  1.0000
  H   H51       1.0  0.99653  0.60854  0.96503  1.0000
  H   H52       1.0  0.99654  0.10855  0.53496  1.0000
  C   C1        1.0  0.34038  0.90851  0.12280  1.0000
  C   C2        1.0  0.34037  0.40852  0.37720  1.0000
  C   C3        1.0  0.65964  0.09148  0.87721  1.0000
  C   C4        1.0  0.65963  0.59149  0.62280  1.0000
  C   C5        1.0  0.07914  0.87446  0.19298  1.0000
  C   C6        1.0  0.07913  0.37446  0.30702  1.0000
  C   C7        1.0  0.92087  0.12554  0.80703  1.0000
  C   C8        1.0  0.92087  0.62554  0.69298  1.0000
  C   C9        1.0  0.23585  0.84771  0.18265  1.0000
  C   C10       1.0  0.23585  0.34771  0.31735  1.0000
  C   C11       1.0  0.76416  0.15229  0.81736  1.0000
  C   C12       1.0  0.76415  0.65229  0.68265  1.0000
  C   C13       1.0  0.29573  0.76056  0.22619  1.0000
  C   C14       1.0  0.29572  0.26056  0.27381  1.0000
  C   C15       1.0  0.70429  0.23944  0.77382  1.0000
  C   C16       1.0  0.70428  0.73944  0.72619  1.0000
  C   C17       1.0  0.19993  0.70222  0.27956  1.0000
  C   C18       1.0  0.19993  0.20221  0.22044  1.0000
  C   C19       1.0  0.80008  0.29779  0.72044  1.0000
  C   C20       1.0  0.80007  0.79779  0.77956  1.0000
  C   C21       1.0  0.03802  0.72715  0.29005  1.0000
  C   C22       1.0  0.03802  0.22715  0.20995  1.0000
  C   C23       1.0  0.96199  0.27285  0.70995  1.0000
  C   C24       1.0  0.96198  0.77285  0.79005  1.0000
  C   C25       1.0  0.93409  0.66511  0.34024  1.0000
  C   C26       1.0  0.93409  0.16511  0.15976  1.0000
  C   C27       1.0  0.06591  0.33489  0.65976  1.0000
  C   C28       1.0  0.06591  0.83489  0.84024  1.0000
  C   C29       1.0  0.77568  0.68869  0.34778  1.0000
  C   C30       1.0  0.77568  0.18870  0.15222  1.0000
  C   C31       1.0  0.22432  0.31130  0.65222  1.0000
  C   C32       1.0  0.22432  0.81131  0.84778  1.0000
  C   C33       1.0  0.71627  0.77797  0.30687  1.0000
  C   C34       1.0  0.71627  0.27798  0.19313  1.0000
  C   C35       1.0  0.28373  0.22202  0.69313  1.0000
  C   C36       1.0  0.28373  0.72203  0.80688  1.0000
  C   C37       1.0  0.81389  0.83908  0.25634  1.0000
  C   C38       1.0  0.81389  0.33908  0.24366  1.0000
  C   C39       1.0  0.18612  0.16092  0.74366  1.0000
  C   C40       1.0  0.18611  0.66092  0.75634  1.0000
  C   C41       1.0  0.97647  0.81519  0.24614  1.0000
  C   C42       1.0  0.97647  0.31520  0.25386  1.0000
  C   C43       1.0  0.02353  0.18481  0.75386  1.0000
  C   C44       1.0  0.02353  0.68481  0.74615  1.0000
  C   C45       1.0  0.66784  0.61909  0.39901  1.0000
  C   C46       1.0  0.66784  0.11909  0.10099  1.0000
  C   C47       1.0  0.33216  0.38091  0.60099  1.0000
  C   C48       1.0  0.33217  0.88091  0.89901  1.0000
  C   C49       1.0  0.23733  0.26431  0.93615  1.0000
  C   C50       1.0  0.23734  0.76433  0.56386  1.0000
  C   C51       1.0  0.76264  0.73566  0.06386  1.0000
  C   C52       1.0  0.76266  0.23567  0.43614  1.0000
  C   C53       1.0  0.16513  0.42723  0.87140  1.0000
  C   C54       1.0  0.16514  0.92724  0.62861  1.0000
  C   C55       1.0  0.83486  0.57275  0.12860  1.0000
  C   C56       1.0  0.83486  0.07276  0.37139  1.0000
  C   C57       1.0  0.98973  0.33979  0.97944  1.0000
  C   C58       1.0  0.98974  0.83979  0.52056  1.0000
  C   C59       1.0  0.01025  0.66021  0.02055  1.0000
  C   C60       1.0  0.01026  0.16021  0.47943  1.0000
  N   N1        1.0  0.13418  0.34038  0.92861  1.0000
  N   N2        1.0  0.13419  0.84038  0.57139  1.0000
  N   N3        1.0  0.86581  0.65961  0.07139  1.0000
  N   N4        1.0  0.86581  0.15962  0.42860  1.0000
  O   O1        1.0  0.28798  0.99419  0.09554  1.0000
  O   O2        1.0  0.28797  0.49418  0.40447  1.0000
  O   O3        1.0  0.71203  0.00582  0.90447  1.0000
  O   O4        1.0  0.71203  0.50582  0.59553  1.0000
  O   O5        1.0  0.47225  0.86916  0.10276  1.0000
  O   O6        1.0  0.47225  0.36916  0.39723  1.0000
  O   O7        1.0  0.52774  0.13084  0.89723  1.0000
  O   O8        1.0  0.52775  0.63084  0.60276  1.0000
  O   O9        1.0  0.71797  0.52879  0.41486  1.0000
  O   O10       1.0  0.71797  0.02880  0.08514  1.0000
  O   O11       1.0  0.28204  0.47120  0.58514  1.0000
  O   O12       1.0  0.28202  0.97121  0.91487  1.0000
  O   O13       1.0  0.53587  0.65548  0.42239  1.0000
  O   O14       1.0  0.53587  0.15549  0.07761  1.0000
  O   O15       1.0  0.46413  0.34451  0.57761  1.0000
  O   O16       1.0  0.46413  0.84452  0.92238  1.0000
  O   O17       1.0  0.21741  0.18913  0.98637  1.0000
  O   O18       1.0  0.21742  0.68913  0.51363  1.0000
  O   O19       1.0  0.78256  0.81086  0.01362  1.0000
  O   O20       1.0  0.78258  0.31087  0.48637  1.0000
