data_image0
_chemical_formula_structural       Cd4H60C44N28O12
_chemical_formula_sum              "Cd4 H60 C44 N28 O12"
_cell_length_a       12.0476
_cell_length_b       12.8416
_cell_length_c       12.95
_cell_angle_alpha    116.004
_cell_angle_beta     90
_cell_angle_gamma    90

_space_group_name_H-M_alt    "P 1"
_space_group_IT_number       1

loop_
  _space_group_symop_operation_xyz
  'x, y, z'

loop_
  _atom_site_type_symbol
  _atom_site_label
  _atom_site_symmetry_multiplicity
  _atom_site_fract_x
  _atom_site_fract_y
  _atom_site_fract_z
  _atom_site_occupancy
  Cd  Cd1       1.0  0.76002  0.81830  0.40248  1.0000
  Cd  Cd2       1.0  0.26002  0.68170  0.09752  1.0000
  Cd  Cd3       1.0  0.23998  0.18170  0.59752  1.0000
  Cd  Cd4       1.0  0.73998  0.31830  0.90248  1.0000
  H   H1        1.0  0.95273  0.13980  0.84964  1.0000
  H   H2        1.0  0.45273  0.36020  0.65036  1.0000
  H   H3        1.0  0.04727  0.86020  0.15036  1.0000
  H   H4        1.0  0.54727  0.63980  0.34964  1.0000
  H   H5        1.0  0.03696  0.24716  0.83933  1.0000
  H   H6        1.0  0.53696  0.25284  0.66067  1.0000
  H   H7        1.0  0.96304  0.75284  0.16067  1.0000
  H   H8        1.0  0.46304  0.74716  0.33933  1.0000
  H   H9        1.0  0.16658  0.54105  0.39651  1.0000
  H   H10       1.0  0.66658  0.95895  0.10349  1.0000
  H   H11       1.0  0.83342  0.45895  0.60349  1.0000
  H   H12       1.0  0.33342  0.04105  0.89651  1.0000
  H   H13       1.0  0.06945  0.54924  0.50309  1.0000
  H   H14       1.0  0.56945  0.95076  0.99691  1.0000
  H   H15       1.0  0.93055  0.45076  0.49691  1.0000
  H   H16       1.0  0.43055  0.04924  0.00309  1.0000
  H   H17       1.0  0.94036  0.74464  0.58774  1.0000
  H   H18       1.0  0.44036  0.75536  0.91226  1.0000
  H   H19       1.0  0.05964  0.25536  0.41226  1.0000
  H   H20       1.0  0.55964  0.24464  0.08774  1.0000
  H   H21       1.0  0.98635  0.86126  0.56115  1.0000
  H   H22       1.0  0.48636  0.63874  0.93885  1.0000
  H   H23       1.0  0.01365  0.13875  0.43885  1.0000
  H   H24       1.0  0.51365  0.36126  0.06115  1.0000
  H   H25       1.0  0.13901  0.74126  0.43748  1.0000
  H   H26       1.0  0.63901  0.75874  0.06252  1.0000
  H   H27       1.0  0.86099  0.25874  0.56252  1.0000
  H   H28       1.0  0.36099  0.24126  0.93748  1.0000
  H   H29       1.0  0.14580  0.74259  0.57514  1.0000
  H   H30       1.0  0.64580  0.75742  0.92486  1.0000
  H   H31       1.0  0.85420  0.25742  0.42486  1.0000
  H   H32       1.0  0.35420  0.24258  0.07514  1.0000
  H   H33       1.0  0.19034  0.34879  0.99697  1.0000
  H   H34       1.0  0.69034  0.15121  0.50303  1.0000
  H   H35       1.0  0.80966  0.65121  0.00303  1.0000
  H   H36       1.0  0.30966  0.84879  0.49697  1.0000
  H   H37       1.0  0.18975  0.32072  0.11909  1.0000
  H   H38       1.0  0.68975  0.17928  0.38091  1.0000
  H   H39       1.0  0.81025  0.67928  0.88091  1.0000
  H   H40       1.0  0.31025  0.82072  0.61909  1.0000
  H   H41       1.0  0.62432  0.59836  0.12475  1.0000
  H   H42       1.0  0.12432  0.90164  0.37525  1.0000
  H   H43       1.0  0.37568  0.40164  0.87525  1.0000
  H   H44       1.0  0.87568  0.09836  0.62475  1.0000
  H   H45       1.0  0.01167  0.46746  0.28073  1.0000
  H   H46       1.0  0.51167  0.03254  0.21927  1.0000
  H   H47       1.0  0.98833  0.53254  0.71927  1.0000
  H   H48       1.0  0.48833  0.96746  0.78073  1.0000
  H   H49       1.0  0.04258  0.17401  0.03566  1.0000
  H   H50       1.0  0.54258  0.32599  0.46434  1.0000
  H   H51       1.0  0.95742  0.82599  0.96434  1.0000
  H   H52       1.0  0.45742  0.67401  0.53566  1.0000
  H   H53       1.0  0.14644  0.14251  0.92955  1.0000
  H   H54       1.0  0.64644  0.35749  0.57045  1.0000
  H   H55       1.0  0.85356  0.85749  0.07045  1.0000
  H   H56       1.0  0.35356  0.64251  0.42955  1.0000
  H   H57       1.0  0.08112  0.49223  0.15440  1.0000
  H   H58       1.0  0.58112  0.00777  0.34561  1.0000
  H   H59       1.0  0.91888  0.50777  0.84560  1.0000
  H   H60       1.0  0.41888  0.99223  0.65440  1.0000
  C   C1        1.0  0.94645  0.39728  0.06214  1.0000
  C   C2        1.0  0.44645  0.10272  0.43786  1.0000
  C   C3        1.0  0.05355  0.60272  0.93786  1.0000
  C   C4        1.0  0.55355  0.89728  0.56214  1.0000
  C   C5        1.0  0.70642  0.57653  0.14413  1.0000
  C   C6        1.0  0.20642  0.92347  0.35587  1.0000
  C   C7        1.0  0.29358  0.42347  0.85587  1.0000
  C   C8        1.0  0.79358  0.07653  0.64413  1.0000
  C   C9        1.0  0.92800  0.61966  0.34054  1.0000
  C   C10       1.0  0.42800  0.88034  0.15946  1.0000
  C   C11       1.0  0.07200  0.38034  0.65946  1.0000
  C   C12       1.0  0.57200  0.11966  0.84054  1.0000
  C   C13       1.0  0.86290  0.48595  0.12602  1.0000
  C   C14       1.0  0.36290  0.01405  0.37398  1.0000
  C   C15       1.0  0.13710  0.51405  0.87398  1.0000
  C   C16       1.0  0.63710  0.98595  0.62602  1.0000
  C   C17       1.0  0.85735  0.57848  0.23688  1.0000
  C   C18       1.0  0.35735  0.92152  0.26312  1.0000
  C   C19       1.0  0.14265  0.42152  0.76312  1.0000
  C   C20       1.0  0.64265  0.07848  0.73688  1.0000
  C   C21       1.0  0.99656  0.22121  0.90111  1.0000
  C   C22       1.0  0.49656  0.27878  0.59889  1.0000
  C   C23       1.0  0.00344  0.77878  0.09889  1.0000
  C   C24       1.0  0.50344  0.72122  0.40111  1.0000
  C   C25       1.0  0.08834  0.58128  0.43886  1.0000
  C   C26       1.0  0.58834  0.91872  0.06114  1.0000
  C   C27       1.0  0.91165  0.41872  0.56114  1.0000
  C   C28       1.0  0.41166  0.08128  0.93886  1.0000
  C   C29       1.0  0.98121  0.76637  0.52321  1.0000
  C   C30       1.0  0.48121  0.73363  0.97679  1.0000
  C   C31       1.0  0.01879  0.23363  0.47679  1.0000
  C   C32       1.0  0.51879  0.26637  0.02321  1.0000
  C   C33       1.0  0.09682  0.71276  0.49600  1.0000
  C   C34       1.0  0.59683  0.78724  0.00400  1.0000
  C   C35       1.0  0.90317  0.28724  0.50400  1.0000
  C   C36       1.0  0.40318  0.21276  0.99600  1.0000
  C   C37       1.0  0.13713  0.32297  0.05091  1.0000
  C   C38       1.0  0.63713  0.17703  0.44908  1.0000
  C   C39       1.0  0.86287  0.67703  0.94909  1.0000
  C   C40       1.0  0.36287  0.82297  0.55091  1.0000
  C   C41       1.0  0.08339  0.20635  0.97931  1.0000
  C   C42       1.0  0.58339  0.29365  0.52069  1.0000
  C   C43       1.0  0.91661  0.79365  0.02069  1.0000
  C   C44       1.0  0.41661  0.70635  0.47931  1.0000
  N   N1        1.0  0.00123  0.54460  0.35099  1.0000
  N   N2        1.0  0.50123  0.95540  0.14901  1.0000
  N   N3        1.0  0.99877  0.45540  0.64901  1.0000
  N   N4        1.0  0.49877  0.04460  0.85099  1.0000
  N   N5        1.0  0.91448  0.30858  0.96811  1.0000
  N   N6        1.0  0.41448  0.19142  0.53189  1.0000
  N   N7        1.0  0.08552  0.69142  0.03189  1.0000
  N   N8        1.0  0.58552  0.80858  0.46811  1.0000
  N   N9        1.0  0.76579  0.48616  0.06989  1.0000
  N   N10       1.0  0.26579  0.01384  0.43011  1.0000
  N   N11       1.0  0.23421  0.51384  0.93011  1.0000
  N   N12       1.0  0.73421  0.98616  0.56989  1.0000
  N   N13       1.0  0.75827  0.63533  0.24518  1.0000
  N   N14       1.0  0.25827  0.86467  0.25482  1.0000
  N   N15       1.0  0.24173  0.36467  0.75482  1.0000
  N   N16       1.0  0.74173  0.13533  0.74518  1.0000
  N   N17       1.0  0.91269  0.72580  0.41994  1.0000
  N   N18       1.0  0.41269  0.77420  0.08006  1.0000
  N   N19       1.0  0.08731  0.27420  0.58006  1.0000
  N   N20       1.0  0.58731  0.22580  0.91994  1.0000
  N   N21       1.0  0.81340  0.97095  0.29386  1.0000
  N   N22       1.0  0.31340  0.52905  0.20614  1.0000
  N   N23       1.0  0.18660  0.02905  0.70614  1.0000
  N   N24       1.0  0.68660  0.47095  0.79386  1.0000
  N   N25       1.0  0.05144  0.41071  0.10565  1.0000
  N   N26       1.0  0.55144  0.08929  0.39435  1.0000
  N   N27       1.0  0.94856  0.58929  0.89435  1.0000
  N   N28       1.0  0.44856  0.91071  0.60565  1.0000
  O   O1        1.0  0.89131  0.95700  0.35198  1.0000
  O   O2        1.0  0.39131  0.54300  0.14802  1.0000
  O   O3        1.0  0.10869  0.04300  0.64802  1.0000
  O   O4        1.0  0.60869  0.45700  0.85198  1.0000
  O   O5        1.0  0.72230  0.91181  0.28179  1.0000
  O   O6        1.0  0.22230  0.58819  0.21821  1.0000
  O   O7        1.0  0.27770  0.08819  0.71821  1.0000
  O   O8        1.0  0.77770  0.41181  0.78179  1.0000
  O   O9        1.0  0.82082  0.03807  0.24768  1.0000
  O   O10       1.0  0.32082  0.46193  0.25232  1.0000
  O   O11       1.0  0.17918  0.96193  0.75232  1.0000
  O   O12       1.0  0.67918  0.53807  0.74768  1.0000
