data_image0
_chemical_formula_structural       Hg4H40C40N16Cl8
_chemical_formula_sum              "Hg4 H40 C40 N16 Cl8"
_cell_length_a       8.69952
_cell_length_b       10.9061
_cell_length_c       15.8694
_cell_angle_alpha    101.098
_cell_angle_beta     90
_cell_angle_gamma    90

_space_group_name_H-M_alt    "P 1"
_space_group_IT_number       1

loop_
  _space_group_symop_operation_xyz
  'x, y, z'

loop_
  _atom_site_type_symbol
  _atom_site_label
  _atom_site_symmetry_multiplicity
  _atom_site_fract_x
  _atom_site_fract_y
  _atom_site_fract_z
  _atom_site_occupancy
  Hg  Hg1       1.0  0.32774  0.34613  0.05936  1.0000
  Hg  Hg2       1.0  0.82774  0.65387  0.44064  1.0000
  Hg  Hg3       1.0  0.67226  0.65387  0.94064  1.0000
  Hg  Hg4       1.0  0.17226  0.34613  0.55936  1.0000
  H   H1        1.0  0.71245  0.49262  0.09252  1.0000
  H   H2        1.0  0.21245  0.50738  0.40748  1.0000
  H   H3        1.0  0.28755  0.50739  0.90748  1.0000
  H   H4        1.0  0.78755  0.49262  0.59252  1.0000
  H   H5        1.0  0.78499  0.47291  0.24526  1.0000
  H   H6        1.0  0.28499  0.52709  0.25474  1.0000
  H   H7        1.0  0.21501  0.52709  0.75474  1.0000
  H   H8        1.0  0.71501  0.47291  0.74526  1.0000
  H   H9        1.0  0.94145  0.83871  0.29256  1.0000
  H   H10       1.0  0.44145  0.16130  0.20744  1.0000
  H   H11       1.0  0.05855  0.16130  0.70744  1.0000
  H   H12       1.0  0.55855  0.83871  0.79256  1.0000
  H   H13       1.0  0.02653  0.98853  0.21610  1.0000
  H   H14       1.0  0.52653  0.01147  0.28390  1.0000
  H   H15       1.0  0.97347  0.01148  0.78390  1.0000
  H   H16       1.0  0.47347  0.98853  0.71610  1.0000
  H   H17       1.0  0.83090  0.02166  0.24198  1.0000
  H   H18       1.0  0.33090  0.97834  0.25802  1.0000
  H   H19       1.0  0.16910  0.97834  0.75802  1.0000
  H   H20       1.0  0.66910  0.02166  0.74198  1.0000
  H   H21       1.0  0.16073  0.13832  0.15724  1.0000
  H   H22       1.0  0.66073  0.86168  0.34277  1.0000
  H   H23       1.0  0.83927  0.86168  0.84276  1.0000
  H   H24       1.0  0.33927  0.13832  0.65724  1.0000
  H   H25       1.0  0.95139  0.37025  0.01331  1.0000
  H   H26       1.0  0.45139  0.62974  0.48669  1.0000
  H   H27       1.0  0.04861  0.62975  0.98669  1.0000
  H   H28       1.0  0.54860  0.37025  0.51331  1.0000
  H   H29       1.0  0.69703  0.26550  0.02039  1.0000
  H   H30       1.0  0.19703  0.73450  0.47961  1.0000
  H   H31       1.0  0.30297  0.73450  0.97961  1.0000
  H   H32       1.0  0.80296  0.26550  0.52039  1.0000
  H   H33       1.0  0.67497  0.09441  0.10292  1.0000
  H   H34       1.0  0.17497  0.90559  0.39707  1.0000
  H   H35       1.0  0.32503  0.90559  0.89708  1.0000
  H   H36       1.0  0.82504  0.09441  0.60292  1.0000
  H   H37       1.0  0.81079  0.88545  0.07668  1.0000
  H   H38       1.0  0.31078  0.11456  0.42332  1.0000
  H   H39       1.0  0.18922  0.11456  0.92332  1.0000
  H   H40       1.0  0.68922  0.88544  0.57668  1.0000
  C   C1        1.0  0.76533  0.56951  0.13728  1.0000
  C   C2        1.0  0.26532  0.43049  0.36272  1.0000
  C   C3        1.0  0.23468  0.43050  0.86272  1.0000
  C   C4        1.0  0.73467  0.56951  0.63728  1.0000
  C   C5        1.0  0.80486  0.55809  0.22049  1.0000
  C   C6        1.0  0.30485  0.44191  0.27951  1.0000
  C   C7        1.0  0.19515  0.44192  0.77951  1.0000
  C   C8        1.0  0.69515  0.55809  0.72049  1.0000
  C   C9        1.0  0.89197  0.76139  0.24652  1.0000
  C   C10       1.0  0.39196  0.23861  0.25349  1.0000
  C   C11       1.0  0.10804  0.23861  0.75348  1.0000
  C   C12       1.0  0.60803  0.76139  0.74652  1.0000
  C   C13       1.0  0.85054  0.77325  0.16182  1.0000
  C   C14       1.0  0.35054  0.22675  0.33818  1.0000
  C   C15       1.0  0.14946  0.22675  0.83818  1.0000
  C   C16       1.0  0.64946  0.77325  0.66182  1.0000
  C   C17       1.0  0.91259  0.99803  0.18760  1.0000
  C   C18       1.0  0.41259  0.00197  0.31240  1.0000
  C   C19       1.0  0.08741  0.00198  0.81240  1.0000
  C   C20       1.0  0.58741  0.99802  0.68760  1.0000
  C   C21       1.0  0.91702  0.10309  0.13842  1.0000
  C   C22       1.0  0.41703  0.89692  0.36158  1.0000
  C   C23       1.0  0.08297  0.89692  0.86158  1.0000
  C   C24       1.0  0.58297  0.10308  0.63842  1.0000
  C   C25       1.0  0.05420  0.16569  0.12952  1.0000
  C   C26       1.0  0.55421  0.83431  0.37048  1.0000
  C   C27       1.0  0.94579  0.83431  0.87048  1.0000
  C   C28       1.0  0.44579  0.16569  0.62952  1.0000
  C   C29       1.0  0.93829  0.29455  0.04882  1.0000
  C   C30       1.0  0.43829  0.70544  0.45119  1.0000
  C   C31       1.0  0.06171  0.70544  0.95118  1.0000
  C   C32       1.0  0.56171  0.29455  0.54882  1.0000
  C   C33       1.0  0.79662  0.23640  0.05317  1.0000
  C   C34       1.0  0.29662  0.76360  0.44682  1.0000
  C   C35       1.0  0.20338  0.76361  0.94682  1.0000
  C   C36       1.0  0.70338  0.23640  0.55317  1.0000
  C   C37       1.0  0.78543  0.14047  0.09931  1.0000
  C   C38       1.0  0.28544  0.85953  0.40069  1.0000
  C   C39       1.0  0.21456  0.85953  0.90069  1.0000
  C   C40       1.0  0.71457  0.14047  0.59931  1.0000
  N   N1        1.0  0.78825  0.67463  0.10775  1.0000
  N   N2        1.0  0.28825  0.32537  0.39225  1.0000
  N   N3        1.0  0.21175  0.32538  0.89225  1.0000
  N   N4        1.0  0.71175  0.67462  0.60775  1.0000
  N   N5        1.0  0.86819  0.65520  0.27412  1.0000
  N   N6        1.0  0.36818  0.34480  0.22588  1.0000
  N   N7        1.0  0.13182  0.34480  0.72588  1.0000
  N   N8        1.0  0.63182  0.65520  0.77412  1.0000
  N   N9        1.0  0.86981  0.88088  0.13179  1.0000
  N   N10       1.0  0.36981  0.11912  0.36821  1.0000
  N   N11       1.0  0.13019  0.11912  0.86821  1.0000
  N   N12       1.0  0.63019  0.88088  0.63179  1.0000
  N   N13       1.0  0.06465  0.26016  0.08678  1.0000
  N   N14       1.0  0.56465  0.73984  0.41322  1.0000
  N   N15       1.0  0.93535  0.73984  0.91322  1.0000
  N   N16       1.0  0.43535  0.26016  0.58678  1.0000
  Cl  Cl1       1.0  0.41179  0.13282  0.01800  1.0000
  Cl  Cl2       1.0  0.91180  0.86718  0.48200  1.0000
  Cl  Cl3       1.0  0.58821  0.86718  0.98200  1.0000
  Cl  Cl4       1.0  0.08820  0.13282  0.51800  1.0000
  Cl  Cl5       1.0  0.32345  0.56866  0.08648  1.0000
  Cl  Cl6       1.0  0.82344  0.43134  0.41352  1.0000
  Cl  Cl7       1.0  0.67656  0.43134  0.91352  1.0000
  Cl  Cl8       1.0  0.17655  0.56866  0.58648  1.0000
