data_image0
_chemical_formula_structural       Hg4H40C40Br8N16
_chemical_formula_sum              "Hg4 H40 C40 Br8 N16"
_cell_length_a       9.03539
_cell_length_b       10.2856
_cell_length_c       15.6032
_cell_angle_alpha    90
_cell_angle_beta     90
_cell_angle_gamma    94.6564

_space_group_name_H-M_alt    "P 1"
_space_group_IT_number       1

loop_
  _space_group_symop_operation_xyz
  'x, y, z'

loop_
  _atom_site_type_symbol
  _atom_site_label
  _atom_site_symmetry_multiplicity
  _atom_site_fract_x
  _atom_site_fract_y
  _atom_site_fract_z
  _atom_site_occupancy
  Hg  Hg1       1.0  0.78848  0.78391  0.92318  1.0000
  Hg  Hg2       1.0  0.71152  0.21610  0.42318  1.0000
  Hg  Hg3       1.0  0.21151  0.21609  0.07682  1.0000
  Hg  Hg4       1.0  0.28847  0.78390  0.57682  1.0000
  H   H1        1.0  0.79552  0.05380  0.81837  1.0000
  H   H2        1.0  0.70447  0.94621  0.31837  1.0000
  H   H3        1.0  0.20448  0.94620  0.18163  1.0000
  H   H4        1.0  0.29553  0.05379  0.68163  1.0000
  H   H5        1.0  0.15430  0.89939  0.93660  1.0000
  H   H6        1.0  0.34569  0.10062  0.43660  1.0000
  H   H7        1.0  0.84571  0.10061  0.06340  1.0000
  H   H8        1.0  0.65431  0.89938  0.56340  1.0000
  H   H9        1.0  0.32789  0.07552  0.86907  1.0000
  H   H10       1.0  0.17210  0.92449  0.36907  1.0000
  H   H11       1.0  0.67211  0.92448  0.13093  1.0000
  H   H12       1.0  0.82790  0.07552  0.63093  1.0000
  H   H13       1.0  0.07614  0.35373  0.64904  1.0000
  H   H14       1.0  0.42385  0.64628  0.14904  1.0000
  H   H15       1.0  0.92386  0.64627  0.35096  1.0000
  H   H16       1.0  0.57614  0.35372  0.85096  1.0000
  H   H17       1.0  0.13176  0.39600  0.75527  1.0000
  H   H18       1.0  0.36824  0.60400  0.25527  1.0000
  H   H19       1.0  0.86824  0.60399  0.24474  1.0000
  H   H20       1.0  0.63176  0.39600  0.74474  1.0000
  H   H21       1.0  0.87990  0.46668  0.57756  1.0000
  H   H22       1.0  0.62010  0.53333  0.07756  1.0000
  H   H23       1.0  0.12010  0.53332  0.42244  1.0000
  H   H24       1.0  0.37990  0.46668  0.92244  1.0000
  H   H25       1.0  0.71357  0.65032  0.58232  1.0000
  H   H26       1.0  0.78642  0.34968  0.08232  1.0000
  H   H27       1.0  0.28642  0.34967  0.41768  1.0000
  H   H28       1.0  0.21358  0.65033  0.91768  1.0000
  H   H29       1.0  0.68303  0.76656  0.72196  1.0000
  H   H30       1.0  0.81697  0.23345  0.22196  1.0000
  H   H31       1.0  0.31697  0.23345  0.27803  1.0000
  H   H32       1.0  0.18303  0.76655  0.77804  1.0000
  H   H33       1.0  0.96126  0.52910  0.84782  1.0000
  H   H34       1.0  0.53874  0.47091  0.34782  1.0000
  H   H35       1.0  0.03875  0.47090  0.15218  1.0000
  H   H36       1.0  0.46126  0.52909  0.65218  1.0000
  H   H37       1.0  0.83905  0.24326  0.73538  1.0000
  H   H38       1.0  0.66095  0.75675  0.23538  1.0000
  H   H39       1.0  0.16095  0.75674  0.26462  1.0000
  H   H40       1.0  0.33905  0.24325  0.76462  1.0000
  C   C1        1.0  0.91525  0.05942  0.82958  1.0000
  C   C2        1.0  0.58474  0.94059  0.32958  1.0000
  C   C3        1.0  0.08475  0.94058  0.17042  1.0000
  C   C4        1.0  0.41526  0.05941  0.67043  1.0000
  C   C5        1.0  0.11478  0.97365  0.89452  1.0000
  C   C6        1.0  0.38522  0.02635  0.39452  1.0000
  C   C7        1.0  0.88523  0.02634  0.10548  1.0000
  C   C8        1.0  0.61478  0.97365  0.60548  1.0000
  C   C9        1.0  0.20815  0.07171  0.85788  1.0000
  C   C10       1.0  0.29184  0.92829  0.35788  1.0000
  C   C11       1.0  0.79185  0.92828  0.14211  1.0000
  C   C12       1.0  0.70815  0.07171  0.64212  1.0000
  C   C13       1.0  0.01155  0.16259  0.79413  1.0000
  C   C14       1.0  0.48845  0.83742  0.29413  1.0000
  C   C15       1.0  0.98846  0.83741  0.20587  1.0000
  C   C16       1.0  0.51155  0.16259  0.70588  1.0000
  C   C17       1.0  0.03453  0.37214  0.71419  1.0000
  C   C18       1.0  0.46546  0.62787  0.21419  1.0000
  C   C19       1.0  0.96547  0.62786  0.28582  1.0000
  C   C20       1.0  0.53454  0.37213  0.78582  1.0000
  C   C21       1.0  0.93660  0.48436  0.71200  1.0000
  C   C22       1.0  0.56339  0.51565  0.21200  1.0000
  C   C23       1.0  0.06340  0.51564  0.28799  1.0000
  C   C24       1.0  0.43661  0.48435  0.78800  1.0000
  C   C25       1.0  0.86500  0.51972  0.63714  1.0000
  C   C26       1.0  0.63500  0.48029  0.13714  1.0000
  C   C27       1.0  0.13500  0.48028  0.36286  1.0000
  C   C28       1.0  0.36500  0.51972  0.86286  1.0000
  C   C29       1.0  0.77259  0.62185  0.63933  1.0000
  C   C30       1.0  0.72741  0.37816  0.13933  1.0000
  C   C31       1.0  0.22742  0.37815  0.36066  1.0000
  C   C32       1.0  0.27259  0.62184  0.86067  1.0000
  C   C33       1.0  0.75416  0.68603  0.71663  1.0000
  C   C34       1.0  0.74583  0.31397  0.21662  1.0000
  C   C35       1.0  0.24584  0.31397  0.28337  1.0000
  C   C36       1.0  0.25417  0.68603  0.78338  1.0000
  C   C37       1.0  0.90998  0.55358  0.78703  1.0000
  C   C38       1.0  0.59002  0.44643  0.28703  1.0000
  C   C39       1.0  0.09002  0.44642  0.21297  1.0000
  C   C40       1.0  0.40998  0.55357  0.71297  1.0000
  Br  Br1       1.0  0.55524  0.89086  0.88711  1.0000
  Br  Br2       1.0  0.94476  0.10915  0.38712  1.0000
  Br  Br3       1.0  0.44475  0.10915  0.11288  1.0000
  Br  Br4       1.0  0.05524  0.89085  0.61289  1.0000
  Br  Br5       1.0  0.95811  0.66458  0.01744  1.0000
  Br  Br6       1.0  0.54188  0.33542  0.51744  1.0000
  Br  Br7       1.0  0.04189  0.33543  0.98255  1.0000
  Br  Br8       1.0  0.45812  0.66458  0.48257  1.0000
  N   N1        1.0  0.96750  0.96829  0.87774  1.0000
  N   N2        1.0  0.53249  0.03172  0.37774  1.0000
  N   N3        1.0  0.03250  0.03171  0.12226  1.0000
  N   N4        1.0  0.46751  0.96829  0.62226  1.0000
  N   N5        1.0  0.15952  0.16447  0.80666  1.0000
  N   N6        1.0  0.34047  0.83553  0.30666  1.0000
  N   N7        1.0  0.84048  0.83552  0.19334  1.0000
  N   N8        1.0  0.65952  0.16447  0.69334  1.0000
  N   N9        1.0  0.95162  0.25718  0.74898  1.0000
  N   N10       1.0  0.54838  0.74282  0.24898  1.0000
  N   N11       1.0  0.04838  0.74282  0.25102  1.0000
  N   N12       1.0  0.45162  0.25718  0.75102  1.0000
  N   N13       1.0  0.82155  0.65208  0.78912  1.0000
  N   N14       1.0  0.67845  0.34793  0.28912  1.0000
  N   N15       1.0  0.17845  0.34792  0.21087  1.0000
  N   N16       1.0  0.32155  0.65207  0.71088  1.0000
