data_image0
_chemical_formula_structural       Cu8P8H64C24N8O32
_chemical_formula_sum              "Cu8 P8 H64 C24 N8 O32"
_cell_length_a       9.49631
_cell_length_b       10.0988
_cell_length_c       13.218
_cell_angle_alpha    90
_cell_angle_beta     90
_cell_angle_gamma    90

_space_group_name_H-M_alt    "P 1"
_space_group_IT_number       1

loop_
  _space_group_symop_operation_xyz
  'x, y, z'

loop_
  _atom_site_type_symbol
  _atom_site_label
  _atom_site_symmetry_multiplicity
  _atom_site_fract_x
  _atom_site_fract_y
  _atom_site_fract_z
  _atom_site_occupancy
  Cu  Cu1       1.0  0.85737  0.07146  0.27976  1.0000
  Cu  Cu2       1.0  0.85737  0.57145  0.22024  1.0000
  Cu  Cu3       1.0  0.64320  0.07140  0.77936  1.0000
  Cu  Cu4       1.0  0.35732  0.42856  0.27975  1.0000
  Cu  Cu5       1.0  0.14320  0.92858  0.72066  1.0000
  Cu  Cu6       1.0  0.14320  0.42858  0.77934  1.0000
  Cu  Cu7       1.0  0.35733  0.92856  0.22025  1.0000
  Cu  Cu8       1.0  0.64320  0.57140  0.72065  1.0000
  P   P1        1.0  0.53584  0.18155  0.30942  1.0000
  P   P2        1.0  0.53584  0.68156  0.19058  1.0000
  P   P3        1.0  0.96454  0.18152  0.80918  1.0000
  P   P4        1.0  0.03587  0.31847  0.30954  1.0000
  P   P5        1.0  0.46453  0.81847  0.69083  1.0000
  P   P6        1.0  0.46453  0.31847  0.80917  1.0000
  P   P7        1.0  0.03587  0.81847  0.19047  1.0000
  P   P8        1.0  0.96453  0.68152  0.69082  1.0000
  H   H1        1.0  0.75075  0.83551  0.28128  1.0000
  H   H2        1.0  0.75072  0.33551  0.21872  1.0000
  H   H3        1.0  0.74944  0.83536  0.78138  1.0000
  H   H4        1.0  0.25079  0.66455  0.28134  1.0000
  H   H5        1.0  0.24943  0.16460  0.71865  1.0000
  H   H6        1.0  0.24945  0.66461  0.78134  1.0000
  H   H7        1.0  0.25082  0.16455  0.21865  1.0000
  H   H8        1.0  0.74945  0.33536  0.71863  1.0000
  H   H9        1.0  0.63834  0.94632  0.31433  1.0000
  H   H10       1.0  0.63834  0.44633  0.18566  1.0000
  H   H11       1.0  0.86207  0.94609  0.81418  1.0000
  H   H12       1.0  0.13831  0.55379  0.31437  1.0000
  H   H13       1.0  0.36206  0.05388  0.68584  1.0000
  H   H14       1.0  0.36206  0.55389  0.81416  1.0000
  H   H15       1.0  0.13832  0.05380  0.18564  1.0000
  H   H16       1.0  0.86206  0.44608  0.68582  1.0000
  H   H17       1.0  0.36918  0.19626  0.44284  1.0000
  H   H18       1.0  0.36917  0.69626  0.05715  1.0000
  H   H19       1.0  0.13063  0.19609  0.94291  1.0000
  H   H20       1.0  0.86915  0.30376  0.44296  1.0000
  H   H21       1.0  0.63061  0.80394  0.55706  1.0000
  H   H22       1.0  0.63062  0.30393  0.94294  1.0000
  H   H23       1.0  0.86916  0.80377  0.05705  1.0000
  H   H24       1.0  0.13063  0.69608  0.55709  1.0000
  H   H25       1.0  0.54197  0.18972  0.49437  1.0000
  H   H26       1.0  0.54196  0.68972  0.00561  1.0000
  H   H27       1.0  0.95760  0.18935  0.99400  1.0000
  H   H28       1.0  0.04191  0.31026  0.49452  1.0000
  H   H29       1.0  0.45757  0.81064  0.50600  1.0000
  H   H30       1.0  0.45758  0.31063  0.99400  1.0000
  H   H31       1.0  0.04192  0.81027  0.00549  1.0000
  H   H32       1.0  0.95760  0.68933  0.50600  1.0000
  H   H33       1.0  0.43476  0.36601  0.60003  1.0000
  H   H34       1.0  0.43476  0.86601  0.89996  1.0000
  H   H35       1.0  0.06473  0.36586  0.10010  1.0000
  H   H36       1.0  0.93463  0.13394  0.60009  1.0000
  H   H37       1.0  0.56475  0.63418  0.39989  1.0000
  H   H38       1.0  0.56475  0.13416  0.10011  1.0000
  H   H39       1.0  0.93464  0.63396  0.89991  1.0000
  H   H40       1.0  0.06472  0.86584  0.39990  1.0000
  H   H41       1.0  0.28084  0.37952  0.52388  1.0000
  H   H42       1.0  0.28083  0.87952  0.97612  1.0000
  H   H43       1.0  0.21878  0.37918  0.02405  1.0000
  H   H44       1.0  0.78075  0.12041  0.52390  1.0000
  H   H45       1.0  0.71881  0.62086  0.47594  1.0000
  H   H46       1.0  0.71882  0.12085  0.02406  1.0000
  H   H47       1.0  0.78076  0.62043  0.97611  1.0000
  H   H48       1.0  0.21877  0.87917  0.47595  1.0000
  H   H49       1.0  0.67170  0.41440  0.38104  1.0000
  H   H50       1.0  0.67170  0.91438  0.11896  1.0000
  H   H51       1.0  0.82811  0.41419  0.88095  1.0000
  H   H52       1.0  0.17161  0.08562  0.38107  1.0000
  H   H53       1.0  0.32814  0.58575  0.61905  1.0000
  H   H54       1.0  0.32815  0.08575  0.88094  1.0000
  H   H55       1.0  0.17162  0.58564  0.11893  1.0000
  H   H56       1.0  0.82810  0.91418  0.61905  1.0000
  H   H57       1.0  0.66987  0.38855  0.51462  1.0000
  H   H58       1.0  0.66987  0.88854  0.98538  1.0000
  H   H59       1.0  0.82977  0.38813  0.01449  1.0000
  H   H60       1.0  0.16985  0.11146  0.51465  1.0000
  H   H61       1.0  0.32978  0.61184  0.48551  1.0000
  H   H62       1.0  0.32978  0.11184  0.01448  1.0000
  H   H63       1.0  0.16985  0.61147  0.98535  1.0000
  H   H64       1.0  0.82976  0.88812  0.48550  1.0000
  C   C1        1.0  0.47658  0.23489  0.43421  1.0000
  C   C2        1.0  0.47656  0.73489  0.06578  1.0000
  C   C3        1.0  0.02327  0.23475  0.93410  1.0000
  C   C4        1.0  0.97654  0.26513  0.43432  1.0000
  C   C5        1.0  0.52327  0.76526  0.56590  1.0000
  C   C6        1.0  0.52328  0.26525  0.93410  1.0000
  C   C7        1.0  0.97656  0.76514  0.06569  1.0000
  C   C8        1.0  0.02327  0.73474  0.56590  1.0000
  C   C9        1.0  0.38919  0.41594  0.53326  1.0000
  C   C10       1.0  0.38918  0.91593  0.96674  1.0000
  C   C11       1.0  0.11044  0.41566  0.03332  1.0000
  C   C12       1.0  0.88911  0.08403  0.53330  1.0000
  C   C13       1.0  0.61048  0.58436  0.46666  1.0000
  C   C14       1.0  0.61048  0.08434  0.03334  1.0000
  C   C15       1.0  0.88912  0.58405  0.96670  1.0000
  C   C16       1.0  0.11043  0.91565  0.46667  1.0000
  C   C17       1.0  0.61376  0.43591  0.45092  1.0000
  C   C18       1.0  0.61375  0.93590  0.04908  1.0000
  C   C19       1.0  0.88598  0.43562  0.95088  1.0000
  C   C20       1.0  0.11370  0.06409  0.45096  1.0000
  C   C21       1.0  0.38601  0.56436  0.54912  1.0000
  C   C22       1.0  0.38602  0.06436  0.95088  1.0000
  C   C23       1.0  0.11371  0.56410  0.04904  1.0000
  C   C24       1.0  0.88597  0.93560  0.54912  1.0000
  N   N1        1.0  0.47059  0.37991  0.44227  1.0000
  N   N2        1.0  0.47058  0.87990  0.05773  1.0000
  N   N3        1.0  0.02917  0.37970  0.94225  1.0000
  N   N4        1.0  0.97054  0.12011  0.44233  1.0000
  N   N5        1.0  0.52920  0.62031  0.55773  1.0000
  N   N6        1.0  0.52921  0.12030  0.94227  1.0000
  N   N7        1.0  0.97055  0.62012  0.05767  1.0000
  N   N8        1.0  0.02917  0.87969  0.55774  1.0000
  O   O1        1.0  0.69765  0.19658  0.30234  1.0000
  O   O2        1.0  0.69765  0.69657  0.19765  1.0000
  O   O3        1.0  0.80273  0.19651  0.80189  1.0000
  O   O4        1.0  0.19769  0.30350  0.30251  1.0000
  O   O5        1.0  0.30272  0.80347  0.69810  1.0000
  O   O6        1.0  0.30272  0.30347  0.80191  1.0000
  O   O7        1.0  0.19768  0.80349  0.19750  1.0000
  O   O8        1.0  0.80273  0.69650  0.69811  1.0000
  O   O9        1.0  0.46140  0.27159  0.23220  1.0000
  O   O10       1.0  0.46142  0.77160  0.26779  1.0000
  O   O11       1.0  0.03923  0.27126  0.73198  1.0000
  O   O12       1.0  0.96156  0.22835  0.23231  1.0000
  O   O13       1.0  0.53919  0.72871  0.76804  1.0000
  O   O14       1.0  0.53919  0.22871  0.73197  1.0000
  O   O15       1.0  0.96154  0.72835  0.26769  1.0000
  O   O16       1.0  0.03921  0.77127  0.76802  1.0000
  O   O17       1.0  0.49441  0.03388  0.29966  1.0000
  O   O18       1.0  0.49440  0.53388  0.20034  1.0000
  O   O19       1.0  0.00598  0.03377  0.79965  1.0000
  O   O20       1.0  0.99439  0.46612  0.29972  1.0000
  O   O21       1.0  0.50596  0.96622  0.70037  1.0000
  O   O22       1.0  0.50597  0.46621  0.79963  1.0000
  O   O23       1.0  0.99440  0.96612  0.20029  1.0000
  O   O24       1.0  0.00596  0.53377  0.70036  1.0000
  O   O25       1.0  0.74015  0.91870  0.32073  1.0000
  O   O26       1.0  0.74014  0.41870  0.17928  1.0000
  O   O27       1.0  0.76021  0.91872  0.82060  1.0000
  O   O28       1.0  0.24012  0.58135  0.32075  1.0000
  O   O29       1.0  0.26020  0.08124  0.67943  1.0000
  O   O30       1.0  0.26020  0.58124  0.82057  1.0000
  O   O31       1.0  0.24013  0.08135  0.17925  1.0000
  O   O32       1.0  0.76021  0.41872  0.67940  1.0000
