data_image0
_chemical_formula_structural       Hg2H8C8Br4N4
_chemical_formula_sum              "Hg2 H8 C8 Br4 N4"
_cell_length_a       7.37317
_cell_length_b       7.64345
_cell_length_c       8.38503
_cell_angle_alpha    115.295
_cell_angle_beta     114.176
_cell_angle_gamma    93.8164

_space_group_name_H-M_alt    "P 1"
_space_group_IT_number       1

loop_
  _space_group_symop_operation_xyz
  'x, y, z'

loop_
  _atom_site_type_symbol
  _atom_site_label
  _atom_site_symmetry_multiplicity
  _atom_site_fract_x
  _atom_site_fract_y
  _atom_site_fract_z
  _atom_site_occupancy
  Hg  Hg1       1.0  0.50000  1.00000  1.00000  1.0000
  Hg  Hg2       1.0  0.00000  0.00000  0.00000  1.0000
  H   H1        1.0  0.32619  0.70550  0.50898  1.0000
  H   H2        1.0  0.31739  0.19674  0.49060  1.0000
  H   H3        1.0  0.67381  0.29448  0.49102  1.0000
  H   H4        1.0  0.68262  0.80327  0.50941  1.0000
  H   H5        1.0  0.00159  0.55723  0.16888  1.0000
  H   H6        1.0  0.33334  0.38801  0.83082  1.0000
  H   H7        1.0  0.99841  0.44278  0.83112  1.0000
  H   H8        1.0  0.66665  0.61200  0.16917  1.0000
  C   C1        1.0  0.17523  0.72089  0.49509  1.0000
  C   C2        1.0  0.18044  0.22613  0.50463  1.0000
  C   C3        1.0  0.82477  0.27911  0.50490  1.0000
  C   C4        1.0  0.81955  0.77387  0.49537  1.0000
  C   C5        1.0  0.99561  0.63983  0.30834  1.0000
  C   C6        1.0  0.18784  0.33168  0.69152  1.0000
  C   C7        1.0  0.00438  0.36018  0.69165  1.0000
  C   C8        1.0  0.81215  0.66832  0.30848  1.0000
  Br  Br1       1.0  0.32702  0.32536  0.15592  1.0000
  Br  Br2       1.0  0.67111  0.16906  0.84400  1.0000
  Br  Br3       1.0  0.67298  0.67463  0.84409  1.0000
  Br  Br4       1.0  0.32890  0.83095  0.15603  1.0000
  N   N1        1.0  0.17195  0.82159  0.66862  1.0000
  N   N2        1.0  0.00361  0.15346  0.33123  1.0000
  N   N3        1.0  0.82805  0.17841  0.33138  1.0000
  N   N4        1.0  0.99639  0.84653  0.66878  1.0000
