data_image0
_chemical_formula_structural       Hg2H8C8N4Cl4
_chemical_formula_sum              "Hg2 H8 C8 N4 Cl4"
_cell_length_a       7.21616
_cell_length_b       7.32459
_cell_length_c       8.2975
_cell_angle_alpha    116.185
_cell_angle_beta     115.796
_cell_angle_gamma    89.9639

_space_group_name_H-M_alt    "P 1"
_space_group_IT_number       1

loop_
  _space_group_symop_operation_xyz
  'x, y, z'

loop_
  _atom_site_type_symbol
  _atom_site_label
  _atom_site_symmetry_multiplicity
  _atom_site_fract_x
  _atom_site_fract_y
  _atom_site_fract_z
  _atom_site_occupancy
  Hg  Hg1       1.0  1.00000  1.00000  0.50000  1.0000
  Hg  Hg2       1.0  0.50000  0.00000  0.50000  1.0000
  H   H1        1.0  0.65414  0.58016  0.66040  1.0000
  H   H2        1.0  0.99426  0.41992  0.33970  1.0000
  H   H3        1.0  0.00574  0.58008  0.66030  1.0000
  H   H4        1.0  0.34586  0.41984  0.33959  1.0000
  H   H5        1.0  0.66716  0.75327  0.00657  1.0000
  H   H6        1.0  0.66093  0.24669  0.99354  1.0000
  H   H7        1.0  0.33906  0.75331  0.00647  1.0000
  H   H8        1.0  0.33284  0.24672  0.99343  1.0000
  C   C1        1.0  0.80476  0.65100  0.80174  1.0000
  C   C2        1.0  0.00347  0.34905  0.19833  1.0000
  C   C3        1.0  0.99654  0.65097  0.80167  1.0000
  C   C4        1.0  0.19524  0.34899  0.19826  1.0000
  C   C5        1.0  0.81004  0.74585  0.99184  1.0000
  C   C6        1.0  0.81857  0.25413  0.00824  1.0000
  C   C7        1.0  0.18143  0.74587  0.99177  1.0000
  C   C8        1.0  0.18996  0.25414  0.00816  1.0000
  N   N1        1.0  0.99233  0.83408  0.16812  1.0000
  N   N2        1.0  0.82454  0.16593  0.83192  1.0000
  N   N3        1.0  0.17546  0.83407  0.16807  1.0000
  N   N4        1.0  0.00767  0.16593  0.83188  1.0000
  Cl  Cl1       1.0  0.32360  0.83003  0.64717  1.0000
  Cl  Cl2       1.0  0.67641  0.68296  0.35290  1.0000
  Cl  Cl3       1.0  0.32359  0.31704  0.64710  1.0000
  Cl  Cl4       1.0  0.67639  0.16997  0.35283  1.0000
