data_image0
_chemical_formula_structural       Hg4H32C32Br8N16
_chemical_formula_sum              "Hg4 H32 C32 Br8 N16"
_cell_length_a       8.15675
_cell_length_b       11.498
_cell_length_c       12.9399
_cell_angle_alpha    89.9999
_cell_angle_beta     90
_cell_angle_gamma    89.9997

_space_group_name_H-M_alt    "P 1"
_space_group_IT_number       1

loop_
  _space_group_symop_operation_xyz
  'x, y, z'

loop_
  _atom_site_type_symbol
  _atom_site_label
  _atom_site_symmetry_multiplicity
  _atom_site_fract_x
  _atom_site_fract_y
  _atom_site_fract_z
  _atom_site_occupancy
  Hg  Hg1       1.0  0.25000  0.69112  0.01729  1.0000
  Hg  Hg2       1.0  0.25000  0.19112  0.48271  1.0000
  Hg  Hg3       1.0  0.75000  0.80888  0.51729  1.0000
  Hg  Hg4       1.0  0.75000  0.30888  0.98271  1.0000
  H   H1        1.0  0.43663  0.91432  0.16737  1.0000
  H   H2        1.0  0.43663  0.41432  0.33263  1.0000
  H   H3        1.0  0.93663  0.58568  0.66737  1.0000
  H   H4        1.0  0.06337  0.91432  0.16737  1.0000
  H   H5        1.0  0.56337  0.08568  0.83263  1.0000
  H   H6        1.0  0.56337  0.58568  0.66737  1.0000
  H   H7        1.0  0.06337  0.41432  0.33263  1.0000
  H   H8        1.0  0.93663  0.08568  0.83263  1.0000
  H   H9        1.0  0.44544  0.88133  0.84804  1.0000
  H   H10       1.0  0.44544  0.38133  0.65196  1.0000
  H   H11       1.0  0.94544  0.61867  0.34804  1.0000
  H   H12       1.0  0.05456  0.88133  0.84804  1.0000
  H   H13       1.0  0.55456  0.11867  0.15196  1.0000
  H   H14       1.0  0.55456  0.61867  0.34804  1.0000
  H   H15       1.0  0.05456  0.38133  0.65196  1.0000
  H   H16       1.0  0.94544  0.11867  0.15196  1.0000
  H   H17       1.0  0.90578  0.68250  0.17264  1.0000
  H   H18       1.0  0.90578  0.18250  0.32736  1.0000
  H   H19       1.0  0.40578  0.81750  0.67264  1.0000
  H   H20       1.0  0.59422  0.68250  0.17264  1.0000
  H   H21       1.0  0.09422  0.31750  0.82736  1.0000
  H   H22       1.0  0.09422  0.81750  0.67264  1.0000
  H   H23       1.0  0.59422  0.18250  0.32736  1.0000
  H   H24       1.0  0.40578  0.31750  0.82736  1.0000
  H   H25       1.0  0.90642  0.58255  0.86493  1.0000
  H   H26       1.0  0.90642  0.08255  0.63508  1.0000
  H   H27       1.0  0.40642  0.91745  0.36493  1.0000
  H   H28       1.0  0.59358  0.58255  0.86493  1.0000
  H   H29       1.0  0.09358  0.41745  0.13508  1.0000
  H   H30       1.0  0.09358  0.91745  0.36492  1.0000
  H   H31       1.0  0.59359  0.08255  0.63507  1.0000
  H   H32       1.0  0.40642  0.41745  0.13507  1.0000
  C   C1        1.0  0.46520  0.95314  0.09246  1.0000
  C   C2        1.0  0.46520  0.45314  0.40755  1.0000
  C   C3        1.0  0.96520  0.54686  0.59245  1.0000
  C   C4        1.0  0.03480  0.95314  0.09245  1.0000
  C   C5        1.0  0.53480  0.04686  0.90754  1.0000
  C   C6        1.0  0.53480  0.54686  0.59245  1.0000
  C   C7        1.0  0.03480  0.45314  0.40755  1.0000
  C   C8        1.0  0.96520  0.04686  0.90755  1.0000
  C   C9        1.0  0.46967  0.93497  0.91599  1.0000
  C   C10       1.0  0.46967  0.43497  0.58401  1.0000
  C   C11       1.0  0.96967  0.56503  0.41598  1.0000
  C   C12       1.0  0.03033  0.93497  0.91598  1.0000
  C   C13       1.0  0.53033  0.06503  0.08401  1.0000
  C   C14       1.0  0.53033  0.56503  0.41598  1.0000
  C   C15       1.0  0.03033  0.43497  0.58402  1.0000
  C   C16       1.0  0.96967  0.06503  0.08402  1.0000
  C   C17       1.0  0.83555  0.65892  0.10390  1.0000
  C   C18       1.0  0.83555  0.15892  0.39610  1.0000
  C   C19       1.0  0.33555  0.84108  0.60390  1.0000
  C   C20       1.0  0.66445  0.65892  0.10390  1.0000
  C   C21       1.0  0.16445  0.34108  0.89610  1.0000
  C   C22       1.0  0.16445  0.84108  0.60390  1.0000
  C   C23       1.0  0.66445  0.15892  0.39610  1.0000
  C   C24       1.0  0.33555  0.34108  0.89610  1.0000
  C   C25       1.0  0.83572  0.60408  0.93393  1.0000
  C   C26       1.0  0.83573  0.10408  0.56607  1.0000
  C   C27       1.0  0.33572  0.89592  0.43393  1.0000
  C   C28       1.0  0.66428  0.60408  0.93393  1.0000
  C   C29       1.0  0.16427  0.39592  0.06607  1.0000
  C   C30       1.0  0.16427  0.89592  0.43393  1.0000
  C   C31       1.0  0.66428  0.10408  0.56607  1.0000
  C   C32       1.0  0.33572  0.39592  0.06607  1.0000
  Br  Br1       1.0  0.25000  0.68788  0.21479  1.0000
  Br  Br2       1.0  0.25000  0.18788  0.28521  1.0000
  Br  Br3       1.0  0.75000  0.81212  0.71479  1.0000
  Br  Br4       1.0  0.75000  0.31212  0.78521  1.0000
  Br  Br5       1.0  0.25000  0.65148  0.82347  1.0000
  Br  Br6       1.0  0.25000  0.15148  0.67653  1.0000
  Br  Br7       1.0  0.75000  0.84852  0.32347  1.0000
  Br  Br8       1.0  0.75000  0.34852  0.17653  1.0000
  N   N1        1.0  0.43519  0.88862  0.00839  1.0000
  N   N2        1.0  0.43519  0.38862  0.49161  1.0000
  N   N3        1.0  0.93519  0.61138  0.50839  1.0000
  N   N4        1.0  0.06481  0.88862  0.00839  1.0000
  N   N5        1.0  0.56481  0.11138  0.99161  1.0000
  N   N6        1.0  0.56481  0.61138  0.50839  1.0000
  N   N7        1.0  0.06481  0.38862  0.49161  1.0000
  N   N8        1.0  0.93519  0.11138  0.99161  1.0000
  N   N9        1.0  0.92079  0.63162  0.01896  1.0000
  N   N10       1.0  0.92079  0.13163  0.48104  1.0000
  N   N11       1.0  0.42078  0.86838  0.51896  1.0000
  N   N12       1.0  0.57921  0.63162  0.01896  1.0000
  N   N13       1.0  0.07921  0.36837  0.98104  1.0000
  N   N14       1.0  0.07921  0.86837  0.51896  1.0000
  N   N15       1.0  0.57922  0.13162  0.48104  1.0000
  N   N16       1.0  0.42078  0.36838  0.98104  1.0000
