data_image0
_chemical_formula_structural       K4H32Pt4C20N4Cl8O8
_chemical_formula_sum              "K4 H32 Pt4 C20 N4 Cl8 O8"
_cell_length_a       7.67515
_cell_length_b       8.90041
_cell_length_c       14.2222
_cell_angle_alpha    90.0001
_cell_angle_beta     90.0005
_cell_angle_gamma    90

_space_group_name_H-M_alt    "P 1"
_space_group_IT_number       1

loop_
  _space_group_symop_operation_xyz
  'x, y, z'

loop_
  _atom_site_type_symbol
  _atom_site_label
  _atom_site_symmetry_multiplicity
  _atom_site_fract_x
  _atom_site_fract_y
  _atom_site_fract_z
  _atom_site_occupancy
  K   K1        1.0  0.50000  0.49999  0.50000  1.0000
  K   K2        1.0  1.00000  0.49999  0.50000  1.0000
  K   K3        1.0  1.00000  1.00000  0.50000  1.0000
  K   K4        1.0  0.50000  0.00001  0.50000  1.0000
  H   H1        1.0  0.55779  0.81759  0.75329  1.0000
  H   H2        1.0  0.44222  0.18241  0.75330  1.0000
  H   H3        1.0  0.55778  0.18241  0.24670  1.0000
  H   H4        1.0  0.44222  0.81759  0.24670  1.0000
  H   H5        1.0  0.94591  0.88438  0.75992  1.0000
  H   H6        1.0  0.05409  0.11562  0.75992  1.0000
  H   H7        1.0  0.94591  0.11562  0.24008  1.0000
  H   H8        1.0  0.05409  0.88438  0.24008  1.0000
  H   H9        1.0  0.77100  0.00882  0.78592  1.0000
  H   H10       1.0  0.22900  0.99118  0.78593  1.0000
  H   H11       1.0  0.77100  0.99118  0.21408  1.0000
  H   H12       1.0  0.22900  0.00882  0.21408  1.0000
  H   H13       1.0  0.72228  0.88119  0.93906  1.0000
  H   H14       1.0  0.27772  0.11880  0.93907  1.0000
  H   H15       1.0  0.72228  0.11880  0.06093  1.0000
  H   H16       1.0  0.27771  0.88120  0.06094  1.0000
  H   H17       1.0  0.95387  0.88524  0.93037  1.0000
  H   H18       1.0  0.04614  0.11476  0.93037  1.0000
  H   H19       1.0  0.95386  0.11476  0.06963  1.0000
  H   H20       1.0  0.04613  0.88524  0.06963  1.0000
  H   H21       1.0  0.96383  0.63456  0.86250  1.0000
  H   H22       1.0  0.03618  0.36544  0.86250  1.0000
  H   H23       1.0  0.96382  0.36544  0.13751  1.0000
  H   H24       1.0  0.03618  0.63456  0.13751  1.0000
  H   H25       1.0  0.80335  0.61223  0.95299  1.0000
  H   H26       1.0  0.19665  0.38777  0.95300  1.0000
  H   H27       1.0  0.80335  0.38776  0.04700  1.0000
  H   H28       1.0  0.19665  0.61224  0.04701  1.0000
  H   H29       1.0  0.58163  0.63631  0.84762  1.0000
  H   H30       1.0  0.41837  0.36368  0.84762  1.0000
  H   H31       1.0  0.58163  0.36368  0.15238  1.0000
  H   H32       1.0  0.41837  0.63631  0.15238  1.0000
  Pt  Pt1       1.0  0.72699  0.45170  0.73601  1.0000
  Pt  Pt2       1.0  0.27302  0.54830  0.73601  1.0000
  Pt  Pt3       1.0  0.72698  0.54830  0.26399  1.0000
  Pt  Pt4       1.0  0.27301  0.45171  0.26399  1.0000
  C   C1        1.0  0.73486  0.74178  0.65054  1.0000
  C   C2        1.0  0.26515  0.25822  0.65054  1.0000
  C   C3        1.0  0.73485  0.25822  0.34946  1.0000
  C   C4        1.0  0.26515  0.74178  0.34946  1.0000
  C   C5        1.0  0.69367  0.77785  0.75185  1.0000
  C   C6        1.0  0.30634  0.22215  0.75185  1.0000
  C   C7        1.0  0.69366  0.22215  0.24815  1.0000
  C   C8        1.0  0.30634  0.77785  0.24815  1.0000
  C   C9        1.0  0.81869  0.89366  0.79472  1.0000
  C   C10       1.0  0.18132  0.10633  0.79473  1.0000
  C   C11       1.0  0.81868  0.10634  0.20528  1.0000
  C   C12       1.0  0.18131  0.89366  0.20528  1.0000
  C   C13       1.0  0.83467  0.84346  0.89725  1.0000
  C   C14       1.0  0.16533  0.15654  0.89725  1.0000
  C   C15       1.0  0.83466  0.15653  0.10275  1.0000
  C   C16       1.0  0.16533  0.84346  0.10275  1.0000
  C   C17       1.0  0.83694  0.67301  0.88858  1.0000
  C   C18       1.0  0.16306  0.32698  0.88858  1.0000
  C   C19       1.0  0.83694  0.32698  0.11142  1.0000
  C   C20       1.0  0.16306  0.67302  0.11142  1.0000
  N   N1        1.0  0.70198  0.64132  0.81500  1.0000
  N   N2        1.0  0.29803  0.35868  0.81500  1.0000
  N   N3        1.0  0.70197  0.35867  0.18500  1.0000
  N   N4        1.0  0.29803  0.64133  0.18500  1.0000
  Cl  Cl1       1.0  0.75107  0.25221  0.63128  1.0000
  Cl  Cl2       1.0  0.24893  0.74779  0.63128  1.0000
  Cl  Cl3       1.0  0.75107  0.74779  0.36872  1.0000
  Cl  Cl4       1.0  0.24893  0.25222  0.36872  1.0000
  Cl  Cl5       1.0  0.69692  0.29662  0.86481  1.0000
  Cl  Cl6       1.0  0.30309  0.70338  0.86481  1.0000
  Cl  Cl7       1.0  0.69691  0.70337  0.13519  1.0000
  Cl  Cl8       1.0  0.30308  0.29663  0.13519  1.0000
  O   O1        1.0  0.75254  0.59965  0.62725  1.0000
  O   O2        1.0  0.24747  0.40035  0.62725  1.0000
  O   O3        1.0  0.75253  0.40035  0.37275  1.0000
  O   O4        1.0  0.24746  0.59966  0.37275  1.0000
  O   O5        1.0  0.74883  0.84415  0.59159  1.0000
  O   O6        1.0  0.25117  0.15586  0.59160  1.0000
  O   O7        1.0  0.74883  0.15586  0.40841  1.0000
  O   O8        1.0  0.25117  0.84416  0.40840  1.0000
