data_image0
_chemical_formula_structural       Cu4H16C36N16O16
_chemical_formula_sum              "Cu4 H16 C36 N16 O16"
_cell_length_a       10.8561
_cell_length_b       11.5081
_cell_length_c       14.8407
_cell_angle_alpha    90.0002
_cell_angle_beta     109.37
_cell_angle_gamma    89.9997

_space_group_name_H-M_alt    "P 1"
_space_group_IT_number       1

loop_
  _space_group_symop_operation_xyz
  'x, y, z'

loop_
  _atom_site_type_symbol
  _atom_site_label
  _atom_site_symmetry_multiplicity
  _atom_site_fract_x
  _atom_site_fract_y
  _atom_site_fract_z
  _atom_site_occupancy
  Cu  Cu1       1.0  0.59093  0.57923  0.02276  1.0000
  Cu  Cu2       1.0  0.40907  0.07924  0.47724  1.0000
  Cu  Cu3       1.0  0.40907  0.42078  0.97724  1.0000
  Cu  Cu4       1.0  0.59092  0.92078  0.52276  1.0000
  H   H1        1.0  0.10905  0.62451  0.04720  1.0000
  H   H2        1.0  0.89095  0.12451  0.45280  1.0000
  H   H3        1.0  0.89093  0.37550  0.95280  1.0000
  H   H4        1.0  0.10907  0.87549  0.54721  1.0000
  H   H5        1.0  0.11039  0.87880  0.26168  1.0000
  H   H6        1.0  0.88962  0.37880  0.23832  1.0000
  H   H7        1.0  0.88962  0.12122  0.73831  1.0000
  H   H8        1.0  0.11039  0.62121  0.76169  1.0000
  H   H9        1.0  0.47369  0.74542  0.24544  1.0000
  H   H10       1.0  0.52632  0.24540  0.25455  1.0000
  H   H11       1.0  0.52631  0.25456  0.75456  1.0000
  H   H12       1.0  0.47369  0.75457  0.74544  1.0000
  H   H13       1.0  0.89903  0.57200  0.08545  1.0000
  H   H14       1.0  0.10097  0.07200  0.41456  1.0000
  H   H15       1.0  0.10098  0.42800  0.91456  1.0000
  H   H16       1.0  0.89902  0.92800  0.58543  1.0000
  C   C1        1.0  0.37090  0.60784  0.08991  1.0000
  C   C2        1.0  0.62909  0.10784  0.41009  1.0000
  C   C3        1.0  0.62908  0.39215  0.91009  1.0000
  C   C4        1.0  0.37091  0.89216  0.58991  1.0000
  C   C5        1.0  0.29850  0.67838  0.14099  1.0000
  C   C6        1.0  0.70150  0.17838  0.35901  1.0000
  C   C7        1.0  0.70148  0.32161  0.85902  1.0000
  C   C8        1.0  0.29852  0.82162  0.64099  1.0000
  C   C9        1.0  0.16196  0.67827  0.10817  1.0000
  C   C10       1.0  0.83804  0.17827  0.39183  1.0000
  C   C11       1.0  0.83803  0.32173  0.89183  1.0000
  C   C12       1.0  0.16197  0.82173  0.60817  1.0000
  C   C13       1.0  0.09605  0.75055  0.15237  1.0000
  C   C14       1.0  0.90395  0.25055  0.34763  1.0000
  C   C15       1.0  0.90394  0.24945  0.84764  1.0000
  C   C16       1.0  0.09606  0.74945  0.65236  1.0000
  C   C17       1.0  0.16327  0.82180  0.22883  1.0000
  C   C18       1.0  0.83673  0.32179  0.27117  1.0000
  C   C19       1.0  0.83673  0.17821  0.77117  1.0000
  C   C20       1.0  0.16327  0.67821  0.72883  1.0000
  C   C21       1.0  0.29961  0.81759  0.26338  1.0000
  C   C22       1.0  0.70039  0.31758  0.23661  1.0000
  C   C23       1.0  0.70038  0.18241  0.73662  1.0000
  C   C24       1.0  0.29962  0.68241  0.76339  1.0000
  C   C25       1.0  0.36741  0.74681  0.21924  1.0000
  C   C26       1.0  0.63259  0.24680  0.28075  1.0000
  C   C27       1.0  0.63258  0.25317  0.78076  1.0000
  C   C28       1.0  0.36742  0.75318  0.71925  1.0000
  C   C29       1.0  0.37300  0.88805  0.34945  1.0000
  C   C30       1.0  0.62700  0.38805  0.15055  1.0000
  C   C31       1.0  0.62698  0.11195  0.65055  1.0000
  C   C32       1.0  0.37301  0.61195  0.84945  1.0000
  C   C33       1.0  0.87306  0.66237  0.08832  1.0000
  C   C34       1.0  0.12695  0.16238  0.41169  1.0000
  C   C35       1.0  0.12694  0.33762  0.91169  1.0000
  C   C36       1.0  0.87305  0.83762  0.58831  1.0000
  N   N1        1.0  0.95715  0.75128  0.11911  1.0000
  N   N2        1.0  0.04285  0.25129  0.38089  1.0000
  N   N3        1.0  0.04285  0.24871  0.88090  1.0000
  N   N4        1.0  0.95715  0.74872  0.61910  1.0000
  N   N5        1.0  0.88590  0.85059  0.11476  1.0000
  N   N6        1.0  0.11410  0.35060  0.38524  1.0000
  N   N7        1.0  0.11409  0.14940  0.88525  1.0000
  N   N8        1.0  0.88590  0.64941  0.61476  1.0000
  N   N9        1.0  0.76403  0.82045  0.08206  1.0000
  N   N10       1.0  0.23597  0.32046  0.41793  1.0000
  N   N11       1.0  0.23596  0.17954  0.91794  1.0000
  N   N12       1.0  0.76404  0.67954  0.58207  1.0000
  N   N13       1.0  0.75297  0.70383  0.06500  1.0000
  N   N14       1.0  0.24703  0.20384  0.43500  1.0000
  N   N15       1.0  0.24703  0.29616  0.93500  1.0000
  N   N16       1.0  0.75297  0.79617  0.56500  1.0000
  O   O1        1.0  0.48165  0.64751  0.09325  1.0000
  O   O2        1.0  0.51834  0.14751  0.40674  1.0000
  O   O3        1.0  0.51833  0.35251  0.90674  1.0000
  O   O4        1.0  0.48166  0.85251  0.59325  1.0000
  O   O5        1.0  0.31452  0.51639  0.04724  1.0000
  O   O6        1.0  0.68548  0.01640  0.45276  1.0000
  O   O7        1.0  0.68549  0.48359  0.95277  1.0000
  O   O8        1.0  0.31451  0.98361  0.54724  1.0000
  O   O9        1.0  0.48334  0.84809  0.40045  1.0000
  O   O10       1.0  0.51667  0.34809  0.09955  1.0000
  O   O11       1.0  0.51666  0.15192  0.59955  1.0000
  O   O12       1.0  0.48334  0.65191  0.90044  1.0000
  O   O13       1.0  0.31716  0.98027  0.36376  1.0000
  O   O14       1.0  0.68284  0.48027  0.13624  1.0000
  O   O15       1.0  0.68283  0.01974  0.63623  1.0000
  O   O16       1.0  0.31716  0.51975  0.86377  1.0000
