data_image0
_chemical_formula_structural       Cu4H36C44S4N12Cl8O4
_chemical_formula_sum              "Cu4 H36 C44 S4 N12 Cl8 O4"
_cell_length_a       6.46909
_cell_length_b       12.6114
_cell_length_c       15.436
_cell_angle_alpha    90
_cell_angle_beta     91.3835
_cell_angle_gamma    90

_space_group_name_H-M_alt    "P 1"
_space_group_IT_number       1

loop_
  _space_group_symop_operation_xyz
  'x, y, z'

loop_
  _atom_site_type_symbol
  _atom_site_label
  _atom_site_symmetry_multiplicity
  _atom_site_fract_x
  _atom_site_fract_y
  _atom_site_fract_z
  _atom_site_occupancy
  Cu  Cu1       1.0  0.74253  0.93870  0.00205  1.0000
  Cu  Cu2       1.0  0.75747  0.43870  0.49795  1.0000
  Cu  Cu3       1.0  0.25747  0.06130  0.99795  1.0000
  Cu  Cu4       1.0  0.24253  0.56130  0.50205  1.0000
  H   H1        1.0  0.89271  0.75943  0.35441  1.0000
  H   H2        1.0  0.60729  0.25943  0.14559  1.0000
  H   H3        1.0  0.10728  0.24057  0.64559  1.0000
  H   H4        1.0  0.39271  0.74057  0.85441  1.0000
  H   H5        1.0  0.63055  0.75636  0.31223  1.0000
  H   H6        1.0  0.86945  0.25636  0.18777  1.0000
  H   H7        1.0  0.36944  0.24363  0.68777  1.0000
  H   H8        1.0  0.13055  0.74364  0.81223  1.0000
  H   H9        1.0  0.00138  0.61869  0.26329  1.0000
  H   H10       1.0  0.49862  0.11869  0.23671  1.0000
  H   H11       1.0  0.99861  0.38131  0.73671  1.0000
  H   H12       1.0  0.50138  0.88131  0.76329  1.0000
  H   H13       1.0  0.73736  0.58074  0.27294  1.0000
  H   H14       1.0  0.76264  0.08074  0.22706  1.0000
  H   H15       1.0  0.26263  0.41926  0.72706  1.0000
  H   H16       1.0  0.23736  0.91926  0.77294  1.0000
  H   H17       1.0  0.77488  0.40029  0.07079  1.0000
  H   H18       1.0  0.72513  0.90029  0.42921  1.0000
  H   H19       1.0  0.22512  0.59971  0.92920  1.0000
  H   H20       1.0  0.27488  0.09971  0.57079  1.0000
  H   H21       1.0  0.73541  0.23812  0.97997  1.0000
  H   H22       1.0  0.76460  0.73812  0.52004  1.0000
  H   H23       1.0  0.26459  0.76188  0.02003  1.0000
  H   H24       1.0  0.23540  0.26188  0.47997  1.0000
  H   H25       1.0  0.67687  0.25461  0.82093  1.0000
  H   H26       1.0  0.82313  0.75462  0.67907  1.0000
  H   H27       1.0  0.32313  0.74539  0.17906  1.0000
  H   H28       1.0  0.17686  0.24539  0.32094  1.0000
  H   H29       1.0  0.66135  0.43501  0.75287  1.0000
  H   H30       1.0  0.83864  0.93501  0.74713  1.0000
  H   H31       1.0  0.33864  0.56499  0.24713  1.0000
  H   H32       1.0  0.16136  0.06499  0.25287  1.0000
  H   H33       1.0  0.70550  0.59524  0.84375  1.0000
  H   H34       1.0  0.79450  0.09524  0.65624  1.0000
  H   H35       1.0  0.29450  0.40476  0.15624  1.0000
  H   H36       1.0  0.20550  0.90476  0.34376  1.0000
  C   C1        1.0  0.79437  0.74869  0.29640  1.0000
  C   C2        1.0  0.70563  0.24869  0.20360  1.0000
  C   C3        1.0  0.20563  0.25131  0.70360  1.0000
  C   C4        1.0  0.29437  0.75131  0.79640  1.0000
  C   C5        1.0  0.84063  0.64403  0.25205  1.0000
  C   C6        1.0  0.65937  0.14403  0.24795  1.0000
  C   C7        1.0  0.15937  0.35597  0.74795  1.0000
  C   C8        1.0  0.34063  0.85597  0.75205  1.0000
  C   C9        1.0  0.81413  0.76619  0.13339  1.0000
  C   C10       1.0  0.68587  0.26619  0.36661  1.0000
  C   C11       1.0  0.18587  0.23381  0.86661  1.0000
  C   C12       1.0  0.31413  0.73381  0.63339  1.0000
  C   C13       1.0  0.74773  0.71312  0.98959  1.0000
  C   C14       1.0  0.75229  0.21312  0.51042  1.0000
  C   C15       1.0  0.25229  0.28688  0.01042  1.0000
  C   C16       1.0  0.24772  0.78688  0.48959  1.0000
  C   C17       1.0  0.76170  0.60219  0.02141  1.0000
  C   C18       1.0  0.73830  0.10219  0.47859  1.0000
  C   C19       1.0  0.23829  0.39781  0.97859  1.0000
  C   C20       1.0  0.26171  0.89781  0.52141  1.0000
  C   C21       1.0  0.74070  0.50908  0.96404  1.0000
  C   C22       1.0  0.75931  0.00908  0.53596  1.0000
  C   C23       1.0  0.25931  0.49092  0.03596  1.0000
  C   C24       1.0  0.24070  0.99092  0.46404  1.0000
  C   C25       1.0  0.74977  0.40701  0.00111  1.0000
  C   C26       1.0  0.75023  0.90701  0.49889  1.0000
  C   C27       1.0  0.25023  0.59299  0.99889  1.0000
  C   C28       1.0  0.24978  0.09299  0.50111  1.0000
  C   C29       1.0  0.72721  0.31653  0.95019  1.0000
  C   C30       1.0  0.77279  0.81653  0.54982  1.0000
  C   C31       1.0  0.27279  0.68347  0.04981  1.0000
  C   C32       1.0  0.22721  0.18347  0.45019  1.0000
  C   C33       1.0  0.69469  0.32592  0.86048  1.0000
  C   C34       1.0  0.80531  0.82592  0.63953  1.0000
  C   C35       1.0  0.30530  0.67408  0.13952  1.0000
  C   C36       1.0  0.19469  0.17408  0.36048  1.0000
  C   C37       1.0  0.68719  0.42642  0.82269  1.0000
  C   C38       1.0  0.81281  0.92642  0.67731  1.0000
  C   C39       1.0  0.31280  0.57358  0.17731  1.0000
  C   C40       1.0  0.18720  0.07358  0.32269  1.0000
  C   C41       1.0  0.71114  0.51732  0.87367  1.0000
  C   C42       1.0  0.78886  0.01732  0.62633  1.0000
  C   C43       1.0  0.28886  0.48268  0.12633  1.0000
  C   C44       1.0  0.21114  0.98267  0.37367  1.0000
  S   S1        1.0  0.85909  0.85290  0.21864  1.0000
  S   S2        1.0  0.64091  0.35289  0.28136  1.0000
  S   S3        1.0  0.14090  0.14710  0.78136  1.0000
  S   S4        1.0  0.35909  0.64710  0.71865  1.0000
  N   N1        1.0  0.78583  0.58201  0.10481  1.0000
  N   N2        1.0  0.71417  0.08200  0.39519  1.0000
  N   N3        1.0  0.21417  0.41799  0.89519  1.0000
  N   N4        1.0  0.28583  0.91799  0.60481  1.0000
  N   N5        1.0  0.80604  0.66330  0.15915  1.0000
  N   N6        1.0  0.69396  0.16330  0.34085  1.0000
  N   N7        1.0  0.19396  0.33670  0.84085  1.0000
  N   N8        1.0  0.30605  0.83670  0.65915  1.0000
  N   N9        1.0  0.78770  0.79238  0.05099  1.0000
  N   N10       1.0  0.71230  0.29238  0.44901  1.0000
  N   N11       1.0  0.21230  0.20762  0.94901  1.0000
  N   N12       1.0  0.28770  0.70762  0.55100  1.0000
  Cl  Cl1       1.0  0.44717  0.95347  0.08983  1.0000
  Cl  Cl2       1.0  0.05284  0.45347  0.41017  1.0000
  Cl  Cl3       1.0  0.55284  0.04653  0.91017  1.0000
  Cl  Cl4       1.0  0.94717  0.54653  0.58982  1.0000
  Cl  Cl5       1.0  0.02179  0.93259  0.91136  1.0000
  Cl  Cl6       1.0  0.47821  0.43259  0.58864  1.0000
  Cl  Cl7       1.0  0.97821  0.06741  0.08864  1.0000
  Cl  Cl8       1.0  0.52178  0.56741  0.41136  1.0000
  O   O1        1.0  0.69886  0.73890  0.91444  1.0000
  O   O2        1.0  0.80113  0.23889  0.58554  1.0000
  O   O3        1.0  0.30113  0.26111  0.08554  1.0000
  O   O4        1.0  0.19886  0.76110  0.41445  1.0000
