data_image0
_chemical_formula_structural       Ag2P2H40C36N8O4F4
_chemical_formula_sum              "Ag2 P2 H40 C36 N8 O4 F4"
_cell_length_a       7.97409
_cell_length_b       11.0108
_cell_length_c       12.3694
_cell_angle_alpha    105.257
_cell_angle_beta     104.956
_cell_angle_gamma    102.615

_space_group_name_H-M_alt    "P 1"
_space_group_IT_number       1

loop_
  _space_group_symop_operation_xyz
  'x, y, z'

loop_
  _atom_site_type_symbol
  _atom_site_label
  _atom_site_symmetry_multiplicity
  _atom_site_fract_x
  _atom_site_fract_y
  _atom_site_fract_z
  _atom_site_occupancy
  Ag  Ag1       1.0  0.42750  0.24222  0.16181  1.0000
  Ag  Ag2       1.0  0.57251  0.75777  0.83819  1.0000
  P   P1        1.0  0.25991  0.89902  0.22498  1.0000
  P   P2        1.0  0.74008  0.10098  0.77502  1.0000
  H   H1        1.0  0.65531  0.51801  0.34372  1.0000
  H   H2        1.0  0.34469  0.48199  0.65628  1.0000
  H   H3        1.0  0.81838  0.52490  0.70462  1.0000
  H   H4        1.0  0.18161  0.47510  0.29538  1.0000
  H   H5        1.0  0.66551  0.27880  0.62687  1.0000
  H   H6        1.0  0.33449  0.72120  0.37313  1.0000
  H   H7        1.0  0.50808  0.16508  0.40819  1.0000
  H   H8        1.0  0.49192  0.83492  0.59180  1.0000
  H   H9        1.0  0.86090  0.74048  0.65953  1.0000
  H   H10       1.0  0.13911  0.25953  0.34047  1.0000
  H   H11       1.0  0.90946  0.92700  0.61501  1.0000
  H   H12       1.0  0.09054  0.07301  0.38498  1.0000
  H   H13       1.0  0.66358  0.89909  0.43034  1.0000
  H   H14       1.0  0.33642  0.10092  0.56966  1.0000
  H   H15       1.0  0.81123  0.87428  0.34708  1.0000
  H   H16       1.0  0.18877  0.12572  0.65292  1.0000
  H   H17       1.0  0.13283  0.87021  0.45129  1.0000
  H   H18       1.0  0.86717  0.12979  0.54871  1.0000
  H   H19       1.0  0.20177  0.89334  0.60508  1.0000
  H   H20       1.0  0.79824  0.10667  0.39492  1.0000
  H   H21       1.0  0.75783  0.34009  0.07410  1.0000
  H   H22       1.0  0.24217  0.65990  0.92590  1.0000
  H   H23       1.0  0.11271  0.09597  0.10789  1.0000
  H   H24       1.0  0.88729  0.90403  0.89212  1.0000
  H   H25       1.0  0.87754  0.94570  0.14911  1.0000
  H   H26       1.0  0.12246  0.05429  0.85089  1.0000
  H   H27       1.0  0.58656  0.00208  0.15334  1.0000
  H   H28       1.0  0.41344  0.99792  0.84666  1.0000
  H   H29       1.0  0.01321  0.39060  0.01706  1.0000
  H   H30       1.0  0.98679  0.60939  0.98294  1.0000
  H   H31       1.0  0.24575  0.49266  0.99987  1.0000
  H   H32       1.0  0.75425  0.50734  0.00013  1.0000
  H   H33       1.0  0.60103  0.48079  0.15934  1.0000
  H   H34       1.0  0.39897  0.51921  0.84066  1.0000
  H   H35       1.0  0.47939  0.59136  0.20128  1.0000
  H   H36       1.0  0.52061  0.40864  0.79872  1.0000
  H   H37       1.0  0.53490  0.69768  0.05440  1.0000
  H   H38       1.0  0.46510  0.30231  0.94560  1.0000
  H   H39       1.0  0.74414  0.70056  0.15036  1.0000
  H   H40       1.0  0.25586  0.29944  0.84964  1.0000
  C   C1        1.0  0.66014  0.46601  0.40758  1.0000
  C   C2        1.0  0.33986  0.53399  0.59242  1.0000
  C   C3        1.0  0.75059  0.53921  0.52836  1.0000
  C   C4        1.0  0.24941  0.46079  0.47164  1.0000
  C   C5        1.0  0.75183  0.47134  0.60947  1.0000
  C   C6        1.0  0.24816  0.52866  0.39052  1.0000
  C   C7        1.0  0.66614  0.33536  0.56690  1.0000
  C   C8        1.0  0.33386  0.66464  0.43309  1.0000
  C   C9        1.0  0.57869  0.27094  0.44498  1.0000
  C   C10       1.0  0.42130  0.72906  0.55501  1.0000
  C   C11       1.0  0.82935  0.68322  0.56485  1.0000
  C   C12       1.0  0.17066  0.31678  0.43515  1.0000
  C   C13       1.0  0.92013  0.88095  0.52679  1.0000
  C   C14       1.0  0.07987  0.11905  0.47321  1.0000
  C   C15       1.0  0.80652  0.92723  0.43471  1.0000
  C   C16       1.0  0.19349  0.07277  0.56529  1.0000
  C   C17       1.0  0.12108  0.92361  0.53622  1.0000
  C   C18       1.0  0.87892  0.07639  0.46378  1.0000
  C   C19       1.0  0.78900  0.25392  0.09166  1.0000
  C   C20       1.0  0.21100  0.74608  0.90834  1.0000
  C   C21       1.0  0.95448  0.23214  0.08756  1.0000
  C   C22       1.0  0.04552  0.76786  0.91244  1.0000
  C   C23       1.0  0.98706  0.11935  0.10956  1.0000
  C   C24       1.0  0.01294  0.88064  0.89044  1.0000
  C   C25       1.0  0.85471  0.03438  0.13269  1.0000
  C   C26       1.0  0.14530  0.96561  0.86731  1.0000
  C   C27       1.0  0.69465  0.06477  0.13531  1.0000
  C   C28       1.0  0.30535  0.93522  0.86470  1.0000
  C   C29       1.0  0.07701  0.32647  0.05707  1.0000
  C   C30       1.0  0.92299  0.67353  0.94293  1.0000
  C   C31       1.0  0.33965  0.43765  0.02841  1.0000
  C   C32       1.0  0.66035  0.56234  0.97159  1.0000
  C   C33       1.0  0.51293  0.53685  0.12580  1.0000
  C   C34       1.0  0.48707  0.46314  0.87420  1.0000
  C   C35       1.0  0.61671  0.63462  0.07994  1.0000
  C   C36       1.0  0.38330  0.36538  0.92005  1.0000
  N   N1        1.0  0.57503  0.33560  0.36610  1.0000
  N   N2        1.0  0.42497  0.66440  0.63389  1.0000
  N   N3        1.0  0.85265  0.73795  0.48851  1.0000
  N   N4        1.0  0.14735  0.26206  0.51149  1.0000
  N   N5        1.0  0.66253  0.17393  0.11600  1.0000
  N   N6        1.0  0.33747  0.82606  0.88400  1.0000
  N   N7        1.0  0.24683  0.34027  0.07244  1.0000
  N   N8        1.0  0.75317  0.65973  0.92756  1.0000
  O   O1        1.0  0.32162  0.01197  0.18484  1.0000
  O   O2        1.0  0.67836  0.98803  0.81515  1.0000
  O   O3        1.0  0.06665  0.82803  0.20193  1.0000
  O   O4        1.0  0.93336  0.17197  0.79808  1.0000
  F   F1        1.0  0.35845  0.79126  0.18248  1.0000
  F   F2        1.0  0.64155  0.20873  0.81752  1.0000
  F   F3        1.0  0.37086  0.94303  0.36428  1.0000
  F   F4        1.0  0.62915  0.05697  0.63572  1.0000
