data_image0
_chemical_formula_structural       Zn4H48C40N8O24
_chemical_formula_sum              "Zn4 H48 C40 N8 O24"
_cell_length_a       6.67487
_cell_length_b       12.7654
_cell_length_c       14.4202
_cell_angle_alpha    90
_cell_angle_beta     90
_cell_angle_gamma    90

_space_group_name_H-M_alt    "P 1"
_space_group_IT_number       1

loop_
  _space_group_symop_operation_xyz
  'x, y, z'

loop_
  _atom_site_type_symbol
  _atom_site_label
  _atom_site_symmetry_multiplicity
  _atom_site_fract_x
  _atom_site_fract_y
  _atom_site_fract_z
  _atom_site_occupancy
  Zn  Zn1       1.0  0.34091  0.19193  0.45733  1.0000
  Zn  Zn2       1.0  0.84091  0.80807  0.04267  1.0000
  Zn  Zn3       1.0  0.65909  0.30807  0.95733  1.0000
  Zn  Zn4       1.0  0.15909  0.69193  0.54267  1.0000
  H   H1        1.0  0.16606  0.42974  0.77949  1.0000
  H   H2        1.0  0.66606  0.57026  0.72051  1.0000
  H   H3        1.0  0.83394  0.07026  0.27949  1.0000
  H   H4        1.0  0.33394  0.92974  0.22051  1.0000
  H   H5        1.0  0.28896  0.23845  0.75613  1.0000
  H   H6        1.0  0.78895  0.76155  0.74387  1.0000
  H   H7        1.0  0.71105  0.26155  0.25613  1.0000
  H   H8        1.0  0.21104  0.73845  0.24387  1.0000
  H   H9        1.0  0.07001  0.02734  0.63417  1.0000
  H   H10       1.0  0.57001  0.97267  0.86583  1.0000
  H   H11       1.0  0.92999  0.47267  0.13417  1.0000
  H   H12       1.0  0.42999  0.52734  0.36583  1.0000
  H   H13       1.0  0.94219  0.01133  0.46599  1.0000
  H   H14       1.0  0.44219  0.98867  0.03401  1.0000
  H   H15       1.0  0.05781  0.48867  0.96599  1.0000
  H   H16       1.0  0.55781  0.51133  0.53401  1.0000
  H   H17       1.0  0.10193  0.39269  0.54272  1.0000
  H   H18       1.0  0.60194  0.60731  0.95729  1.0000
  H   H19       1.0  0.89807  0.10731  0.04272  1.0000
  H   H20       1.0  0.39807  0.89269  0.45728  1.0000
  H   H21       1.0  0.89596  0.30637  0.54509  1.0000
  H   H22       1.0  0.39596  0.69362  0.95491  1.0000
  H   H23       1.0  0.10404  0.19362  0.04509  1.0000
  H   H24       1.0  0.60404  0.80637  0.45491  1.0000
  H   H25       1.0  0.93854  0.48610  0.66492  1.0000
  H   H26       1.0  0.43854  0.51390  0.83508  1.0000
  H   H27       1.0  0.06146  0.01390  0.16492  1.0000
  H   H28       1.0  0.56146  0.98610  0.33508  1.0000
  H   H29       1.0  0.77600  0.37939  0.68858  1.0000
  H   H30       1.0  0.27600  0.62061  0.81142  1.0000
  H   H31       1.0  0.22400  0.12061  0.18858  1.0000
  H   H32       1.0  0.72400  0.87938  0.31142  1.0000
  H   H33       1.0  0.67456  0.16859  0.65257  1.0000
  H   H34       1.0  0.17456  0.83141  0.84743  1.0000
  H   H35       1.0  0.32544  0.33141  0.15257  1.0000
  H   H36       1.0  0.82545  0.66859  0.34743  1.0000
  H   H37       1.0  0.47304  0.08205  0.64105  1.0000
  H   H38       1.0  0.97304  0.91795  0.85895  1.0000
  H   H39       1.0  0.52696  0.41795  0.14105  1.0000
  H   H40       1.0  0.02696  0.58205  0.35895  1.0000
  H   H41       1.0  0.81239  0.03241  0.74910  1.0000
  H   H42       1.0  0.31239  0.96759  0.75090  1.0000
  H   H43       1.0  0.18761  0.46759  0.24910  1.0000
  H   H44       1.0  0.68761  0.53241  0.25090  1.0000
  H   H45       1.0  0.67086  0.93357  0.69087  1.0000
  H   H46       1.0  0.17086  0.06643  0.80913  1.0000
  H   H47       1.0  0.32914  0.56643  0.19087  1.0000
  H   H48       1.0  0.82914  0.43357  0.30913  1.0000
  C   C1        1.0  0.15075  0.26087  0.62836  1.0000
  C   C2        1.0  0.65075  0.73913  0.87164  1.0000
  C   C3        1.0  0.84926  0.23913  0.12836  1.0000
  C   C4        1.0  0.34925  0.76087  0.37164  1.0000
  C   C5        1.0  0.01178  0.34247  0.58863  1.0000
  C   C6        1.0  0.51178  0.65753  0.91137  1.0000
  C   C7        1.0  0.98823  0.15753  0.08863  1.0000
  C   C8        1.0  0.48823  0.84247  0.41137  1.0000
  C   C9        1.0  0.93214  0.40110  0.67412  1.0000
  C   C10       1.0  0.43214  0.59889  0.82589  1.0000
  C   C11       1.0  0.06786  0.09890  0.17412  1.0000
  C   C12       1.0  0.56786  0.90110  0.32589  1.0000
  C   C13       1.0  0.06867  0.36549  0.75597  1.0000
  C   C14       1.0  0.56867  0.63451  0.74403  1.0000
  C   C15       1.0  0.93133  0.13451  0.25597  1.0000
  C   C16       1.0  0.43133  0.86549  0.24403  1.0000
  C   C17       1.0  0.94678  0.32685  0.83860  1.0000
  C   C18       1.0  0.44678  0.67315  0.66140  1.0000
  C   C19       1.0  0.05322  0.17315  0.33860  1.0000
  C   C20       1.0  0.55322  0.82685  0.16140  1.0000
  C   C21       1.0  0.69276  0.07626  0.53059  1.0000
  C   C22       1.0  0.19276  0.92375  0.96941  1.0000
  C   C23       1.0  0.30724  0.42375  0.03059  1.0000
  C   C24       1.0  0.80724  0.57626  0.46941  1.0000
  C   C25       1.0  0.63476  0.08844  0.63101  1.0000
  C   C26       1.0  0.13476  0.91156  0.86899  1.0000
  C   C27       1.0  0.36524  0.41156  0.13101  1.0000
  C   C28       1.0  0.86523  0.58844  0.36899  1.0000
  C   C29       1.0  0.75940  0.00536  0.68138  1.0000
  C   C30       1.0  0.25940  0.99464  0.81862  1.0000
  C   C31       1.0  0.24059  0.49464  0.18138  1.0000
  C   C32       1.0  0.74059  0.50536  0.31862  1.0000
  C   C33       1.0  0.93488  0.98261  0.61473  1.0000
  C   C34       1.0  0.43487  0.01739  0.88527  1.0000
  C   C35       1.0  0.06513  0.51739  0.11473  1.0000
  C   C36       1.0  0.56513  0.48262  0.38527  1.0000
  C   C37       1.0  0.99776  0.86808  0.60879  1.0000
  C   C38       1.0  0.49775  0.13192  0.89121  1.0000
  C   C39       1.0  0.00224  0.63192  0.10879  1.0000
  C   C40       1.0  0.50224  0.36808  0.39120  1.0000
  N   N1        1.0  0.18752  0.28108  0.71696  1.0000
  N   N2        1.0  0.68753  0.71891  0.78304  1.0000
  N   N3        1.0  0.81247  0.21892  0.21696  1.0000
  N   N4        1.0  0.31247  0.78108  0.28304  1.0000
  N   N5        1.0  0.86186  0.02107  0.52555  1.0000
  N   N6        1.0  0.36185  0.97893  0.97445  1.0000
  N   N7        1.0  0.13815  0.47893  0.02555  1.0000
  N   N8        1.0  0.63814  0.52107  0.47445  1.0000
  O   O1        1.0  0.22421  0.18266  0.58602  1.0000
  O   O2        1.0  0.72420  0.81734  0.91398  1.0000
  O   O3        1.0  0.77579  0.31734  0.08602  1.0000
  O   O4        1.0  0.27579  0.68266  0.41398  1.0000
  O   O5        1.0  0.95741  0.23437  0.86603  1.0000
  O   O6        1.0  0.45741  0.76563  0.63397  1.0000
  O   O7        1.0  0.04259  0.26563  0.36603  1.0000
  O   O8        1.0  0.54259  0.73437  0.13397  1.0000
  O   O9        1.0  0.82841  0.39686  0.87513  1.0000
  O   O10       1.0  0.32841  0.60314  0.62488  1.0000
  O   O11       1.0  0.17159  0.10314  0.37512  1.0000
  O   O12       1.0  0.67159  0.89686  0.12488  1.0000
  O   O13       1.0  0.60338  0.11240  0.46021  1.0000
  O   O14       1.0  0.10337  0.88760  0.03979  1.0000
  O   O15       1.0  0.39663  0.38760  0.96021  1.0000
  O   O16       1.0  0.89662  0.61240  0.53979  1.0000
  O   O17       1.0  0.06151  0.83847  0.52872  1.0000
  O   O18       1.0  0.56152  0.16153  0.97128  1.0000
  O   O19       1.0  0.93848  0.66153  0.02872  1.0000
  O   O20       1.0  0.43848  0.33847  0.47128  1.0000
  O   O21       1.0  0.99331  0.81084  0.67944  1.0000
  O   O22       1.0  0.49331  0.18916  0.82056  1.0000
  O   O23       1.0  0.00669  0.68916  0.17944  1.0000
  O   O24       1.0  0.50669  0.31084  0.32056  1.0000
