data_image0
_chemical_formula_structural       Li2H48C46N8O2F18
_chemical_formula_sum              "Li2 H48 C46 N8 O2 F18"
_cell_length_a       8.65644
_cell_length_b       9.39636
_cell_length_c       16.647
_cell_angle_alpha    90
_cell_angle_beta     90
_cell_angle_gamma    114.444

_space_group_name_H-M_alt    "P 1"
_space_group_IT_number       1

loop_
  _space_group_symop_operation_xyz
  'x, y, z'

loop_
  _atom_site_type_symbol
  _atom_site_label
  _atom_site_symmetry_multiplicity
  _atom_site_fract_x
  _atom_site_fract_y
  _atom_site_fract_z
  _atom_site_occupancy
  Li  Li1       1.0  0.97635  0.22895  0.78582  1.0000
  Li  Li2       1.0  0.02365  0.77105  0.28582  1.0000
  H   H1        1.0  0.11721  0.93786  0.91750  1.0000
  H   H2        1.0  0.88279  0.06215  0.41750  1.0000
  H   H3        1.0  0.96244  0.88991  0.84068  1.0000
  H   H4        1.0  0.03756  0.11009  0.34068  1.0000
  H   H5        1.0  0.26431  0.97717  0.79049  1.0000
  H   H6        1.0  0.73569  0.02283  0.29049  1.0000
  H   H7        1.0  0.31278  0.16406  0.83230  1.0000
  H   H8        1.0  0.68722  0.83594  0.33230  1.0000
  H   H9        1.0  0.24650  0.27635  0.92694  1.0000
  H   H10       1.0  0.75350  0.72366  0.42694  1.0000
  H   H11       1.0  0.14502  0.14896  0.00874  1.0000
  H   H12       1.0  0.85498  0.85104  0.50874  1.0000
  H   H13       1.0  0.07218  0.29203  0.97604  1.0000
  H   H14       1.0  0.92783  0.70797  0.47604  1.0000
  H   H15       1.0  0.79347  0.09972  0.96112  1.0000
  H   H16       1.0  0.20653  0.90028  0.46112  1.0000
  H   H17       1.0  0.85263  0.94655  0.99114  1.0000
  H   H18       1.0  0.14737  0.05345  0.49114  1.0000
  H   H19       1.0  0.74876  0.93525  0.89715  1.0000
  H   H20       1.0  0.25124  0.06476  0.39715  1.0000
  H   H21       1.0  0.99778  0.02166  0.63208  1.0000
  H   H22       1.0  0.00222  0.97834  0.13208  1.0000
  H   H23       1.0  0.93736  0.89738  0.71692  1.0000
  H   H24       1.0  0.06264  0.10263  0.21692  1.0000
  H   H25       1.0  0.12150  0.91771  0.66123  1.0000
  H   H26       1.0  0.87850  0.08229  0.16123  1.0000
  H   H27       1.0  0.37362  0.31973  0.72376  1.0000
  H   H28       1.0  0.62638  0.68027  0.22376  1.0000
  H   H29       1.0  0.24704  0.26305  0.63521  1.0000
  H   H30       1.0  0.75297  0.73695  0.13521  1.0000
  H   H31       1.0  0.37276  0.16087  0.66450  1.0000
  H   H32       1.0  0.62724  0.83913  0.16450  1.0000
  H   H33       1.0  0.00114  0.58193  0.83642  1.0000
  H   H34       1.0  0.99886  0.41807  0.33642  1.0000
  H   H35       1.0  0.03485  0.51367  0.93222  1.0000
  H   H36       1.0  0.96515  0.48633  0.43221  1.0000
  H   H37       1.0  0.82590  0.59301  0.98444  1.0000
  H   H38       1.0  0.17410  0.40699  0.48444  1.0000
  H   H39       1.0  0.78208  0.63877  0.88640  1.0000
  H   H40       1.0  0.21792  0.36123  0.38640  1.0000
  H   H41       1.0  0.61338  0.33105  0.97583  1.0000
  H   H42       1.0  0.38662  0.66895  0.47584  1.0000
  H   H43       1.0  0.52378  0.41548  0.90433  1.0000
  H   H44       1.0  0.47621  0.58452  0.40433  1.0000
  H   H45       1.0  0.61398  0.17632  0.85951  1.0000
  H   H46       1.0  0.38601  0.82367  0.35951  1.0000
  H   H47       1.0  0.65134  0.33591  0.79262  1.0000
  H   H48       1.0  0.34866  0.66408  0.29262  1.0000
  C   C1        1.0  0.16271  0.54027  0.69230  1.0000
  C   C2        1.0  0.83729  0.45973  0.19230  1.0000
  C   C3        1.0  0.27642  0.56001  0.75801  1.0000
  C   C4        1.0  0.72357  0.43998  0.25801  1.0000
  C   C5        1.0  0.42503  0.69004  0.76893  1.0000
  C   C6        1.0  0.57497  0.30997  0.26894  1.0000
  C   C7        1.0  0.47825  0.81746  0.71487  1.0000
  C   C8        1.0  0.52175  0.18254  0.21488  1.0000
  C   C9        1.0  0.37128  0.80029  0.64815  1.0000
  C   C10       1.0  0.62871  0.19971  0.14815  1.0000
  C   C11       1.0  0.22179  0.66984  0.63747  1.0000
  C   C12       1.0  0.77821  0.33016  0.13748  1.0000
  C   C13       1.0  0.89021  0.39578  0.63730  1.0000
  C   C14       1.0  0.10980  0.60421  0.13730  1.0000
  C   C15       1.0  0.82590  0.27960  0.57773  1.0000
  C   C16       1.0  0.17410  0.72039  0.07773  1.0000
  C   C17       1.0  0.68487  0.25929  0.53092  1.0000
  C   C18       1.0  0.31513  0.74071  0.03093  1.0000
  C   C19       1.0  0.60019  0.35562  0.54252  1.0000
  C   C20       1.0  0.39982  0.64439  0.04252  1.0000
  C   C21       1.0  0.66006  0.47288  0.60058  1.0000
  C   C22       1.0  0.33994  0.52712  0.10058  1.0000
  C   C23       1.0  0.80064  0.49058  0.64674  1.0000
  C   C24       1.0  0.19936  0.50941  0.14674  1.0000
  C   C25       1.0  0.06953  0.98785  0.86809  1.0000
  C   C26       1.0  0.93047  0.01215  0.36809  1.0000
  C   C27       1.0  0.20925  0.06145  0.80612  1.0000
  C   C28       1.0  0.79075  0.93856  0.30612  1.0000
  C   C29       1.0  0.12361  0.20957  0.95553  1.0000
  C   C30       1.0  0.87640  0.79043  0.45553  1.0000
  C   C31       1.0  0.84119  0.01541  0.93924  1.0000
  C   C32       1.0  0.15881  0.98459  0.43924  1.0000
  C   C33       1.0  0.04625  0.98030  0.68361  1.0000
  C   C34       1.0  0.95375  0.01970  0.18361  1.0000
  C   C35       1.0  0.29342  0.21962  0.68691  1.0000
  C   C36       1.0  0.70658  0.78038  0.18692  1.0000
  C   C37       1.0  0.93805  0.50667  0.88788  1.0000
  C   C38       1.0  0.06195  0.49333  0.38788  1.0000
  C   C39       1.0  0.79755  0.54836  0.92289  1.0000
  C   C40       1.0  0.20245  0.45164  0.42289  1.0000
  C   C41       1.0  0.63640  0.39475  0.91867  1.0000
  C   C42       1.0  0.36359  0.60525  0.41867  1.0000
  C   C43       1.0  0.67874  0.30364  0.85312  1.0000
  C   C44       1.0  0.32126  0.69636  0.35312  1.0000
  C   C45       1.0  0.62633  0.95219  0.72890  1.0000
  C   C46       1.0  0.37368  0.04782  0.22890  1.0000
  N   N1        1.0  0.02356  0.40693  0.68668  1.0000
  N   N2        1.0  0.97644  0.59307  0.18668  1.0000
  N   N3        1.0  0.74997  0.06298  0.74368  1.0000
  N   N4        1.0  0.25002  0.93701  0.24368  1.0000
  N   N5        1.0  0.00434  0.09932  0.89866  1.0000
  N   N6        1.0  0.99566  0.90068  0.39866  1.0000
  N   N7        1.0  0.14920  0.11367  0.73413  1.0000
  N   N8        1.0  0.85080  0.88633  0.23413  1.0000
  O   O1        1.0  0.85810  0.34539  0.86136  1.0000
  O   O2        1.0  0.14190  0.65461  0.36136  1.0000
  F   F1        1.0  0.23173  0.44253  0.81356  1.0000
  F   F2        1.0  0.76827  0.55747  0.31356  1.0000
  F   F3        1.0  0.52345  0.69781  0.83341  1.0000
  F   F4        1.0  0.47655  0.30219  0.33342  1.0000
  F   F5        1.0  0.41854  0.91641  0.59277  1.0000
  F   F6        1.0  0.58145  0.08359  0.09277  1.0000
  F   F7        1.0  0.12952  0.66239  0.56997  1.0000
  F   F8        1.0  0.87047  0.33761  0.06998  1.0000
  F   F9        1.0  0.90763  0.18657  0.56223  1.0000
  F   F10       1.0  0.09237  0.81343  0.06223  1.0000
  F   F11       1.0  0.63111  0.14779  0.47322  1.0000
  F   F12       1.0  0.36889  0.85222  0.97322  1.0000
  F   F13       1.0  0.46024  0.33447  0.49943  1.0000
  F   F14       1.0  0.53977  0.66553  0.99943  1.0000
  F   F15       1.0  0.57909  0.56750  0.61237  1.0000
  F   F16       1.0  0.42091  0.43250  0.11237  1.0000
  F   F17       1.0  0.85307  0.60486  0.70354  1.0000
  F   F18       1.0  0.14693  0.39514  0.20354  1.0000
