data_image0
_chemical_formula_structural       Cu4H48C36N12Cl4O4
_chemical_formula_sum              "Cu4 H48 C36 N12 Cl4 O4"
_cell_length_a       7.02014
_cell_length_b       7.61613
_cell_length_c       22.407
_cell_angle_alpha    90
_cell_angle_beta     90
_cell_angle_gamma    90.0742

_space_group_name_H-M_alt    "P 1"
_space_group_IT_number       1

loop_
  _space_group_symop_operation_xyz
  'x, y, z'

loop_
  _atom_site_type_symbol
  _atom_site_label
  _atom_site_symmetry_multiplicity
  _atom_site_fract_x
  _atom_site_fract_y
  _atom_site_fract_z
  _atom_site_occupancy
  Cu  Cu1       1.0  0.94594  0.60666  0.71687  1.0000
  Cu  Cu2       1.0  0.05407  0.89334  0.21686  1.0000
  Cu  Cu3       1.0  0.05406  0.39335  0.28313  1.0000
  Cu  Cu4       1.0  0.94593  0.10666  0.78313  1.0000
  H   H1        1.0  0.82410  0.75337  0.62421  1.0000
  H   H2        1.0  0.17591  0.74661  0.12420  1.0000
  H   H3        1.0  0.17589  0.24663  0.37579  1.0000
  H   H4        1.0  0.82408  0.25339  0.87580  1.0000
  H   H5        1.0  0.66210  0.60463  0.64133  1.0000
  H   H6        1.0  0.33791  0.89536  0.14132  1.0000
  H   H7        1.0  0.33789  0.39537  0.35867  1.0000
  H   H8        1.0  0.66209  0.10464  0.85868  1.0000
  H   H9        1.0  0.79169  0.49840  0.55489  1.0000
  H   H10       1.0  0.20832  0.00157  0.05488  1.0000
  H   H11       1.0  0.20830  0.50159  0.44512  1.0000
  H   H12       1.0  0.79167  0.99843  0.94512  1.0000
  H   H13       1.0  0.88866  0.37403  0.61448  1.0000
  H   H14       1.0  0.11137  0.12596  0.11447  1.0000
  H   H15       1.0  0.11134  0.62597  0.38552  1.0000
  H   H16       1.0  0.88862  0.87404  0.88553  1.0000
  H   H17       1.0  0.13698  0.46307  0.54008  1.0000
  H   H18       1.0  0.86304  0.03693  0.04007  1.0000
  H   H19       1.0  0.86301  0.53693  0.45992  1.0000
  H   H20       1.0  0.13695  0.96308  0.95993  1.0000
  H   H21       1.0  0.08640  0.68558  0.55229  1.0000
  H   H22       1.0  0.91360  0.81441  0.05228  1.0000
  H   H23       1.0  0.91359  0.31442  0.44771  1.0000
  H   H24       1.0  0.08639  0.18559  0.94772  1.0000
  H   H25       1.0  0.44619  0.66096  0.71677  1.0000
  H   H26       1.0  0.55382  0.83904  0.21676  1.0000
  H   H27       1.0  0.55381  0.33904  0.28323  1.0000
  H   H28       1.0  0.44618  0.16096  0.78324  1.0000
  H   H29       1.0  0.44172  0.43253  0.71246  1.0000
  H   H30       1.0  0.55829  0.06746  0.21246  1.0000
  H   H31       1.0  0.55828  0.56747  0.28754  1.0000
  H   H32       1.0  0.44171  0.93253  0.78754  1.0000
  H   H33       1.0  0.55116  0.48373  0.82309  1.0000
  H   H34       1.0  0.44886  0.01631  0.32309  1.0000
  H   H35       1.0  0.44884  0.51627  0.17691  1.0000
  H   H36       1.0  0.55115  0.98370  0.67692  1.0000
  H   H37       1.0  0.41808  0.47754  0.92766  1.0000
  H   H38       1.0  0.58196  0.02252  0.42765  1.0000
  H   H39       1.0  0.58192  0.52246  0.07233  1.0000
  H   H40       1.0  0.41807  0.97749  0.57235  1.0000
  H   H41       1.0  0.06759  0.53827  0.94190  1.0000
  H   H42       1.0  0.93244  0.96179  0.44189  1.0000
  H   H43       1.0  0.93241  0.46173  0.05810  1.0000
  H   H44       1.0  0.06758  0.03822  0.55811  1.0000
  H   H45       1.0  0.86748  0.59546  0.85060  1.0000
  H   H46       1.0  0.13253  0.90456  0.35059  1.0000
  H   H47       1.0  0.13252  0.40454  0.14940  1.0000
  H   H48       1.0  0.86748  0.09544  0.64941  1.0000
  C   C1        1.0  0.88781  0.50455  0.59373  1.0000
  C   C2        1.0  0.11220  0.99544  0.09372  1.0000
  C   C3        1.0  0.11218  0.49544  0.40627  1.0000
  C   C4        1.0  0.88779  0.00456  0.90628  1.0000
  C   C5        1.0  0.08799  0.55590  0.57438  1.0000
  C   C6        1.0  0.91203  0.94409  0.07437  1.0000
  C   C7        1.0  0.91201  0.44411  0.42562  1.0000
  C   C8        1.0  0.08796  0.05590  0.92563  1.0000
  C   C9        1.0  0.24441  0.55998  0.62167  1.0000
  C   C10       1.0  0.75560  0.94001  0.12167  1.0000
  C   C11       1.0  0.75558  0.44002  0.37833  1.0000
  C   C12       1.0  0.24440  0.05998  0.87834  1.0000
  C   C13       1.0  0.34934  0.54683  0.72098  1.0000
  C   C14       1.0  0.65067  0.95316  0.22097  1.0000
  C   C15       1.0  0.65066  0.45317  0.27902  1.0000
  C   C16       1.0  0.34933  0.04683  0.77903  1.0000
  C   C17       1.0  0.28000  0.54090  0.78379  1.0000
  C   C18       1.0  0.72001  0.95910  0.28378  1.0000
  C   C19       1.0  0.72000  0.45910  0.21621  1.0000
  C   C20       1.0  0.28000  0.04090  0.71622  1.0000
  C   C21       1.0  0.40124  0.50874  0.83222  1.0000
  C   C22       1.0  0.59878  0.99128  0.33221  1.0000
  C   C23       1.0  0.59876  0.49125  0.16778  1.0000
  C   C24       1.0  0.40123  0.00872  0.66779  1.0000
  C   C25       1.0  0.32658  0.50598  0.88956  1.0000
  C   C26       1.0  0.67346  0.99406  0.38956  1.0000
  C   C27       1.0  0.67342  0.49401  0.11043  1.0000
  C   C28       1.0  0.32657  0.00595  0.61045  1.0000
  C   C29       1.0  0.13184  0.53736  0.89762  1.0000
  C   C30       1.0  0.86819  0.96269  0.39760  1.0000
  C   C31       1.0  0.86816  0.46265  0.10239  1.0000
  C   C32       1.0  0.13183  0.03731  0.60240  1.0000
  C   C33       1.0  0.01968  0.56836  0.84776  1.0000
  C   C34       1.0  0.98034  0.93166  0.34775  1.0000
  C   C35       1.0  0.98032  0.43164  0.15224  1.0000
  C   C36       1.0  0.01967  0.06834  0.65225  1.0000
  N   N1        1.0  0.80798  0.62654  0.63847  1.0000
  N   N2        1.0  0.19203  0.87345  0.13846  1.0000
  N   N3        1.0  0.19201  0.37347  0.36153  1.0000
  N   N4        1.0  0.80797  0.12655  0.86154  1.0000
  N   N5        1.0  0.19259  0.55443  0.67893  1.0000
  N   N6        1.0  0.80742  0.94556  0.17892  1.0000
  N   N7        1.0  0.80741  0.44557  0.32107  1.0000
  N   N8        1.0  0.19257  0.05443  0.82108  1.0000
  N   N9        1.0  0.09283  0.56956  0.79226  1.0000
  N   N10       1.0  0.90718  0.93044  0.29225  1.0000
  N   N11       1.0  0.90717  0.43045  0.20774  1.0000
  N   N12       1.0  0.09282  0.06956  0.70775  1.0000
  Cl  Cl1       1.0  0.74963  0.30899  0.73851  1.0000
  Cl  Cl2       1.0  0.25037  0.19101  0.23851  1.0000
  Cl  Cl3       1.0  0.25037  0.69101  0.26148  1.0000
  Cl  Cl4       1.0  0.74963  0.80899  0.76149  1.0000
  O   O1        1.0  0.41581  0.56658  0.60399  1.0000
  O   O2        1.0  0.58419  0.93343  0.10398  1.0000
  O   O3        1.0  0.58418  0.43343  0.39601  1.0000
  O   O4        1.0  0.41580  0.06657  0.89602  1.0000
