data_image0
_chemical_formula_structural       Cd4H44C52N4O24
_chemical_formula_sum              "Cd4 H44 C52 N4 O24"
_cell_length_a       7.90968
_cell_length_b       12.063
_cell_length_c       13.678
_cell_angle_alpha    90
_cell_angle_beta     98.9065
_cell_angle_gamma    90

_space_group_name_H-M_alt    "P 1"
_space_group_IT_number       1

loop_
  _space_group_symop_operation_xyz
  'x, y, z'

loop_
  _atom_site_type_symbol
  _atom_site_label
  _atom_site_symmetry_multiplicity
  _atom_site_fract_x
  _atom_site_fract_y
  _atom_site_fract_z
  _atom_site_occupancy
  Cd  Cd1       1.0  0.64101  0.91505  0.83046  1.0000
  Cd  Cd2       1.0  0.85899  0.41505  0.16954  1.0000
  Cd  Cd3       1.0  0.35900  0.08495  0.16954  1.0000
  Cd  Cd4       1.0  0.14101  0.58495  0.83046  1.0000
  H   H1        1.0  0.99767  0.86395  0.79742  1.0000
  H   H2        1.0  0.50233  0.36395  0.20258  1.0000
  H   H3        1.0  0.00234  0.13605  0.20258  1.0000
  H   H4        1.0  0.49767  0.63605  0.79742  1.0000
  H   H5        1.0  0.01631  0.95979  0.87907  1.0000
  H   H6        1.0  0.48369  0.45979  0.12093  1.0000
  H   H7        1.0  0.98369  0.04021  0.12093  1.0000
  H   H8        1.0  0.51631  0.54021  0.87907  1.0000
  H   H9        1.0  0.27421  0.86056  0.79675  1.0000
  H   H10       1.0  0.22579  0.36056  0.20325  1.0000
  H   H11       1.0  0.72579  0.13944  0.20325  1.0000
  H   H12       1.0  0.77421  0.63944  0.79675  1.0000
  H   H13       1.0  0.29702  0.96116  0.87454  1.0000
  H   H14       1.0  0.20298  0.46116  0.12546  1.0000
  H   H15       1.0  0.70298  0.03884  0.12546  1.0000
  H   H16       1.0  0.79702  0.53884  0.87454  1.0000
  H   H17       1.0  0.75476  0.63535  0.04754  1.0000
  H   H18       1.0  0.74524  0.13535  0.95245  1.0000
  H   H19       1.0  0.24524  0.36465  0.95246  1.0000
  H   H20       1.0  0.25476  0.86465  0.04754  1.0000
  H   H21       1.0  0.91637  0.92004  0.22773  1.0000
  H   H22       1.0  0.58363  0.42004  0.77227  1.0000
  H   H23       1.0  0.08363  0.07996  0.77227  1.0000
  H   H24       1.0  0.41637  0.57996  0.22773  1.0000
  H   H25       1.0  0.00399  0.58386  0.33300  1.0000
  H   H26       1.0  0.49600  0.08386  0.66700  1.0000
  H   H27       1.0  0.99600  0.41614  0.66700  1.0000
  H   H28       1.0  0.50400  0.91614  0.33300  1.0000
  H   H29       1.0  0.13201  0.95842  0.33278  1.0000
  H   H30       1.0  0.36799  0.45842  0.66722  1.0000
  H   H31       1.0  0.86799  0.04158  0.66722  1.0000
  H   H32       1.0  0.63201  0.54158  0.33278  1.0000
  H   H33       1.0  0.25257  0.03578  0.49384  1.0000
  H   H34       1.0  0.24743  0.53578  0.50616  1.0000
  H   H35       1.0  0.74743  0.96422  0.50616  1.0000
  H   H36       1.0  0.75257  0.46422  0.49384  1.0000
  H   H37       1.0  0.23933  0.92858  0.64917  1.0000
  H   H38       1.0  0.26067  0.42858  0.35083  1.0000
  H   H39       1.0  0.76067  0.07142  0.35083  1.0000
  H   H40       1.0  0.73933  0.57142  0.64917  1.0000
  H   H41       1.0  0.98972  0.66075  0.47694  1.0000
  H   H42       1.0  0.51028  0.16075  0.52306  1.0000
  H   H43       1.0  0.01028  0.33925  0.52306  1.0000
  H   H44       1.0  0.48972  0.83925  0.47694  1.0000
  C   C1        1.0  0.76720  0.86084  0.04040  1.0000
  C   C2        1.0  0.73280  0.36084  0.95960  1.0000
  C   C3        1.0  0.23280  0.13916  0.95960  1.0000
  C   C4        1.0  0.26720  0.63916  0.04040  1.0000
  C   C5        1.0  0.83116  0.78778  0.12688  1.0000
  C   C6        1.0  0.66884  0.28779  0.87312  1.0000
  C   C7        1.0  0.16884  0.21222  0.87312  1.0000
  C   C8        1.0  0.33116  0.71221  0.12688  1.0000
  C   C9        1.0  0.81612  0.67281  0.11645  1.0000
  C   C10       1.0  0.68388  0.17281  0.88355  1.0000
  C   C11       1.0  0.18388  0.32719  0.88355  1.0000
  C   C12       1.0  0.31612  0.82719  0.11645  1.0000
  C   C13       1.0  0.90724  0.83064  0.21755  1.0000
  C   C14       1.0  0.59276  0.33064  0.78245  1.0000
  C   C15       1.0  0.09276  0.16936  0.78245  1.0000
  C   C16       1.0  0.40724  0.66936  0.21755  1.0000
  C   C17       1.0  0.97090  0.75932  0.29552  1.0000
  C   C18       1.0  0.52911  0.25933  0.70448  1.0000
  C   C19       1.0  0.02910  0.24067  0.70448  1.0000
  C   C20       1.0  0.47090  0.74067  0.29552  1.0000
  C   C21       1.0  0.95475  0.64515  0.27715  1.0000
  C   C22       1.0  0.54525  0.14514  0.72285  1.0000
  C   C23       1.0  0.04525  0.35486  0.72285  1.0000
  C   C24       1.0  0.45475  0.85486  0.27715  1.0000
  C   C25       1.0  0.05008  0.80381  0.39227  1.0000
  C   C26       1.0  0.44992  0.30382  0.60773  1.0000
  C   C27       1.0  0.94992  0.19618  0.60773  1.0000
  C   C28       1.0  0.55008  0.69618  0.39227  1.0000
  C   C29       1.0  0.12599  0.90970  0.39926  1.0000
  C   C30       1.0  0.37401  0.40970  0.60074  1.0000
  C   C31       1.0  0.87401  0.09030  0.60074  1.0000
  C   C32       1.0  0.62599  0.59030  0.39926  1.0000
  C   C33       1.0  0.19450  0.95370  0.49094  1.0000
  C   C34       1.0  0.30549  0.45369  0.50906  1.0000
  C   C35       1.0  0.80549  0.04631  0.50906  1.0000
  C   C36       1.0  0.69451  0.54630  0.49094  1.0000
  C   C37       1.0  0.18747  0.89377  0.57734  1.0000
  C   C38       1.0  0.31253  0.39377  0.42266  1.0000
  C   C39       1.0  0.81253  0.10623  0.42266  1.0000
  C   C40       1.0  0.68747  0.60623  0.57734  1.0000
  C   C41       1.0  0.11639  0.78705  0.57132  1.0000
  C   C42       1.0  0.38361  0.28705  0.42868  1.0000
  C   C43       1.0  0.88361  0.21295  0.42868  1.0000
  C   C44       1.0  0.61639  0.71295  0.57132  1.0000
  C   C45       1.0  0.04865  0.74255  0.47904  1.0000
  C   C46       1.0  0.45135  0.24255  0.52096  1.0000
  C   C47       1.0  0.95135  0.25745  0.52096  1.0000
  C   C48       1.0  0.54865  0.75745  0.47904  1.0000
  C   C49       1.0  0.11470  0.71763  0.66131  1.0000
  C   C50       1.0  0.38530  0.21763  0.33869  1.0000
  C   C51       1.0  0.88530  0.28237  0.33869  1.0000
  C   C52       1.0  0.61470  0.78237  0.66131  1.0000
  N   N1        1.0  0.87758  0.60372  0.19026  1.0000
  N   N2        1.0  0.62242  0.10373  0.80974  1.0000
  N   N3        1.0  0.12242  0.39628  0.80974  1.0000
  N   N4        1.0  0.37758  0.89627  0.19026  1.0000
  O   O1        1.0  0.67932  0.81234  0.96703  1.0000
  O   O2        1.0  0.82067  0.31234  0.03297  1.0000
  O   O3        1.0  0.32068  0.18766  0.03297  1.0000
  O   O4        1.0  0.17933  0.68766  0.96703  1.0000
  O   O5        1.0  0.80368  0.96406  0.04333  1.0000
  O   O6        1.0  0.69632  0.46405  0.95667  1.0000
  O   O7        1.0  0.19632  0.03594  0.95667  1.0000
  O   O8        1.0  0.30368  0.53594  0.04333  1.0000
  O   O9        1.0  0.10102  0.61354  0.65256  1.0000
  O   O10       1.0  0.39898  0.11354  0.34744  1.0000
  O   O11       1.0  0.89898  0.38646  0.34744  1.0000
  O   O12       1.0  0.60102  0.88646  0.65256  1.0000
  O   O13       1.0  0.12997  0.76465  0.74764  1.0000
  O   O14       1.0  0.37003  0.26465  0.25236  1.0000
  O   O15       1.0  0.87004  0.23535  0.25236  1.0000
  O   O16       1.0  0.62997  0.73535  0.74764  1.0000
  O   O17       1.0  0.93694  0.92600  0.82423  1.0000
  O   O18       1.0  0.56306  0.42601  0.17577  1.0000
  O   O19       1.0  0.06306  0.07400  0.17577  1.0000
  O   O20       1.0  0.43694  0.57399  0.82423  1.0000
  O   O21       1.0  0.34660  0.92569  0.82004  1.0000
  O   O22       1.0  0.15340  0.42569  0.17996  1.0000
  O   O23       1.0  0.65341  0.07431  0.17996  1.0000
  O   O24       1.0  0.84660  0.57431  0.82004  1.0000
