data_image0
_chemical_formula_structural       La2H26C42N12O40
_chemical_formula_sum              "La2 H26 C42 N12 O40"
_cell_length_a       9.49383
_cell_length_b       12.0875
_cell_length_c       14.117
_cell_angle_alpha    114.506
_cell_angle_beta     102.343
_cell_angle_gamma    97.4123

_space_group_name_H-M_alt    "P 1"
_space_group_IT_number       1

loop_
  _space_group_symop_operation_xyz
  'x, y, z'

loop_
  _atom_site_type_symbol
  _atom_site_label
  _atom_site_symmetry_multiplicity
  _atom_site_fract_x
  _atom_site_fract_y
  _atom_site_fract_z
  _atom_site_occupancy
  La  La1       1.0  0.73075  0.03559  0.50835  1.0000
  La  La2       1.0  0.26925  0.96441  0.49165  1.0000
  H   H1        1.0  0.22942  0.21939  0.42671  1.0000
  H   H2        1.0  0.77057  0.78061  0.57329  1.0000
  H   H3        1.0  0.27914  0.52867  0.34724  1.0000
  H   H4        1.0  0.72086  0.47133  0.65276  1.0000
  H   H5        1.0  0.63798  0.34623  0.37390  1.0000
  H   H6        1.0  0.36202  0.65377  0.62610  1.0000
  H   H7        1.0  0.15446  0.67799  0.11184  1.0000
  H   H8        1.0  0.84554  0.32201  0.88816  1.0000
  H   H9        1.0  0.35255  0.52917  0.85118  1.0000
  H   H10       1.0  0.64745  0.47083  0.14882  1.0000
  H   H11       1.0  0.63063  0.77324  0.18112  1.0000
  H   H12       1.0  0.36937  0.22675  0.81888  1.0000
  H   H13       1.0  0.24874  0.88443  0.72991  1.0000
  H   H14       1.0  0.75125  0.11557  0.27009  1.0000
  H   H15       1.0  0.27136  0.04262  0.07109  1.0000
  H   H16       1.0  0.72864  0.95738  0.92891  1.0000
  H   H17       1.0  0.96742  0.12866  0.85092  1.0000
  H   H18       1.0  0.03258  0.87134  0.14908  1.0000
  H   H19       1.0  0.71498  0.74676  0.37677  1.0000
  H   H20       1.0  0.28502  0.25323  0.62323  1.0000
  H   H21       1.0  0.96403  0.32354  0.67224  1.0000
  H   H22       1.0  0.03597  0.67645  0.32776  1.0000
  H   H23       1.0  0.89156  0.79349  0.41888  1.0000
  H   H24       1.0  0.10843  0.20651  0.58112  1.0000
  H   H25       1.0  0.92257  0.29861  0.55035  1.0000
  H   H26       1.0  0.07743  0.70139  0.44965  1.0000
  C   C1        1.0  0.51097  0.18181  0.43252  1.0000
  C   C2        1.0  0.48903  0.81820  0.56748  1.0000
  C   C3        1.0  0.44025  0.27156  0.40177  1.0000
  C   C4        1.0  0.55975  0.72844  0.59823  1.0000
  C   C5        1.0  0.29578  0.28048  0.40500  1.0000
  C   C6        1.0  0.70421  0.71952  0.59500  1.0000
  C   C7        1.0  0.24091  0.37313  0.38549  1.0000
  C   C8        1.0  0.75908  0.62688  0.61451  1.0000
  C   C9        1.0  0.32343  0.45658  0.36162  1.0000
  C   C10       1.0  0.67657  0.54342  0.63838  1.0000
  C   C11       1.0  0.46595  0.44357  0.35750  1.0000
  C   C12       1.0  0.53405  0.55643  0.64249  1.0000
  C   C13       1.0  0.52557  0.35279  0.37656  1.0000
  C   C14       1.0  0.47443  0.64721  0.62344  1.0000
  C   C15       1.0  0.41726  0.82207  0.27800  1.0000
  C   C16       1.0  0.58274  0.17793  0.72201  1.0000
  C   C17       1.0  0.39479  0.73631  0.15899  1.0000
  C   C18       1.0  0.60521  0.26369  0.84100  1.0000
  C   C19       1.0  0.25344  0.67146  0.08481  1.0000
  C   C20       1.0  0.74656  0.32854  0.91520  1.0000
  C   C21       1.0  0.24202  0.59727  0.97552  1.0000
  C   C22       1.0  0.75798  0.40272  0.02448  1.0000
  C   C23       1.0  0.36543  0.58594  0.93709  1.0000
  C   C24       1.0  0.63457  0.41406  0.06292  1.0000
  C   C25       1.0  0.50399  0.64949  0.01363  1.0000
  C   C26       1.0  0.49601  0.35051  0.98637  1.0000
  C   C27       1.0  0.52081  0.72369  0.12328  1.0000
  C   C28       1.0  0.47919  0.27631  0.87672  1.0000
  C   C29       1.0  0.04167  0.99898  0.66927  1.0000
  C   C30       1.0  0.95833  0.00102  0.33073  1.0000
  C   C31       1.0  0.10395  0.00791  0.78010  1.0000
  C   C32       1.0  0.89605  0.99209  0.21990  1.0000
  C   C33       1.0  0.21090  0.94326  0.79711  1.0000
  C   C34       1.0  0.78910  0.05674  0.20289  1.0000
  C   C35       1.0  0.26623  0.95516  0.90137  1.0000
  C   C36       1.0  0.73377  0.04484  0.09863  1.0000
  C   C37       1.0  0.22440  0.03300  0.99006  1.0000
  C   C38       1.0  0.77561  0.96700  0.00994  1.0000
  C   C39       1.0  0.11629  0.09414  0.96938  1.0000
  C   C40       1.0  0.88372  0.90586  0.03062  1.0000
  C   C41       1.0  0.05334  0.08134  0.86564  1.0000
  C   C42       1.0  0.94666  0.91866  0.13436  1.0000
  N   N1        1.0  0.56089  0.53283  0.33834  1.0000
  N   N2        1.0  0.43911  0.46717  0.66166  1.0000
  N   N3        1.0  0.09009  0.38506  0.39217  1.0000
  N   N4        1.0  0.90991  0.61494  0.60783  1.0000
  N   N5        1.0  0.63800  0.63958  0.97793  1.0000
  N   N6        1.0  0.36200  0.36042  0.02207  1.0000
  N   N7        1.0  0.09500  0.52511  0.89608  1.0000
  N   N8        1.0  0.90500  0.47488  0.10392  1.0000
  N   N9        1.0  0.36937  0.88006  0.91921  1.0000
  N   N10       1.0  0.63063  0.11994  0.08079  1.0000
  N   N11       1.0  0.06255  0.17114  0.05944  1.0000
  N   N12       1.0  0.93745  0.82886  0.94056  1.0000
  O   O1        1.0  0.64710  0.18841  0.43822  1.0000
  O   O2        1.0  0.35290  0.81160  0.56178  1.0000
  O   O3        1.0  0.43324  0.10614  0.45386  1.0000
  O   O4        1.0  0.56676  0.89386  0.54614  1.0000
  O   O5        1.0  0.68508  0.51661  0.33048  1.0000
  O   O6        1.0  0.31492  0.48338  0.66952  1.0000
  O   O7        1.0  0.51406  0.62258  0.33375  1.0000
  O   O8        1.0  0.48594  0.37742  0.66625  1.0000
  O   O9        1.0  0.04786  0.47395  0.38305  1.0000
  O   O10       1.0  0.95214  0.52606  0.61695  1.0000
  O   O11       1.0  0.01467  0.30518  0.40679  1.0000
  O   O12       1.0  0.98533  0.69482  0.59321  1.0000
  O   O13       1.0  0.54724  0.89252  0.33099  1.0000
  O   O14       1.0  0.45276  0.10748  0.66901  1.0000
  O   O15       1.0  0.30762  0.81792  0.31518  1.0000
  O   O16       1.0  0.69238  0.18208  0.68482  1.0000
  O   O17       1.0  0.75852  0.67187  0.04926  1.0000
  O   O18       1.0  0.24148  0.32814  0.95074  1.0000
  O   O19       1.0  0.62394  0.60020  0.87934  1.0000
  O   O20       1.0  0.37606  0.39980  0.12066  1.0000
  O   O21       1.0  0.09455  0.44479  0.80497  1.0000
  O   O22       1.0  0.90545  0.55521  0.19502  1.0000
  O   O23       1.0  0.98256  0.54649  0.92328  1.0000
  O   O24       1.0  0.01744  0.45350  0.07672  1.0000
  O   O25       1.0  0.92616  0.03896  0.65446  1.0000
  O   O26       1.0  0.07384  0.96104  0.34554  1.0000
  O   O27       1.0  0.10880  0.95265  0.59936  1.0000
  O   O28       1.0  0.89120  0.04735  0.40064  1.0000
  O   O29       1.0  0.40535  0.80921  0.84041  1.0000
  O   O30       1.0  0.59465  0.19079  0.15959  1.0000
  O   O31       1.0  0.41405  0.89147  0.01297  1.0000
  O   O32       1.0  0.58595  0.10853  0.98703  1.0000
  O   O33       1.0  0.13102  0.19319  0.15313  1.0000
  O   O34       1.0  0.86899  0.80682  0.84687  1.0000
  O   O35       1.0  0.94885  0.20605  0.03581  1.0000
  O   O36       1.0  0.05115  0.79395  0.96419  1.0000
  O   O37       1.0  0.79790  0.81912  0.42687  1.0000
  O   O38       1.0  0.20210  0.18088  0.57313  1.0000
  O   O39       1.0  0.94071  0.25731  0.59683  1.0000
  O   O40       1.0  0.05929  0.74269  0.40317  1.0000
