data_image0
_chemical_formula_structural       Gd2H26C42N12O40
_chemical_formula_sum              "Gd2 H26 C42 N12 O40"
_cell_length_a       9.41761
_cell_length_b       11.9326
_cell_length_c       14.127
_cell_angle_alpha    114.846
_cell_angle_beta     102.499
_cell_angle_gamma    97.304

_space_group_name_H-M_alt    "P 1"
_space_group_IT_number       1

loop_
  _space_group_symop_operation_xyz
  'x, y, z'

loop_
  _atom_site_type_symbol
  _atom_site_label
  _atom_site_symmetry_multiplicity
  _atom_site_fract_x
  _atom_site_fract_y
  _atom_site_fract_z
  _atom_site_occupancy
  Gd  Gd1       1.0  0.73650  0.03381  0.50946  1.0000
  Gd  Gd2       1.0  0.26350  0.96619  0.49054  1.0000
  H   H1        1.0  0.22483  0.21882  0.42665  1.0000
  H   H2        1.0  0.77517  0.78118  0.57336  1.0000
  H   H3        1.0  0.28666  0.52881  0.34441  1.0000
  H   H4        1.0  0.71334  0.47119  0.65559  1.0000
  H   H5        1.0  0.64259  0.33955  0.37833  1.0000
  H   H6        1.0  0.35741  0.66045  0.62167  1.0000
  H   H7        1.0  0.15338  0.68396  0.12017  1.0000
  H   H8        1.0  0.84662  0.31604  0.87983  1.0000
  H   H9        1.0  0.35143  0.53224  0.85836  1.0000
  H   H10       1.0  0.64857  0.46776  0.14164  1.0000
  H   H11       1.0  0.63351  0.77921  0.18985  1.0000
  H   H12       1.0  0.36649  0.22079  0.81015  1.0000
  H   H13       1.0  0.25271  0.88496  0.72597  1.0000
  H   H14       1.0  0.74729  0.11504  0.27403  1.0000
  H   H15       1.0  0.27115  0.04297  0.06703  1.0000
  H   H16       1.0  0.72884  0.95703  0.93297  1.0000
  H   H17       1.0  0.96204  0.12608  0.84506  1.0000
  H   H18       1.0  0.03796  0.87392  0.15493  1.0000
  H   H19       1.0  0.71444  0.74915  0.37843  1.0000
  H   H20       1.0  0.28556  0.25085  0.62157  1.0000
  H   H21       1.0  0.95685  0.31404  0.67596  1.0000
  H   H22       1.0  0.04315  0.68596  0.32404  1.0000
  H   H23       1.0  0.89285  0.79888  0.41814  1.0000
  H   H24       1.0  0.10715  0.20111  0.58186  1.0000
  H   H25       1.0  0.91668  0.29588  0.55634  1.0000
  H   H26       1.0  0.08332  0.70412  0.44365  1.0000
  C   C1        1.0  0.50269  0.17545  0.43718  1.0000
  C   C2        1.0  0.49731  0.82455  0.56283  1.0000
  C   C3        1.0  0.43949  0.26807  0.40426  1.0000
  C   C4        1.0  0.56051  0.73193  0.59575  1.0000
  C   C5        1.0  0.29385  0.27961  0.40541  1.0000
  C   C6        1.0  0.70615  0.72039  0.59459  1.0000
  C   C7        1.0  0.24217  0.37387  0.38476  1.0000
  C   C8        1.0  0.75782  0.62613  0.61524  1.0000
  C   C9        1.0  0.32856  0.45570  0.36035  1.0000
  C   C10       1.0  0.67144  0.54430  0.63965  1.0000
  C   C11       1.0  0.47169  0.43938  0.35740  1.0000
  C   C12       1.0  0.52831  0.56062  0.64261  1.0000
  C   C13       1.0  0.52911  0.34778  0.37917  1.0000
  C   C14       1.0  0.47089  0.65222  0.62084  1.0000
  C   C15       1.0  0.42067  0.82972  0.28802  1.0000
  C   C16       1.0  0.57933  0.17028  0.71198  1.0000
  C   C17       1.0  0.39581  0.74265  0.16773  1.0000
  C   C18       1.0  0.60419  0.25736  0.83227  1.0000
  C   C19       1.0  0.25289  0.67722  0.09296  1.0000
  C   C20       1.0  0.74711  0.32278  0.90704  1.0000
  C   C21       1.0  0.24059  0.60182  0.98303  1.0000
  C   C22       1.0  0.75941  0.39818  0.01697  1.0000
  C   C23       1.0  0.36471  0.58983  0.94457  1.0000
  C   C24       1.0  0.63530  0.41016  0.05543  1.0000
  C   C25       1.0  0.50470  0.65386  0.02148  1.0000
  C   C26       1.0  0.49530  0.34614  0.97852  1.0000
  C   C27       1.0  0.52249  0.72919  0.13167  1.0000
  C   C28       1.0  0.47751  0.27081  0.86833  1.0000
  C   C29       1.0  0.04361  0.99885  0.66437  1.0000
  C   C30       1.0  0.95639  0.00115  0.33563  1.0000
  C   C31       1.0  0.10365  0.00711  0.77532  1.0000
  C   C32       1.0  0.89635  0.99289  0.22468  1.0000
  C   C33       1.0  0.21289  0.94300  0.79299  1.0000
  C   C34       1.0  0.78711  0.05700  0.20700  1.0000
  C   C35       1.0  0.26735  0.95432  0.89717  1.0000
  C   C36       1.0  0.73265  0.04568  0.10283  1.0000
  C   C37       1.0  0.22373  0.03249  0.98568  1.0000
  C   C38       1.0  0.77627  0.96751  0.01432  1.0000
  C   C39       1.0  0.11316  0.09278  0.96439  1.0000
  C   C40       1.0  0.88684  0.90722  0.03561  1.0000
  C   C41       1.0  0.04995  0.07948  0.86029  1.0000
  C   C42       1.0  0.95005  0.92052  0.13971  1.0000
  N   N1        1.0  0.56980  0.52642  0.33665  1.0000
  N   N2        1.0  0.43020  0.47358  0.66335  1.0000
  N   N3        1.0  0.09086  0.38905  0.39094  1.0000
  N   N4        1.0  0.90913  0.61094  0.60906  1.0000
  N   N5        1.0  0.63918  0.64326  0.98527  1.0000
  N   N6        1.0  0.36083  0.35674  0.01473  1.0000
  N   N7        1.0  0.09238  0.52876  0.90264  1.0000
  N   N8        1.0  0.90763  0.47124  0.09736  1.0000
  N   N9        1.0  0.37187  0.87891  0.91529  1.0000
  N   N10       1.0  0.62813  0.12109  0.08470  1.0000
  N   N11       1.0  0.05781  0.16980  0.05430  1.0000
  N   N12       1.0  0.94219  0.83020  0.94570  1.0000
  O   O1        1.0  0.64152  0.18079  0.45048  1.0000
  O   O2        1.0  0.35848  0.81921  0.54952  1.0000
  O   O3        1.0  0.41397  0.09943  0.45180  1.0000
  O   O4        1.0  0.58603  0.90057  0.54820  1.0000
  O   O5        1.0  0.69322  0.50622  0.32780  1.0000
  O   O6        1.0  0.30678  0.49378  0.67220  1.0000
  O   O7        1.0  0.52571  0.61866  0.33187  1.0000
  O   O8        1.0  0.47428  0.38134  0.66813  1.0000
  O   O9        1.0  0.05255  0.48145  0.38370  1.0000
  O   O10       1.0  0.94745  0.51855  0.61630  1.0000
  O   O11       1.0  0.01124  0.30851  0.40359  1.0000
  O   O12       1.0  0.98875  0.69149  0.59641  1.0000
  O   O13       1.0  0.55258  0.90003  0.34041  1.0000
  O   O14       1.0  0.44742  0.09997  0.65959  1.0000
  O   O15       1.0  0.31068  0.82573  0.32570  1.0000
  O   O16       1.0  0.68932  0.17427  0.67429  1.0000
  O   O17       1.0  0.76108  0.67595  0.05669  1.0000
  O   O18       1.0  0.23893  0.32405  0.94331  1.0000
  O   O19       1.0  0.62415  0.60270  0.88629  1.0000
  O   O20       1.0  0.37585  0.39731  0.11371  1.0000
  O   O21       1.0  0.09147  0.44558  0.81175  1.0000
  O   O22       1.0  0.90854  0.55442  0.18825  1.0000
  O   O23       1.0  0.97896  0.55242  0.92893  1.0000
  O   O24       1.0  0.02105  0.44758  0.07107  1.0000
  O   O25       1.0  0.92698  0.03881  0.64828  1.0000
  O   O26       1.0  0.07302  0.96119  0.35172  1.0000
  O   O27       1.0  0.11420  0.95325  0.59614  1.0000
  O   O28       1.0  0.88579  0.04675  0.40385  1.0000
  O   O29       1.0  0.41172  0.80953  0.83712  1.0000
  O   O30       1.0  0.58828  0.19047  0.16288  1.0000
  O   O31       1.0  0.41385  0.88849  0.00861  1.0000
  O   O32       1.0  0.58615  0.11151  0.99138  1.0000
  O   O33       1.0  0.12900  0.19569  0.14875  1.0000
  O   O34       1.0  0.87100  0.80431  0.85125  1.0000
  O   O35       1.0  0.93988  0.20074  0.02978  1.0000
  O   O36       1.0  0.06012  0.79926  0.97022  1.0000
  O   O37       1.0  0.79829  0.82330  0.42810  1.0000
  O   O38       1.0  0.20171  0.17670  0.57190  1.0000
  O   O39       1.0  0.93653  0.25023  0.59934  1.0000
  O   O40       1.0  0.06347  0.74977  0.40066  1.0000
