data_image0
_chemical_formula_structural       Cu2H36C56N8O24
_chemical_formula_sum              "Cu2 H36 C56 N8 O24"
_cell_length_a       10.7659
_cell_length_b       11.3016
_cell_length_c       11.7043
_cell_angle_alpha    90.1894
_cell_angle_beta     100.968
_cell_angle_gamma    105.524

_space_group_name_H-M_alt    "P 1"
_space_group_IT_number       1

loop_
  _space_group_symop_operation_xyz
  'x, y, z'

loop_
  _atom_site_type_symbol
  _atom_site_label
  _atom_site_symmetry_multiplicity
  _atom_site_fract_x
  _atom_site_fract_y
  _atom_site_fract_z
  _atom_site_occupancy
  Cu  Cu1       1.0  0.56879  0.87013  0.91614  1.0000
  Cu  Cu2       1.0  0.43117  0.12990  0.08383  1.0000
  H   H1        1.0  0.00019  0.61521  0.34072  1.0000
  H   H2        1.0  0.99984  0.38479  0.65930  1.0000
  H   H3        1.0  0.87419  0.33983  0.47595  1.0000
  H   H4        1.0  0.12581  0.66017  0.52405  1.0000
  H   H5        1.0  0.63514  0.04289  0.37353  1.0000
  H   H6        1.0  0.36485  0.95711  0.62645  1.0000
  H   H7        1.0  0.92320  0.89266  0.58698  1.0000
  H   H8        1.0  0.07679  0.10735  0.41299  1.0000
  H   H9        1.0  0.78693  0.77720  0.22205  1.0000
  H   H10       1.0  0.21308  0.22279  0.77794  1.0000
  H   H11       1.0  0.79356  0.60690  0.73097  1.0000
  H   H12       1.0  0.20644  0.39310  0.26903  1.0000
  H   H13       1.0  0.65782  0.50490  0.36298  1.0000
  H   H14       1.0  0.34218  0.49509  0.63702  1.0000
  H   H15       1.0  0.50227  0.75940  0.52873  1.0000
  H   H16       1.0  0.49774  0.24058  0.47127  1.0000
  H   H17       1.0  0.83464  0.94194  0.05733  1.0000
  H   H18       1.0  0.16537  0.05806  0.94266  1.0000
  H   H19       1.0  0.03096  0.12467  0.08753  1.0000
  H   H20       1.0  0.96905  0.87533  0.91248  1.0000
  H   H21       1.0  0.80690  0.29927  0.82708  1.0000
  H   H22       1.0  0.19311  0.70074  0.17292  1.0000
  H   H23       1.0  0.62427  0.11181  0.80894  1.0000
  H   H24       1.0  0.37574  0.88820  0.19108  1.0000
  H   H25       1.0  0.14336  0.31695  0.02947  1.0000
  H   H26       1.0  0.85664  0.68304  0.97053  1.0000
  H   H27       1.0  0.97905  0.44850  0.85526  1.0000
  H   H28       1.0  0.02096  0.55150  0.14475  1.0000
  H   H29       1.0  0.29966  0.79504  0.77591  1.0000
  H   H30       1.0  0.70035  0.20495  0.22411  1.0000
  H   H31       1.0  0.09328  0.62733  0.77574  1.0000
  H   H32       1.0  0.90672  0.37267  0.22426  1.0000
  H   H33       1.0  0.31945  0.46504  0.04598  1.0000
  H   H34       1.0  0.68056  0.53494  0.95403  1.0000
  H   H35       1.0  0.51195  0.64036  0.03601  1.0000
  H   H36       1.0  0.48805  0.35964  0.96399  1.0000
  C   C1        1.0  0.95159  0.74268  0.41989  1.0000
  C   C2        1.0  0.04840  0.25733  0.58012  1.0000
  C   C3        1.0  0.62514  0.92667  0.16728  1.0000
  C   C4        1.0  0.37481  0.07339  0.83270  1.0000
  C   C5        1.0  0.70397  0.91174  0.28524  1.0000
  C   C6        1.0  0.29600  0.08827  0.71470  1.0000
  C   C7        1.0  0.69908  0.98190  0.38222  1.0000
  C   C8        1.0  0.30091  0.01809  0.61775  1.0000
  C   C9        1.0  0.77816  0.97285  0.48887  1.0000
  C   C10       1.0  0.22183  0.02715  0.51111  1.0000
  C   C11       1.0  0.86212  0.89703  0.50261  1.0000
  C   C12       1.0  0.13787  0.10298  0.49737  1.0000
  C   C13       1.0  0.86450  0.82577  0.40585  1.0000
  C   C14       1.0  0.13549  0.17424  0.59413  1.0000
  C   C15       1.0  0.78526  0.83283  0.29753  1.0000
  C   C16       1.0  0.21471  0.16718  0.70244  1.0000
  C   C17       1.0  0.64384  0.75640  0.75308  1.0000
  C   C18       1.0  0.35615  0.24358  0.24695  1.0000
  C   C19       1.0  0.64915  0.69119  0.64159  1.0000
  C   C20       1.0  0.35084  0.30881  0.35842  1.0000
  C   C21       1.0  0.73293  0.61491  0.64719  1.0000
  C   C22       1.0  0.26707  0.38509  0.35281  1.0000
  C   C23       1.0  0.73678  0.54732  0.54805  1.0000
  C   C24       1.0  0.26320  0.45267  0.45194  1.0000
  C   C25       1.0  0.65679  0.55635  0.44125  1.0000
  C   C26       1.0  0.34319  0.44364  0.55874  1.0000
  C   C27       1.0  0.57494  0.63355  0.43711  1.0000
  C   C28       1.0  0.42504  0.36645  0.56288  1.0000
  C   C29       1.0  0.56889  0.70116  0.53492  1.0000
  C   C30       1.0  0.43112  0.29883  0.46508  1.0000
  C   C31       1.0  0.82464  0.46497  0.55795  1.0000
  C   C32       1.0  0.17535  0.53502  0.44204  1.0000
  C   C33       1.0  0.83342  0.02426  0.00959  1.0000
  C   C34       1.0  0.16658  0.97573  0.99041  1.0000
  C   C35       1.0  0.94173  0.12618  0.02581  1.0000
  C   C36       1.0  0.05826  0.87381  0.97420  1.0000
  C   C37       1.0  0.93791  0.22994  0.96033  1.0000
  C   C38       1.0  0.06210  0.77006  0.03968  1.0000
  C   C39       1.0  0.81931  0.22449  0.88256  1.0000
  C   C40       1.0  0.18069  0.77551  0.11744  1.0000
  C   C41       1.0  0.71509  0.11927  0.87127  1.0000
  C   C42       1.0  0.28492  0.88073  0.12874  1.0000
  C   C43       1.0  0.05684  0.33134  0.97153  1.0000
  C   C44       1.0  0.94317  0.66866  0.02848  1.0000
  C   C45       1.0  0.06629  0.43470  0.91207  1.0000
  C   C46       1.0  0.93371  0.56530  0.08793  1.0000
  C   C47       1.0  0.29796  0.71950  0.83352  1.0000
  C   C48       1.0  0.70205  0.28049  0.16650  1.0000
  C   C49       1.0  0.18439  0.62631  0.83482  1.0000
  C   C50       1.0  0.81562  0.37369  0.16519  1.0000
  C   C51       1.0  0.18685  0.53118  0.91194  1.0000
  C   C52       1.0  0.81316  0.46881  0.08807  1.0000
  C   C53       1.0  0.30871  0.53521  0.98401  1.0000
  C   C54       1.0  0.69132  0.46479  0.01599  1.0000
  C   C55       1.0  0.41756  0.63232  0.97880  1.0000
  C   C56       1.0  0.58245  0.36768  0.02119  1.0000
  N   N1        1.0  0.72107  0.02005  0.93348  1.0000
  N   N2        1.0  0.27893  0.97995  0.06652  1.0000
  N   N3        1.0  0.41261  0.72414  0.90617  1.0000
  N   N4        1.0  0.58740  0.27586  0.09384  1.0000
  N   N5        1.0  0.48963  0.64030  0.32448  1.0000
  N   N6        1.0  0.51037  0.35974  0.67550  1.0000
  N   N7        1.0  0.77675  0.04846  0.59091  1.0000
  N   N8        1.0  0.22329  0.95151  0.40911  1.0000
  O   O1        1.0  0.61783  0.84577  0.08722  1.0000
  O   O2        1.0  0.38212  0.15426  0.91277  1.0000
  O   O3        1.0  0.57759  0.01652  0.15691  1.0000
  O   O4        1.0  0.42240  0.98354  0.84316  1.0000
  O   O5        1.0  0.69671  0.11050  0.58045  1.0000
  O   O6        1.0  0.30329  0.88942  0.41962  1.0000
  O   O7        1.0  0.85851  0.04717  0.68126  1.0000
  O   O8        1.0  0.14160  0.95284  0.31873  1.0000
  O   O9        1.0  0.93372  0.66769  0.32853  1.0000
  O   O10       1.0  0.06633  0.33233  0.67147  1.0000
  O   O11       1.0  0.03339  0.74501  0.51206  1.0000
  O   O12       1.0  0.96660  0.25497  0.48797  1.0000
  O   O13       1.0  0.70698  0.73154  0.84739  1.0000
  O   O14       1.0  0.29301  0.26841  0.15261  1.0000
  O   O15       1.0  0.57162  0.83136  0.74337  1.0000
  O   O16       1.0  0.42839  0.16864  0.25663  1.0000
  O   O17       1.0  0.90477  0.46435  0.65021  1.0000
  O   O18       1.0  0.09520  0.53560  0.34980  1.0000
  O   O19       1.0  0.81117  0.39576  0.46322  1.0000
  O   O20       1.0  0.18886  0.60427  0.53676  1.0000
  O   O21       1.0  0.50154  0.58234  0.23895  1.0000
  O   O22       1.0  0.49842  0.41767  0.76104  1.0000
  O   O23       1.0  0.41015  0.70251  0.32196  1.0000
  O   O24       1.0  0.58987  0.29755  0.67803  1.0000
