data_image0
_chemical_formula_structural       Ag2H22C22N10O4
_chemical_formula_sum              "Ag2 H22 C22 N10 O4"
_cell_length_a       8.88879
_cell_length_b       9.22945
_cell_length_c       9.88559
_cell_angle_alpha    69.6873
_cell_angle_beta     69.2098
_cell_angle_gamma    69.6473

_space_group_name_H-M_alt    "P 1"
_space_group_IT_number       1

loop_
  _space_group_symop_operation_xyz
  'x, y, z'

loop_
  _atom_site_type_symbol
  _atom_site_label
  _atom_site_symmetry_multiplicity
  _atom_site_fract_x
  _atom_site_fract_y
  _atom_site_fract_z
  _atom_site_occupancy
  Ag  Ag1       1.0  0.82392  0.02283  0.55137  1.0000
  Ag  Ag2       1.0  0.17608  0.97716  0.44864  1.0000
  H   H1        1.0  0.59717  0.30851  0.59998  1.0000
  H   H2        1.0  0.40284  0.69148  0.40002  1.0000
  H   H3        1.0  0.38652  0.41300  0.65936  1.0000
  H   H4        1.0  0.61348  0.58700  0.34064  1.0000
  H   H5        1.0  0.50960  0.69373  0.67499  1.0000
  H   H6        1.0  0.49040  0.30627  0.32501  1.0000
  H   H7        1.0  0.69080  0.75915  0.62528  1.0000
  H   H8        1.0  0.30920  0.24084  0.37473  1.0000
  H   H9        1.0  0.03962  0.85097  0.79844  1.0000
  H   H10       1.0  0.96038  0.14903  0.20157  1.0000
  H   H11       1.0  0.73376  0.87543  0.89379  1.0000
  H   H12       1.0  0.26624  0.12458  0.10621  1.0000
  H   H13       1.0  0.54026  0.12519  0.96193  1.0000
  H   H14       1.0  0.45973  0.87483  0.03806  1.0000
  H   H15       1.0  0.65308  0.34694  0.93817  1.0000
  H   H16       1.0  0.34692  0.65308  0.06182  1.0000
  H   H17       1.0  0.95954  0.32043  0.84220  1.0000
  H   H18       1.0  0.04048  0.67957  0.15780  1.0000
  H   H19       1.0  0.82330  0.49562  0.60200  1.0000
  H   H20       1.0  0.17669  0.50439  0.39799  1.0000
  H   H21       1.0  0.87131  0.57704  0.40707  1.0000
  H   H22       1.0  0.12869  0.42295  0.59292  1.0000
  C   C1        1.0  0.01739  0.08594  0.81140  1.0000
  C   C2        1.0  0.98260  0.91407  0.18860  1.0000
  C   C3        1.0  0.95334  0.96005  0.82677  1.0000
  C   C4        1.0  0.04666  0.03995  0.17323  1.0000
  C   C5        1.0  0.78218  0.97439  0.88075  1.0000
  C   C6        1.0  0.21782  0.02562  0.11925  1.0000
  C   C7        1.0  0.67386  0.11393  0.91999  1.0000
  C   C8        1.0  0.32614  0.88608  0.08001  1.0000
  C   C9        1.0  0.73722  0.23892  0.90572  1.0000
  C   C10       1.0  0.26278  0.76110  0.09428  1.0000
  C   C11       1.0  0.90790  0.22507  0.85187  1.0000
  C   C12       1.0  0.09211  0.77493  0.14813  1.0000
  C   C13       1.0  0.41813  0.17913  0.68124  1.0000
  C   C14       1.0  0.58187  0.82087  0.31876  1.0000
  C   C15       1.0  0.19877  0.07067  0.75553  1.0000
  C   C16       1.0  0.80124  0.92932  0.24446  1.0000
  C   C17       1.0  0.46230  0.91918  0.68510  1.0000
  C   C18       1.0  0.53771  0.08081  0.31489  1.0000
  C   C19       1.0  0.94654  0.32257  0.47850  1.0000
  C   C20       1.0  0.05346  0.67743  0.52150  1.0000
  C   C21       1.0  0.92185  0.48547  0.49785  1.0000
  C   C22       1.0  0.07814  0.51452  0.50216  1.0000
  N   N1        1.0  0.29701  0.93126  0.72655  1.0000
  N   N2        1.0  0.70298  0.06874  0.27345  1.0000
  N   N3        1.0  0.25202  0.19733  0.73698  1.0000
  N   N4        1.0  0.74799  0.80266  0.26302  1.0000
  N   N5        1.0  0.53035  0.04032  0.65872  1.0000
  N   N6        1.0  0.46965  0.95967  0.34129  1.0000
  N   N7        1.0  0.47336  0.30998  0.64506  1.0000
  N   N8        1.0  0.52665  0.69001  0.35494  1.0000
  N   N9        1.0  0.56453  0.77518  0.67056  1.0000
  N   N10       1.0  0.43547  0.22481  0.32945  1.0000
  O   O1        1.0  0.81549  0.28177  0.49825  1.0000
  O   O2        1.0  0.18452  0.71822  0.50174  1.0000
  O   O3        1.0  0.09434  0.23631  0.44408  1.0000
  O   O4        1.0  0.90566  0.76369  0.55592  1.0000
