data_image0
_chemical_formula_structural       Ag4H42C46N20O10
_chemical_formula_sum              "Ag4 H42 C46 N20 O10"
_cell_length_a       9.62527
_cell_length_b       11.205
_cell_length_c       12.0882
_cell_angle_alpha    81.93
_cell_angle_beta     81.9714
_cell_angle_gamma    77.0486

_space_group_name_H-M_alt    "P 1"
_space_group_IT_number       1

loop_
  _space_group_symop_operation_xyz
  'x, y, z'

loop_
  _atom_site_type_symbol
  _atom_site_label
  _atom_site_symmetry_multiplicity
  _atom_site_fract_x
  _atom_site_fract_y
  _atom_site_fract_z
  _atom_site_occupancy
  Ag  Ag1       1.0  0.34985  0.02072  0.04616  1.0000
  Ag  Ag2       1.0  0.65015  0.97928  0.95384  1.0000
  Ag  Ag3       1.0  0.85418  0.72926  0.27400  1.0000
  Ag  Ag4       1.0  0.14582  0.27074  0.72600  1.0000
  H   H1        1.0  0.64302  0.20642  0.28480  1.0000
  H   H2        1.0  0.35699  0.79358  0.71520  1.0000
  H   H3        1.0  0.38744  0.21830  0.36431  1.0000
  H   H4        1.0  0.61256  0.78170  0.63569  1.0000
  H   H5        1.0  0.26739  0.04792  0.35172  1.0000
  H   H6        1.0  0.73262  0.95208  0.64828  1.0000
  H   H7        1.0  0.40408  0.86242  0.26063  1.0000
  H   H8        1.0  0.59592  0.13757  0.73937  1.0000
  H   H9        1.0  0.65557  0.85193  0.17985  1.0000
  H   H10       1.0  0.34443  0.14807  0.82015  1.0000
  H   H11       1.0  0.10414  0.55902  0.63864  1.0000
  H   H12       1.0  0.89585  0.44098  0.36136  1.0000
  H   H13       1.0  0.31812  0.65254  0.60961  1.0000
  H   H14       1.0  0.68188  0.34746  0.39039  1.0000
  H   H15       1.0  0.31856  0.84899  0.48497  1.0000
  H   H16       1.0  0.68144  0.15101  0.51503  1.0000
  H   H17       1.0  0.10060  0.95236  0.38988  1.0000
  H   H18       1.0  0.89940  0.04764  0.61012  1.0000
  H   H19       1.0  0.88784  0.85876  0.41871  1.0000
  H   H20       1.0  0.11215  0.14124  0.58129  1.0000
  H   H21       1.0  0.67695  0.32554  0.08468  1.0000
  H   H22       1.0  0.32305  0.67447  0.91532  1.0000
  H   H23       1.0  0.96793  0.31311  0.09982  1.0000
  H   H24       1.0  0.03207  0.68689  0.90018  1.0000
  H   H25       1.0  0.14847  0.23609  0.07387  1.0000
  H   H26       1.0  0.85153  0.76391  0.92613  1.0000
  H   H27       1.0  0.24205  0.80050  0.09488  1.0000
  H   H28       1.0  0.75795  0.19950  0.90512  1.0000
  H   H29       1.0  0.09752  0.72581  0.14554  1.0000
  H   H30       1.0  0.90248  0.27419  0.85446  1.0000
  H   H31       1.0  0.57748  0.44809  0.77613  1.0000
  H   H32       1.0  0.42252  0.55191  0.22387  1.0000
  H   H33       1.0  0.73944  0.46361  0.81748  1.0000
  H   H34       1.0  0.26056  0.53639  0.18252  1.0000
  H   H35       1.0  0.49831  0.56597  0.40856  1.0000
  H   H36       1.0  0.50169  0.43402  0.59144  1.0000
  H   H37       1.0  0.61352  0.64360  0.31374  1.0000
  H   H38       1.0  0.38648  0.35640  0.68626  1.0000
  H   H39       1.0  0.06739  0.50580  0.25059  1.0000
  H   H40       1.0  0.93261  0.49420  0.74941  1.0000
  H   H41       1.0  0.97237  0.53436  0.14690  1.0000
  H   H42       1.0  0.02763  0.46564  0.85310  1.0000
  C   C1        1.0  0.66785  0.02760  0.23089  1.0000
  C   C2        1.0  0.33215  0.97240  0.76911  1.0000
  C   C3        1.0  0.58945  0.13154  0.28103  1.0000
  C   C4        1.0  0.41055  0.86846  0.71897  1.0000
  C   C5        1.0  0.44696  0.13771  0.32504  1.0000
  C   C6        1.0  0.55304  0.86229  0.67496  1.0000
  C   C7        1.0  0.37963  0.04127  0.31826  1.0000
  C   C8        1.0  0.62037  0.95873  0.68174  1.0000
  C   C9        1.0  0.45553  0.93822  0.26666  1.0000
  C   C10       1.0  0.54447  0.06178  0.73334  1.0000
  C   C11       1.0  0.59929  0.93135  0.22307  1.0000
  C   C12       1.0  0.40071  0.06865  0.77693  1.0000
  C   C13       1.0  0.82052  0.02304  0.18745  1.0000
  C   C14       1.0  0.17948  0.97696  0.81255  1.0000
  C   C15       1.0  0.04867  0.91306  0.14110  1.0000
  C   C16       1.0  0.95133  0.08694  0.85889  1.0000
  C   C17       1.0  0.00138  0.12518  0.12276  1.0000
  C   C18       1.0  0.99862  0.87482  0.87724  1.0000
  C   C19       1.0  0.98360  0.70003  0.52728  1.0000
  C   C20       1.0  0.01640  0.29998  0.47272  1.0000
  C   C21       1.0  0.10382  0.64479  0.58369  1.0000
  C   C22       1.0  0.89617  0.35521  0.41631  1.0000
  C   C23       1.0  0.22383  0.69786  0.56762  1.0000
  C   C24       1.0  0.77616  0.30214  0.43238  1.0000
  C   C25       1.0  0.22430  0.80789  0.49707  1.0000
  C   C26       1.0  0.77570  0.19211  0.50293  1.0000
  C   C27       1.0  0.10323  0.86530  0.44342  1.0000
  C   C28       1.0  0.89677  0.13470  0.55658  1.0000
  C   C29       1.0  0.98341  0.81198  0.45852  1.0000
  C   C30       1.0  0.01659  0.18802  0.54148  1.0000
  C   C31       1.0  0.85696  0.64284  0.54211  1.0000
  C   C32       1.0  0.14304  0.35717  0.45789  1.0000
  C   C33       1.0  0.65561  0.61139  0.47761  1.0000
  C   C34       1.0  0.34439  0.38861  0.52239  1.0000
  C   C35       1.0  0.70518  0.53618  0.65669  1.0000
  C   C36       1.0  0.29482  0.46382  0.34331  1.0000
  C   C37       1.0  0.73117  0.54775  0.10936  1.0000
  C   C38       1.0  0.26883  0.45225  0.89064  1.0000
  C   C39       1.0  0.61546  0.52314  0.04850  1.0000
  C   C40       1.0  0.38454  0.47686  0.95150  1.0000
  C   C41       1.0  0.59981  0.40235  0.04722  1.0000
  C   C42       1.0  0.40019  0.59765  0.95278  1.0000
  C   C43       1.0  0.51512  0.62080  0.99979  1.0000
  C   C44       1.0  0.48488  0.37920  0.00021  1.0000
  C   C45       1.0  0.52632  0.75164  0.99748  1.0000
  C   C46       1.0  0.47369  0.24836  0.00252  1.0000
  N   N1        1.0  0.90928  0.91139  0.18332  1.0000
  N   N2        1.0  0.09073  0.08861  0.81668  1.0000
  N   N3        1.0  0.09952  0.01812  0.11220  1.0000
  N   N4        1.0  0.90048  0.98188  0.88780  1.0000
  N   N5        1.0  0.85952  0.13082  0.15749  1.0000
  N   N6        1.0  0.14048  0.86917  0.84251  1.0000
  N   N7        1.0  0.04328  0.23258  0.09702  1.0000
  N   N8        1.0  0.95672  0.76742  0.90298  1.0000
  N   N9        1.0  0.13743  0.80464  0.12972  1.0000
  N   N10       1.0  0.86257  0.19536  0.87028  1.0000
  N   N11       1.0  0.77622  0.66044  0.45615  1.0000
  N   N12       1.0  0.22378  0.33956  0.54385  1.0000
  N   N13       1.0  0.61426  0.55344  0.57852  1.0000
  N   N14       1.0  0.38574  0.44656  0.42148  1.0000
  N   N15       1.0  0.82953  0.57819  0.64146  1.0000
  N   N16       1.0  0.17047  0.42181  0.35854  1.0000
  N   N17       1.0  0.67258  0.47469  0.75685  1.0000
  N   N18       1.0  0.32742  0.52531  0.24314  1.0000
  N   N19       1.0  0.57302  0.62157  0.39557  1.0000
  N   N20       1.0  0.42698  0.37843  0.60443  1.0000
  O   O1        1.0  0.85516  0.47927  0.09714  1.0000
  O   O2        1.0  0.14484  0.52073  0.90286  1.0000
  O   O3        1.0  0.03789  0.56921  0.18664  1.0000
  O   O4        1.0  0.96211  0.43079  0.81336  1.0000
  O   O5        1.0  0.69256  0.63622  0.17052  1.0000
  O   O6        1.0  0.30744  0.36378  0.82948  1.0000
  O   O7        1.0  0.41438  0.82042  0.04186  1.0000
  O   O8        1.0  0.58562  0.17958  0.95814  1.0000
  O   O9        1.0  0.63982  0.78485  0.95042  1.0000
  O   O10       1.0  0.36018  0.21516  0.04958  1.0000
