data_image0
_chemical_formula_structural       Zn2H44C28N4O20
_chemical_formula_sum              "Zn2 H44 C28 N4 O20"
_cell_length_a       9.18099
_cell_length_b       9.71729
_cell_length_c       11.5559
_cell_angle_alpha    78.1254
_cell_angle_beta     74.7897
_cell_angle_gamma    71.7554

_space_group_name_H-M_alt    "P 1"
_space_group_IT_number       1

loop_
  _space_group_symop_operation_xyz
  'x, y, z'

loop_
  _atom_site_type_symbol
  _atom_site_label
  _atom_site_symmetry_multiplicity
  _atom_site_fract_x
  _atom_site_fract_y
  _atom_site_fract_z
  _atom_site_occupancy
  Zn  Zn1       1.0  0.50000  0.50000  0.50000  1.0000
  Zn  Zn2       1.0  0.50000  1.00000  0.50000  1.0000
  H   H1        1.0  0.98710  0.63848  0.40572  1.0000
  H   H2        1.0  0.01290  0.36152  0.59428  1.0000
  H   H3        1.0  0.91598  0.67240  0.27236  1.0000
  H   H4        1.0  0.08402  0.32759  0.72764  1.0000
  H   H5        1.0  0.17246  0.39875  0.34493  1.0000
  H   H6        1.0  0.82754  0.60124  0.65507  1.0000
  H   H7        1.0  0.10141  0.43422  0.21024  1.0000
  H   H8        1.0  0.89859  0.56578  0.78975  1.0000
  H   H9        1.0  0.32357  0.55881  0.26224  1.0000
  H   H10       1.0  0.67642  0.44119  0.73776  1.0000
  H   H11       1.0  0.37921  0.65267  0.87048  1.0000
  H   H12       1.0  0.62079  0.34734  0.12953  1.0000
  H   H13       1.0  0.59014  0.77088  0.76109  1.0000
  H   H14       1.0  0.40986  0.22913  0.23891  1.0000
  H   H15       1.0  0.62952  0.85533  0.10270  1.0000
  H   H16       1.0  0.37048  0.14467  0.89731  1.0000
  H   H17       1.0  0.41906  0.74023  0.20883  1.0000
  H   H18       1.0  0.58094  0.25978  0.79118  1.0000
  H   H19       1.0  0.84270  0.87384  0.99853  1.0000
  H   H20       1.0  0.15730  0.12617  0.00146  1.0000
  H   H21       1.0  0.98712  0.04686  0.91110  1.0000
  H   H22       1.0  0.01288  0.95316  0.08888  1.0000
  H   H23       1.0  0.90993  0.08096  0.77966  1.0000
  H   H24       1.0  0.09007  0.91904  0.22033  1.0000
  H   H25       1.0  0.15129  0.79888  0.85446  1.0000
  H   H26       1.0  0.84870  0.20113  0.14554  1.0000
  H   H27       1.0  0.07986  0.83864  0.71932  1.0000
  H   H28       1.0  0.92014  0.16136  0.28067  1.0000
  H   H29       1.0  0.74066  0.31020  0.52783  1.0000
  H   H30       1.0  0.25934  0.68980  0.47217  1.0000
  H   H31       1.0  0.59939  0.23208  0.60148  1.0000
  H   H32       1.0  0.40061  0.76791  0.39852  1.0000
  H   H33       1.0  0.61025  0.28307  0.35358  1.0000
  H   H34       1.0  0.38975  0.71691  0.64643  1.0000
  H   H35       1.0  0.67090  0.42082  0.29523  1.0000
  H   H36       1.0  0.32909  0.57916  0.70478  1.0000
  H   H37       1.0  0.21835  0.17700  0.46158  1.0000
  H   H38       1.0  0.78165  0.82300  0.53841  1.0000
  H   H39       1.0  0.30123  0.27322  0.50918  1.0000
  H   H40       1.0  0.69877  0.72677  0.49082  1.0000
  H   H41       1.0  0.39230  0.97929  0.31480  1.0000
  H   H42       1.0  0.60771  0.02071  0.68520  1.0000
  H   H43       1.0  0.58318  0.90781  0.30495  1.0000
  H   H44       1.0  0.41683  0.09219  0.69505  1.0000
  C   C1        1.0  0.84587  0.50220  0.40402  1.0000
  C   C2        1.0  0.15413  0.49780  0.59598  1.0000
  C   C3        1.0  0.96680  0.58423  0.33876  1.0000
  C   C4        1.0  0.03319  0.41576  0.66124  1.0000
  C   C5        1.0  0.12193  0.48586  0.27838  1.0000
  C   C6        1.0  0.87807  0.51413  0.72162  1.0000
  C   C7        1.0  0.24692  0.62835  0.10239  1.0000
  C   C8        1.0  0.75308  0.37166  0.89761  1.0000
  C   C9        1.0  0.38320  0.69092  0.04565  1.0000
  C   C10       1.0  0.61679  0.30908  0.95435  1.0000
  C   C11       1.0  0.43370  0.69922  0.91994  1.0000
  C   C12       1.0  0.56630  0.30079  0.08006  1.0000
  C   C13       1.0  0.55244  0.76398  0.85917  1.0000
  C   C14       1.0  0.44756  0.23603  0.14083  1.0000
  C   C15       1.0  0.62451  0.82104  0.92389  1.0000
  C   C16       1.0  0.37550  0.17896  0.07611  1.0000
  C   C17       1.0  0.57739  0.80931  0.05049  1.0000
  C   C18       1.0  0.42262  0.19069  0.94951  1.0000
  C   C19       1.0  0.45765  0.74465  0.11095  1.0000
  C   C20       1.0  0.54234  0.25535  0.88905  1.0000
  C   C21       1.0  0.74483  0.89631  0.85315  1.0000
  C   C22       1.0  0.25517  0.10369  0.14685  1.0000
  C   C23       1.0  0.96092  0.99433  0.84678  1.0000
  C   C24       1.0  0.03907  0.00568  0.15321  1.0000
  C   C25       1.0  0.10866  0.88806  0.78474  1.0000
  C   C26       1.0  0.89134  0.11195  0.21525  1.0000
  C   C27       1.0  0.24049  0.95719  0.72165  1.0000
  C   C28       1.0  0.75952  0.04281  0.27835  1.0000
  N   N1        1.0  0.23829  0.56452  0.21882  1.0000
  N   N2        1.0  0.76171  0.43548  0.78118  1.0000
  N   N3        1.0  0.84232  0.91961  0.91115  1.0000
  N   N4        1.0  0.15769  0.08040  0.08885  1.0000
  O   O1        1.0  0.70421  0.58316  0.43954  1.0000
  O   O2        1.0  0.29579  0.41684  0.56046  1.0000
  O   O3        1.0  0.88467  0.36430  0.42124  1.0000
  O   O4        1.0  0.11533  0.63569  0.57876  1.0000
  O   O5        1.0  0.14863  0.63450  0.04326  1.0000
  O   O6        1.0  0.85136  0.36550  0.95674  1.0000
  O   O7        1.0  0.75497  0.93937  0.74132  1.0000
  O   O8        1.0  0.24503  0.06062  0.25868  1.0000
  O   O9        1.0  0.25223  0.06476  0.76087  1.0000
  O   O10       1.0  0.74779  0.93524  0.23913  1.0000
  O   O11       1.0  0.33667  0.89881  0.62953  1.0000
  O   O12       1.0  0.66334  0.10119  0.37048  1.0000
  O   O13       1.0  0.63788  0.32127  0.58845  1.0000
  O   O14       1.0  0.36213  0.67872  0.41156  1.0000
  O   O15       1.0  0.57504  0.39336  0.33685  1.0000
  O   O16       1.0  0.42495  0.60663  0.66316  1.0000
  O   O17       1.0  0.31898  0.19023  0.46190  1.0000
  O   O18       1.0  0.68102  0.80977  0.53811  1.0000
  O   O19       1.0  0.47468  0.90863  0.35897  1.0000
  O   O20       1.0  0.52533  0.09137  0.64103  1.0000
