data_image0
_chemical_formula_structural       Zn8P8H40C24N8O24
_chemical_formula_sum              "Zn8 P8 H40 C24 N8 O24"
_cell_length_a       7.95858
_cell_length_b       8.09188
_cell_length_c       18.83
_cell_angle_alpha    90
_cell_angle_beta     90
_cell_angle_gamma    90

_space_group_name_H-M_alt    "P 1"
_space_group_IT_number       1

loop_
  _space_group_symop_operation_xyz
  'x, y, z'

loop_
  _atom_site_type_symbol
  _atom_site_label
  _atom_site_symmetry_multiplicity
  _atom_site_fract_x
  _atom_site_fract_y
  _atom_site_fract_z
  _atom_site_occupancy
  Zn  Zn1       1.0  0.15443  0.41680  0.20196  1.0000
  Zn  Zn2       1.0  0.65443  0.41680  0.29804  1.0000
  Zn  Zn3       1.0  0.15443  0.08320  0.70196  1.0000
  Zn  Zn4       1.0  0.34557  0.91680  0.20196  1.0000
  Zn  Zn5       1.0  0.84557  0.58320  0.79804  1.0000
  Zn  Zn6       1.0  0.34557  0.58320  0.70196  1.0000
  Zn  Zn7       1.0  0.84557  0.91680  0.29804  1.0000
  Zn  Zn8       1.0  0.65444  0.08320  0.79804  1.0000
  P   P1        1.0  0.99373  0.04157  0.16087  1.0000
  P   P2        1.0  0.49373  0.04157  0.33913  1.0000
  P   P3        1.0  0.99373  0.45843  0.66087  1.0000
  P   P4        1.0  0.50627  0.54157  0.16087  1.0000
  P   P5        1.0  0.00627  0.95843  0.83913  1.0000
  P   P6        1.0  0.50627  0.95843  0.66087  1.0000
  P   P7        1.0  0.00627  0.54157  0.33913  1.0000
  P   P8        1.0  0.49373  0.45843  0.83913  1.0000
  H   H1        1.0  0.94657  0.08136  0.09080  1.0000
  H   H2        1.0  0.44657  0.08135  0.40920  1.0000
  H   H3        1.0  0.94657  0.41864  0.59080  1.0000
  H   H4        1.0  0.55343  0.58135  0.09080  1.0000
  H   H5        1.0  0.05344  0.91865  0.90920  1.0000
  H   H6        1.0  0.55343  0.91865  0.59080  1.0000
  H   H7        1.0  0.05343  0.58135  0.40920  1.0000
  H   H8        1.0  0.44657  0.41865  0.90920  1.0000
  H   H9        1.0  0.87811  0.55303  0.16913  1.0000
  H   H10       1.0  0.37811  0.55303  0.33087  1.0000
  H   H11       1.0  0.87811  0.94697  0.66913  1.0000
  H   H12       1.0  0.62189  0.05303  0.16913  1.0000
  H   H13       1.0  0.12189  0.44697  0.83087  1.0000
  H   H14       1.0  0.62189  0.44697  0.66913  1.0000
  H   H15       1.0  0.12189  0.05303  0.33087  1.0000
  H   H16       1.0  0.37811  0.94697  0.83087  1.0000
  H   H17       1.0  0.03505  0.69080  0.15723  1.0000
  H   H18       1.0  0.53506  0.69079  0.34277  1.0000
  H   H19       1.0  0.03505  0.80920  0.65723  1.0000
  H   H20       1.0  0.46495  0.19079  0.15723  1.0000
  H   H21       1.0  0.96495  0.30920  0.84277  1.0000
  H   H22       1.0  0.46495  0.30920  0.65723  1.0000
  H   H23       1.0  0.96495  0.19079  0.34277  1.0000
  H   H24       1.0  0.53506  0.80921  0.84277  1.0000
  H   H25       1.0  0.79928  0.35410  0.07921  1.0000
  H   H26       1.0  0.29928  0.35410  0.42079  1.0000
  H   H27       1.0  0.79928  0.14590  0.57921  1.0000
  H   H28       1.0  0.70072  0.85410  0.07921  1.0000
  H   H29       1.0  0.20072  0.64589  0.92079  1.0000
  H   H30       1.0  0.70072  0.64589  0.57921  1.0000
  H   H31       1.0  0.20072  0.85410  0.42079  1.0000
  H   H32       1.0  0.29928  0.14590  0.92079  1.0000
  H   H33       1.0  0.19250  0.71292  0.04961  1.0000
  H   H34       1.0  0.69250  0.71291  0.45039  1.0000
  H   H35       1.0  0.19250  0.78708  0.54961  1.0000
  H   H36       1.0  0.30750  0.21292  0.04961  1.0000
  H   H37       1.0  0.80750  0.28709  0.95039  1.0000
  H   H38       1.0  0.30750  0.28708  0.54961  1.0000
  H   H39       1.0  0.80750  0.21292  0.45039  1.0000
  H   H40       1.0  0.69250  0.78708  0.95039  1.0000
  C   C1        1.0  0.99568  0.53743  0.07264  1.0000
  C   C2        1.0  0.49568  0.53743  0.42735  1.0000
  C   C3        1.0  0.99568  0.96256  0.57265  1.0000
  C   C4        1.0  0.50432  0.03744  0.07265  1.0000
  C   C5        1.0  0.00432  0.46256  0.92735  1.0000
  C   C6        1.0  0.50432  0.46256  0.57265  1.0000
  C   C7        1.0  0.00432  0.03744  0.42735  1.0000
  C   C8        1.0  0.49568  0.96256  0.92735  1.0000
  C   C9        1.0  0.88717  0.41813  0.04437  1.0000
  C   C10       1.0  0.38717  0.41813  0.45563  1.0000
  C   C11       1.0  0.88717  0.08187  0.54437  1.0000
  C   C12       1.0  0.61284  0.91813  0.04437  1.0000
  C   C13       1.0  0.11283  0.58187  0.95563  1.0000
  C   C14       1.0  0.61283  0.58187  0.54437  1.0000
  C   C15       1.0  0.11283  0.91813  0.45563  1.0000
  C   C16       1.0  0.38717  0.08187  0.95563  1.0000
  C   C17       1.0  0.10874  0.61914  0.02785  1.0000
  C   C18       1.0  0.60874  0.61914  0.47215  1.0000
  C   C19       1.0  0.10874  0.88086  0.52785  1.0000
  C   C20       1.0  0.39126  0.11914  0.02785  1.0000
  C   C21       1.0  0.89126  0.38086  0.97215  1.0000
  C   C22       1.0  0.39126  0.38086  0.52785  1.0000
  C   C23       1.0  0.89126  0.11914  0.47215  1.0000
  C   C24       1.0  0.60874  0.88086  0.97215  1.0000
  N   N1        1.0  0.99644  0.57064  0.14749  1.0000
  N   N2        1.0  0.49645  0.57064  0.35251  1.0000
  N   N3        1.0  0.99644  0.92936  0.64749  1.0000
  N   N4        1.0  0.50356  0.07064  0.14749  1.0000
  N   N5        1.0  0.00355  0.42935  0.85251  1.0000
  N   N6        1.0  0.50355  0.42936  0.64749  1.0000
  N   N7        1.0  0.00356  0.07064  0.35251  1.0000
  N   N8        1.0  0.49644  0.92936  0.85251  1.0000
  O   O1        1.0  0.06418  0.19389  0.19762  1.0000
  O   O2        1.0  0.56418  0.19388  0.30238  1.0000
  O   O3        1.0  0.06417  0.30611  0.69762  1.0000
  O   O4        1.0  0.43582  0.69388  0.19762  1.0000
  O   O5        1.0  0.93583  0.80612  0.80238  1.0000
  O   O6        1.0  0.43582  0.80612  0.69762  1.0000
  O   O7        1.0  0.93582  0.69389  0.30238  1.0000
  O   O8        1.0  0.56418  0.30612  0.80239  1.0000
  O   O9        1.0  0.12604  0.90217  0.15556  1.0000
  O   O10       1.0  0.62604  0.90216  0.34444  1.0000
  O   O11       1.0  0.12604  0.59783  0.65556  1.0000
  O   O12       1.0  0.37396  0.40216  0.15556  1.0000
  O   O13       1.0  0.87396  0.09784  0.84444  1.0000
  O   O14       1.0  0.37396  0.09784  0.65556  1.0000
  O   O15       1.0  0.87397  0.40216  0.34443  1.0000
  O   O16       1.0  0.62604  0.59784  0.84444  1.0000
  O   O17       1.0  0.83137  0.97700  0.19652  1.0000
  O   O18       1.0  0.33137  0.97700  0.30348  1.0000
  O   O19       1.0  0.83137  0.52300  0.69652  1.0000
  O   O20       1.0  0.66863  0.47700  0.19652  1.0000
  O   O21       1.0  0.16863  0.02301  0.80348  1.0000
  O   O22       1.0  0.66863  0.02301  0.69652  1.0000
  O   O23       1.0  0.16864  0.47700  0.30348  1.0000
  O   O24       1.0  0.33137  0.52300  0.80348  1.0000
