data_image0
_chemical_formula_structural       Zn4H28C24S4N12O20
_chemical_formula_sum              "Zn4 H28 C24 S4 N12 O20"
_cell_length_a       8.66636
_cell_length_b       9.67311
_cell_length_c       11.8402
_cell_angle_alpha    90.0013
_cell_angle_beta     92.842
_cell_angle_gamma    90.0002

_space_group_name_H-M_alt    "P 1"
_space_group_IT_number       1

loop_
  _space_group_symop_operation_xyz
  'x, y, z'

loop_
  _atom_site_type_symbol
  _atom_site_label
  _atom_site_symmetry_multiplicity
  _atom_site_fract_x
  _atom_site_fract_y
  _atom_site_fract_z
  _atom_site_occupancy
  Zn  Zn1       1.0  0.86414  0.75164  0.68524  1.0000
  Zn  Zn2       1.0  0.63585  0.25165  0.81477  1.0000
  Zn  Zn3       1.0  0.13586  0.24836  0.31476  1.0000
  Zn  Zn4       1.0  0.36415  0.74835  0.18523  1.0000
  H   H1        1.0  0.86949  0.49362  0.68189  1.0000
  H   H2        1.0  0.63051  0.99362  0.81811  1.0000
  H   H3        1.0  0.13052  0.50638  0.31811  1.0000
  H   H4        1.0  0.36950  0.00638  0.18189  1.0000
  H   H5        1.0  0.04533  0.53400  0.67048  1.0000
  H   H6        1.0  0.45467  0.03402  0.82953  1.0000
  H   H7        1.0  0.95468  0.46599  0.32953  1.0000
  H   H8        1.0  0.54533  0.96598  0.17046  1.0000
  H   H9        1.0  0.84831  0.66206  0.95367  1.0000
  H   H10       1.0  0.65169  0.16206  0.54633  1.0000
  H   H11       1.0  0.15169  0.33795  0.04633  1.0000
  H   H12       1.0  0.34832  0.83795  0.45367  1.0000
  H   H13       1.0  0.03708  0.66297  0.12453  1.0000
  H   H14       1.0  0.46292  0.16298  0.37547  1.0000
  H   H15       1.0  0.96292  0.33704  0.87547  1.0000
  H   H16       1.0  0.53708  0.83704  0.62453  1.0000
  H   H17       1.0  0.37703  0.82948  0.92871  1.0000
  H   H18       1.0  0.12296  0.32950  0.57129  1.0000
  H   H19       1.0  0.62298  0.17051  0.07128  1.0000
  H   H20       1.0  0.87703  0.67050  0.42872  1.0000
  H   H21       1.0  0.99638  0.08016  0.56938  1.0000
  H   H22       1.0  0.50362  0.58017  0.93063  1.0000
  H   H23       1.0  0.00361  0.91983  0.43061  1.0000
  H   H24       1.0  0.49639  0.41983  0.06937  1.0000
  H   H25       1.0  0.10132  0.08373  0.70152  1.0000
  H   H26       1.0  0.39867  0.58373  0.79849  1.0000
  H   H27       1.0  0.89868  0.91627  0.29847  1.0000
  H   H28       1.0  0.60133  0.41627  0.20152  1.0000
  C   C1        1.0  0.96769  0.69523  0.94791  1.0000
  C   C2        1.0  0.53231  0.19524  0.55209  1.0000
  C   C3        1.0  0.03231  0.30477  0.05209  1.0000
  C   C4        1.0  0.46769  0.80477  0.44791  1.0000
  C   C5        1.0  0.07110  0.69716  0.04186  1.0000
  C   C6        1.0  0.42890  0.19717  0.45814  1.0000
  C   C7        1.0  0.92890  0.30285  0.95814  1.0000
  C   C8        1.0  0.57110  0.80284  0.54186  1.0000
  C   C9        1.0  0.26001  0.78893  0.93262  1.0000
  C   C10       1.0  0.23998  0.28894  0.56738  1.0000
  C   C11       1.0  0.73999  0.21107  0.06738  1.0000
  C   C12       1.0  0.76002  0.71107  0.43262  1.0000
  C   C13       1.0  0.15657  0.78298  0.83862  1.0000
  C   C14       1.0  0.34342  0.28299  0.66138  1.0000
  C   C15       1.0  0.84343  0.21702  0.16137  1.0000
  C   C16       1.0  0.65657  0.71702  0.33863  1.0000
  C   C17       1.0  0.01014  0.02799  0.65215  1.0000
  C   C18       1.0  0.48986  0.52799  0.84786  1.0000
  C   C19       1.0  0.98986  0.97201  0.34785  1.0000
  C   C20       1.0  0.51014  0.47201  0.15214  1.0000
  C   C21       1.0  0.86050  0.05232  0.71092  1.0000
  C   C22       1.0  0.63950  0.55232  0.78908  1.0000
  C   C23       1.0  0.13950  0.94768  0.28908  1.0000
  C   C24       1.0  0.36050  0.44768  0.21092  1.0000
  S   S1        1.0  0.20339  0.82940  0.69565  1.0000
  S   S2        1.0  0.29660  0.32940  0.80435  1.0000
  S   S3        1.0  0.79661  0.17061  0.30435  1.0000
  S   S4        1.0  0.70340  0.67060  0.19565  1.0000
  N   N1        1.0  0.01180  0.73751  0.84710  1.0000
  N   N2        1.0  0.48819  0.23751  0.65289  1.0000
  N   N3        1.0  0.98820  0.26249  0.15290  1.0000
  N   N4        1.0  0.51180  0.76249  0.34711  1.0000
  N   N5        1.0  0.21574  0.74422  0.03341  1.0000
  N   N6        1.0  0.28425  0.24424  0.46659  1.0000
  N   N7        1.0  0.78426  0.25577  0.96659  1.0000
  N   N8        1.0  0.71575  0.75577  0.53342  1.0000
  N   N9        1.0  0.04774  0.88171  0.63626  1.0000
  N   N10       1.0  0.45225  0.38171  0.86375  1.0000
  N   N11       1.0  0.95226  0.11829  0.36374  1.0000
  N   N12       1.0  0.54775  0.61829  0.13625  1.0000
  O   O1        1.0  0.24661  0.69802  0.64645  1.0000
  O   O2        1.0  0.25338  0.19802  0.85355  1.0000
  O   O3        1.0  0.75340  0.30198  0.35355  1.0000
  O   O4        1.0  0.74662  0.80199  0.14645  1.0000
  O   O5        1.0  0.32386  0.93492  0.70839  1.0000
  O   O6        1.0  0.17614  0.43492  0.79162  1.0000
  O   O7        1.0  0.67614  0.06509  0.29161  1.0000
  O   O8        1.0  0.82386  0.56509  0.20838  1.0000
  O   O9        1.0  0.77888  0.94839  0.73799  1.0000
  O   O10       1.0  0.72112  0.44839  0.76202  1.0000
  O   O11       1.0  0.22113  0.05161  0.26202  1.0000
  O   O12       1.0  0.27888  0.55161  0.23798  1.0000
  O   O13       1.0  0.82512  0.17741  0.72778  1.0000
  O   O14       1.0  0.67488  0.67741  0.77221  1.0000
  O   O15       1.0  0.17488  0.82259  0.27221  1.0000
  O   O16       1.0  0.32512  0.32259  0.22779  1.0000
  O   O17       1.0  0.94092  0.55193  0.63790  1.0000
  O   O18       1.0  0.55907  0.05193  0.86211  1.0000
  O   O19       1.0  0.05908  0.44807  0.36211  1.0000
  O   O20       1.0  0.44093  0.94807  0.13789  1.0000
