data_image0
_chemical_formula_structural       Zn2As2H32C36N6O10
_chemical_formula_sum              "Zn2 As2 H32 C36 N6 O10"
_cell_length_a       8.36749
_cell_length_b       9.58231
_cell_length_c       11.3847
_cell_angle_alpha    90.0001
_cell_angle_beta     110.656
_cell_angle_gamma    89.9999

_space_group_name_H-M_alt    "P 1"
_space_group_IT_number       1

loop_
  _space_group_symop_operation_xyz
  'x, y, z'

loop_
  _atom_site_type_symbol
  _atom_site_label
  _atom_site_symmetry_multiplicity
  _atom_site_fract_x
  _atom_site_fract_y
  _atom_site_fract_z
  _atom_site_occupancy
  Zn  Zn1       1.0  0.01208  0.60185  0.58084  1.0000
  Zn  Zn2       1.0  0.98792  0.10186  0.41916  1.0000
  As  As1       1.0  0.13700  0.78332  0.39244  1.0000
  As  As2       1.0  0.86300  0.28332  0.60756  1.0000
  H   H1        1.0  0.30376  0.96786  0.36496  1.0000
  H   H2        1.0  0.69624  0.46786  0.63504  1.0000
  H   H3        1.0  0.28479  0.53455  0.41346  1.0000
  H   H4        1.0  0.71521  0.03454  0.58654  1.0000
  H   H5        1.0  0.87113  0.83374  0.14988  1.0000
  H   H6        1.0  0.12886  0.33374  0.85012  1.0000
  H   H7        1.0  0.75451  0.70265  0.94582  1.0000
  H   H8        1.0  0.24548  0.20265  0.05418  1.0000
  H   H9        1.0  0.88420  0.47513  0.92515  1.0000
  H   H10       1.0  0.11580  0.97513  0.07485  1.0000
  H   H11       1.0  0.11818  0.37539  0.10109  1.0000
  H   H12       1.0  0.88182  0.87539  0.89891  1.0000
  H   H13       1.0  0.47096  0.35801  0.40173  1.0000
  H   H14       1.0  0.52904  0.85800  0.59827  1.0000
  H   H15       1.0  0.38306  0.35563  0.23691  1.0000
  H   H16       1.0  0.61694  0.85562  0.76309  1.0000
  H   H17       1.0  0.04369  0.72115  0.84427  1.0000
  H   H18       1.0  0.95631  0.22116  0.15573  1.0000
  H   H19       1.0  0.23808  0.71197  0.06537  1.0000
  H   H20       1.0  0.76192  0.21198  0.93463  1.0000
  H   H21       1.0  0.59210  0.48302  0.93838  1.0000
  H   H22       1.0  0.40790  0.98302  0.06162  1.0000
  H   H23       1.0  0.38658  0.51272  0.72013  1.0000
  H   H24       1.0  0.61342  0.01273  0.27987  1.0000
  H   H25       1.0  0.46746  0.77895  0.21554  1.0000
  H   H26       1.0  0.53254  0.27896  0.78447  1.0000
  H   H27       1.0  0.67874  0.39521  0.13305  1.0000
  H   H28       1.0  0.32126  0.89521  0.86695  1.0000
  H   H29       1.0  0.69279  0.77395  0.42549  1.0000
  H   H30       1.0  0.30721  0.27395  0.57451  1.0000
  H   H31       1.0  0.89405  0.40465  0.34906  1.0000
  H   H32       1.0  0.10595  0.90466  0.65094  1.0000
  C   C1        1.0  0.06085  0.67868  0.23777  1.0000
  C   C2        1.0  0.93914  0.17868  0.76223  1.0000
  C   C3        1.0  0.92639  0.73415  0.13743  1.0000
  C   C4        1.0  0.07360  0.23415  0.86257  1.0000
  C   C5        1.0  0.86129  0.66165  0.02409  1.0000
  C   C6        1.0  0.13871  0.16165  0.97591  1.0000
  C   C7        1.0  0.93224  0.53226  0.01372  1.0000
  C   C8        1.0  0.06776  0.03226  0.98629  1.0000
  C   C9        1.0  0.06554  0.47576  0.11330  1.0000
  C   C10       1.0  0.93446  0.97576  0.88670  1.0000
  C   C11       1.0  0.13498  0.54692  0.22914  1.0000
  C   C12       1.0  0.86502  0.04691  0.77086  1.0000
  C   C13       1.0  0.34933  0.36287  0.32170  1.0000
  C   C14       1.0  0.65067  0.86287  0.67830  1.0000
  C   C15       1.0  0.24972  0.23114  0.33088  1.0000
  C   C16       1.0  0.75028  0.73114  0.66912  1.0000
  C   C17       1.0  0.16723  0.67037  0.86885  1.0000
  C   C18       1.0  0.83277  0.17037  0.13115  1.0000
  C   C19       1.0  0.27771  0.66523  0.99286  1.0000
  C   C20       1.0  0.72229  0.16524  0.00714  1.0000
  C   C21       1.0  0.43396  0.59516  0.02261  1.0000
  C   C22       1.0  0.56604  0.09517  0.97739  1.0000
  C   C23       1.0  0.47125  0.53597  0.92220  1.0000
  C   C24       1.0  0.52875  0.03598  0.07780  1.0000
  C   C25       1.0  0.35650  0.55091  0.80007  1.0000
  C   C26       1.0  0.64351  0.05092  0.19993  1.0000
  C   C27       1.0  0.55555  0.58858  0.15308  1.0000
  C   C28       1.0  0.44445  0.08859  0.84692  1.0000
  C   C29       1.0  0.55866  0.69333  0.23973  1.0000
  C   C30       1.0  0.44134  0.19333  0.76027  1.0000
  C   C31       1.0  0.67622  0.48123  0.19467  1.0000
  C   C32       1.0  0.32378  0.98123  0.80533  1.0000
  C   C33       1.0  0.68359  0.69075  0.35854  1.0000
  C   C34       1.0  0.31642  0.19075  0.64146  1.0000
  C   C35       1.0  0.79642  0.48521  0.31567  1.0000
  C   C36       1.0  0.20358  0.98522  0.68433  1.0000
  N   N1        1.0  0.26909  0.49459  0.32676  1.0000
  N   N2        1.0  0.73090  0.99459  0.67324  1.0000
  N   N3        1.0  0.20495  0.61547  0.77330  1.0000
  N   N4        1.0  0.79506  0.11547  0.22670  1.0000
  N   N5        1.0  0.80197  0.58932  0.39661  1.0000
  N   N6        1.0  0.19804  0.08932  0.60339  1.0000
  O   O1        1.0  0.19467  0.66789  0.51471  1.0000
  O   O2        1.0  0.80533  0.16789  0.48529  1.0000
  O   O3        1.0  0.98056  0.89677  0.39040  1.0000
  O   O4        1.0  0.01945  0.39677  0.60960  1.0000
  O   O5        1.0  0.32857  0.87055  0.40470  1.0000
  O   O6        1.0  0.67143  0.37055  0.59530  1.0000
  O   O7        1.0  0.12424  0.24965  0.36869  1.0000
  O   O8        1.0  0.87576  0.74965  0.63132  1.0000
  O   O9        1.0  0.30181  0.11617  0.30389  1.0000
  O   O10       1.0  0.69820  0.61617  0.69611  1.0000
