data_image0
_chemical_formula_structural       Ba2V2H16C16N2O22
_chemical_formula_sum              "Ba2 V2 H16 C16 N2 O22"
_cell_length_a       7.0284
_cell_length_b       10.8058
_cell_length_c       11.47
_cell_angle_alpha    112.716
_cell_angle_beta     99.7909
_cell_angle_gamma    96.1993

_space_group_name_H-M_alt    "P 1"
_space_group_IT_number       1

loop_
  _space_group_symop_operation_xyz
  'x, y, z'

loop_
  _atom_site_type_symbol
  _atom_site_label
  _atom_site_symmetry_multiplicity
  _atom_site_fract_x
  _atom_site_fract_y
  _atom_site_fract_z
  _atom_site_occupancy
  Ba  Ba1       1.0  0.43289  0.77164  0.37911  1.0000
  Ba  Ba2       1.0  0.56711  0.22836  0.62089  1.0000
  V   V1        1.0  0.13338  0.25061  0.82258  1.0000
  V   V2        1.0  0.86661  0.74938  0.17741  1.0000
  H   H1        1.0  0.41156  0.29042  0.28138  1.0000
  H   H2        1.0  0.58842  0.70957  0.71861  1.0000
  H   H3        1.0  0.26323  0.87674  0.98576  1.0000
  H   H4        1.0  0.73677  0.12325  0.01423  1.0000
  H   H5        1.0  0.14992  0.73020  0.57092  1.0000
  H   H6        1.0  0.85010  0.26979  0.42909  1.0000
  H   H7        1.0  0.01489  0.61361  0.44780  1.0000
  H   H8        1.0  0.98513  0.38639  0.55221  1.0000
  H   H9        1.0  0.85428  0.99367  0.56574  1.0000
  H   H10       1.0  0.14571  0.00633  0.43426  1.0000
  H   H11       1.0  0.82429  0.00001  0.42842  1.0000
  H   H12       1.0  0.17570  0.99999  0.57158  1.0000
  H   H13       1.0  0.77382  0.46610  0.45091  1.0000
  H   H14       1.0  0.22620  0.53390  0.54910  1.0000
  H   H15       1.0  0.69263  0.50817  0.33590  1.0000
  H   H16       1.0  0.30739  0.49182  0.66411  1.0000
  C   C1        1.0  0.31219  0.40714  0.09646  1.0000
  C   C2        1.0  0.68782  0.59287  0.90354  1.0000
  C   C3        1.0  0.29817  0.26264  0.08344  1.0000
  C   C4        1.0  0.70182  0.73737  0.91655  1.0000
  C   C5        1.0  0.35641  0.21856  0.18025  1.0000
  C   C6        1.0  0.64360  0.78144  0.81975  1.0000
  C   C7        1.0  0.34431  0.07805  0.14512  1.0000
  C   C8        1.0  0.65569  0.92197  0.85488  1.0000
  C   C9        1.0  0.41828  0.03052  0.25029  1.0000
  C   C10       1.0  0.58170  0.96946  0.74970  1.0000
  C   C11       1.0  0.27025  0.98608  0.01496  1.0000
  C   C12       1.0  0.72976  0.01392  0.98504  1.0000
  C   C13       1.0  0.20851  0.03859  0.92454  1.0000
  C   C14       1.0  0.79149  0.96143  0.07546  1.0000
  C   C15       1.0  0.13202  0.96158  0.78072  1.0000
  C   C16       1.0  0.86798  0.03842  0.21927  1.0000
  N   N1        1.0  0.22368  0.17308  0.96048  1.0000
  N   N2        1.0  0.77632  0.82693  0.03953  1.0000
  O   O1        1.0  0.38167  0.50486  0.20273  1.0000
  O   O2        1.0  0.61832  0.49513  0.79726  1.0000
  O   O3        1.0  0.24779  0.41428  0.98604  1.0000
  O   O4        1.0  0.75221  0.58574  0.01398  1.0000
  O   O5        1.0  0.08185  0.04144  0.72257  1.0000
  O   O6        1.0  0.91814  0.95857  0.27743  1.0000
  O   O7        1.0  0.12351  0.83723  0.72604  1.0000
  O   O8        1.0  0.87650  0.16276  0.27394  1.0000
  O   O9        1.0  0.43822  0.11816  0.36528  1.0000
  O   O10       1.0  0.56177  0.88184  0.63472  1.0000
  O   O11       1.0  0.45475  0.91113  0.21414  1.0000
  O   O12       1.0  0.54523  0.08886  0.78585  1.0000
  O   O13       1.0  0.25034  0.28356  0.72307  1.0000
  O   O14       1.0  0.74965  0.71645  0.27693  1.0000
  O   O15       1.0  0.90660  0.27075  0.79402  1.0000
  O   O16       1.0  0.09339  0.72925  0.20598  1.0000
  O   O17       1.0  0.76680  0.54446  0.42579  1.0000
  O   O18       1.0  0.23322  0.45553  0.57422  1.0000
  O   O19       1.0  0.15706  0.65630  0.48811  1.0000
  O   O20       1.0  0.84295  0.34369  0.51189  1.0000
  O   O21       1.0  0.76012  0.00693  0.50006  1.0000
  O   O22       1.0  0.23987  0.99306  0.49994  1.0000
