data_image0
_chemical_formula_structural       Li4H52C44N8O4
_chemical_formula_sum              "Li4 H52 C44 N8 O4"
_cell_length_a       8.24662
_cell_length_b       10.6614
_cell_length_c       12.667
_cell_angle_alpha    99.3604
_cell_angle_beta     90
_cell_angle_gamma    90

_space_group_name_H-M_alt    "P 1"
_space_group_IT_number       1

loop_
  _space_group_symop_operation_xyz
  'x, y, z'

loop_
  _atom_site_type_symbol
  _atom_site_label
  _atom_site_symmetry_multiplicity
  _atom_site_fract_x
  _atom_site_fract_y
  _atom_site_fract_z
  _atom_site_occupancy
  Li  Li1       1.0  0.86455  0.51127  0.04689  1.0000
  Li  Li2       1.0  0.36455  0.48873  0.45311  1.0000
  Li  Li3       1.0  0.13545  0.48874  0.95311  1.0000
  Li  Li4       1.0  0.63545  0.51127  0.54689  1.0000
  H   H1        1.0  0.88215  0.46208  0.84296  1.0000
  H   H2        1.0  0.38215  0.53793  0.65704  1.0000
  H   H3        1.0  0.11785  0.53791  0.15704  1.0000
  H   H4        1.0  0.61785  0.46208  0.34296  1.0000
  H   H5        1.0  0.64871  0.08568  0.68100  1.0000
  H   H6        1.0  0.14873  0.91433  0.81900  1.0000
  H   H7        1.0  0.35129  0.91433  0.31900  1.0000
  H   H8        1.0  0.85128  0.08567  0.18100  1.0000
  H   H9        1.0  0.72850  0.92815  0.79704  1.0000
  H   H10       1.0  0.22851  0.07185  0.70296  1.0000
  H   H11       1.0  0.27149  0.07185  0.20296  1.0000
  H   H12       1.0  0.77149  0.92815  0.29704  1.0000
  H   H13       1.0  0.89781  0.00006  0.95859  1.0000
  H   H14       1.0  0.39782  0.99995  0.54141  1.0000
  H   H15       1.0  0.10218  0.99993  0.04141  1.0000
  H   H16       1.0  0.60217  0.00005  0.45859  1.0000
  H   H17       1.0  0.98812  0.22302  0.00504  1.0000
  H   H18       1.0  0.48813  0.77698  0.49496  1.0000
  H   H19       1.0  0.01188  0.77697  0.99497  1.0000
  H   H20       1.0  0.51188  0.22302  0.50504  1.0000
  H   H21       1.0  0.77799  0.74636  0.16271  1.0000
  H   H22       1.0  0.27799  0.25364  0.33729  1.0000
  H   H23       1.0  0.22201  0.25364  0.83729  1.0000
  H   H24       1.0  0.72201  0.74636  0.66271  1.0000
  H   H25       1.0  0.56598  0.70873  0.16751  1.0000
  H   H26       1.0  0.06598  0.29127  0.33249  1.0000
  H   H27       1.0  0.43402  0.29127  0.83249  1.0000
  H   H28       1.0  0.93403  0.70874  0.66751  1.0000
  H   H29       1.0  0.54935  0.91737  0.11385  1.0000
  H   H30       1.0  0.04934  0.08263  0.38615  1.0000
  H   H31       1.0  0.45065  0.08263  0.88615  1.0000
  H   H32       1.0  0.95065  0.91737  0.61385  1.0000
  H   H33       1.0  0.73080  0.89121  0.03753  1.0000
  H   H34       1.0  0.23080  0.10879  0.46247  1.0000
  H   H35       1.0  0.26919  0.10879  0.96247  1.0000
  H   H36       1.0  0.76920  0.89121  0.53753  1.0000
  H   H37       1.0  0.51998  0.83789  0.89939  1.0000
  H   H38       1.0  0.01998  0.16211  0.60061  1.0000
  H   H39       1.0  0.48001  0.16211  0.10061  1.0000
  H   H40       1.0  0.98001  0.83789  0.39938  1.0000
  H   H41       1.0  0.40048  0.76216  0.98694  1.0000
  H   H42       1.0  0.90048  0.23784  0.51306  1.0000
  H   H43       1.0  0.59952  0.23784  0.01306  1.0000
  H   H44       1.0  0.09952  0.76216  0.48693  1.0000
  H   H45       1.0  0.53951  0.57653  0.89796  1.0000
  H   H46       1.0  0.03951  0.42347  0.60204  1.0000
  H   H47       1.0  0.46049  0.42347  0.10203  1.0000
  H   H48       1.0  0.96049  0.57653  0.39796  1.0000
  H   H49       1.0  0.71587  0.66593  0.87426  1.0000
  H   H50       1.0  0.21587  0.33407  0.62574  1.0000
  H   H51       1.0  0.28413  0.33408  0.12574  1.0000
  H   H52       1.0  0.78412  0.66592  0.37426  1.0000
  C   C1        1.0  0.72587  0.32965  0.71187  1.0000
  C   C2        1.0  0.22588  0.67036  0.78814  1.0000
  C   C3        1.0  0.27414  0.67036  0.28814  1.0000
  C   C4        1.0  0.77412  0.32964  0.21185  1.0000
  C   C5        1.0  0.77307  0.24221  0.77782  1.0000
  C   C6        1.0  0.27308  0.75781  0.72219  1.0000
  C   C7        1.0  0.22694  0.75779  0.22219  1.0000
  C   C8        1.0  0.72692  0.24219  0.27781  1.0000
  C   C9        1.0  0.72336  0.11407  0.75194  1.0000
  C   C10       1.0  0.22336  0.88593  0.74807  1.0000
  C   C11       1.0  0.27665  0.88593  0.24807  1.0000
  C   C12       1.0  0.77664  0.11407  0.25193  1.0000
  C   C13       1.0  0.76760  0.02670  0.81616  1.0000
  C   C14       1.0  0.26761  0.97332  0.68384  1.0000
  C   C15       1.0  0.23239  0.97330  0.18384  1.0000
  C   C16       1.0  0.73239  0.02668  0.31616  1.0000
  C   C17       1.0  0.86392  0.06843  0.90720  1.0000
  C   C18       1.0  0.36393  0.93156  0.59280  1.0000
  C   C19       1.0  0.13607  0.93157  0.09280  1.0000
  C   C20       1.0  0.63607  0.06843  0.40720  1.0000
  C   C21       1.0  0.91480  0.19291  0.93374  1.0000
  C   C22       1.0  0.41480  0.80710  0.56626  1.0000
  C   C23       1.0  0.08521  0.80709  0.06627  1.0000
  C   C24       1.0  0.58520  0.19290  0.43373  1.0000
  C   C25       1.0  0.87154  0.28819  0.87095  1.0000
  C   C26       1.0  0.37154  0.71181  0.62905  1.0000
  C   C27       1.0  0.12847  0.71181  0.12906  1.0000
  C   C28       1.0  0.62846  0.28818  0.37095  1.0000
  C   C29       1.0  0.66507  0.73334  0.11613  1.0000
  C   C30       1.0  0.16506  0.26666  0.38386  1.0000
  C   C31       1.0  0.33493  0.26666  0.88386  1.0000
  C   C32       1.0  0.83494  0.73334  0.61613  1.0000
  C   C33       1.0  0.62049  0.84567  0.06183  1.0000
  C   C34       1.0  0.12048  0.15433  0.43817  1.0000
  C   C35       1.0  0.37951  0.15433  0.93817  1.0000
  C   C36       1.0  0.87951  0.84567  0.56183  1.0000
  C   C37       1.0  0.52544  0.78097  0.96407  1.0000
  C   C38       1.0  0.02544  0.21903  0.53593  1.0000
  C   C39       1.0  0.47456  0.21903  0.03594  1.0000
  C   C40       1.0  0.97456  0.78097  0.46406  1.0000
  C   C41       1.0  0.61758  0.65660  0.93162  1.0000
  C   C42       1.0  0.11758  0.34340  0.56838  1.0000
  C   C43       1.0  0.38242  0.34341  0.06838  1.0000
  C   C44       1.0  0.88242  0.65660  0.43162  1.0000
  N   N1        1.0  0.91997  0.40922  0.89922  1.0000
  N   N2        1.0  0.41997  0.59078  0.60078  1.0000
  N   N3        1.0  0.08003  0.59077  0.10079  1.0000
  N   N4        1.0  0.58003  0.40922  0.39922  1.0000
  N   N5        1.0  0.68958  0.40456  0.65788  1.0000
  N   N6        1.0  0.18958  0.59545  0.84212  1.0000
  N   N7        1.0  0.31043  0.59544  0.34212  1.0000
  N   N8        1.0  0.81041  0.40455  0.15788  1.0000
  O   O1        1.0  0.69049  0.62763  0.02963  1.0000
  O   O2        1.0  0.19049  0.37237  0.47037  1.0000
  O   O3        1.0  0.30951  0.37238  0.97037  1.0000
  O   O4        1.0  0.80951  0.62763  0.52963  1.0000
