data_image0
_chemical_formula_structural       Cu2H32C24N4Cl4O20
_chemical_formula_sum              "Cu2 H32 C24 N4 Cl4 O20"
_cell_length_a       6.36695
_cell_length_b       10.3144
_cell_length_c       13.2909
_cell_angle_alpha    90.0002
_cell_angle_beta     90.0005
_cell_angle_gamma    100.801

_space_group_name_H-M_alt    "P 1"
_space_group_IT_number       1

loop_
  _space_group_symop_operation_xyz
  'x, y, z'

loop_
  _atom_site_type_symbol
  _atom_site_label
  _atom_site_symmetry_multiplicity
  _atom_site_fract_x
  _atom_site_fract_y
  _atom_site_fract_z
  _atom_site_occupancy
  Cu  Cu1       1.0  0.50000  1.00000  1.00000  1.0000
  Cu  Cu2       1.0  1.00000  0.50000  0.50000  1.0000
  H   H1        1.0  0.22387  0.99017  0.14987  1.0000
  H   H2        1.0  0.72386  0.49016  0.35013  1.0000
  H   H3        1.0  0.77614  0.00983  0.85013  1.0000
  H   H4        1.0  0.27614  0.50983  0.64987  1.0000
  H   H5        1.0  0.36376  0.88017  0.17211  1.0000
  H   H6        1.0  0.86376  0.38016  0.32789  1.0000
  H   H7        1.0  0.63625  0.11984  0.82789  1.0000
  H   H8        1.0  0.13626  0.61984  0.67211  1.0000
  H   H9        1.0  0.50749  0.78151  0.86142  1.0000
  H   H10       1.0  0.00746  0.28150  0.63859  1.0000
  H   H11       1.0  0.49252  0.21850  0.13858  1.0000
  H   H12       1.0  0.99253  0.71850  0.36142  1.0000
  H   H13       1.0  0.64323  0.57004  0.86384  1.0000
  H   H14       1.0  0.14320  0.07003  0.63616  1.0000
  H   H15       1.0  0.35680  0.42997  0.13615  1.0000
  H   H16       1.0  0.85679  0.92997  0.36385  1.0000
  H   H17       1.0  0.91048  0.67994  0.15675  1.0000
  H   H18       1.0  0.41049  0.17994  0.34326  1.0000
  H   H19       1.0  0.08951  0.32006  0.84325  1.0000
  H   H20       1.0  0.58951  0.82006  0.65675  1.0000
  H   H21       1.0  0.75936  0.88450  0.14467  1.0000
  H   H22       1.0  0.25938  0.38450  0.35534  1.0000
  H   H23       1.0  0.24062  0.11550  0.85533  1.0000
  H   H24       1.0  0.74063  0.61550  0.64467  1.0000
  H   H25       1.0  0.79496  0.40922  0.96354  1.0000
  H   H26       1.0  0.29497  0.90922  0.53647  1.0000
  H   H27       1.0  0.20503  0.59078  0.03645  1.0000
  H   H28       1.0  0.70503  0.09078  0.46355  1.0000
  H   H29       1.0  0.86808  0.44228  0.09145  1.0000
  H   H30       1.0  0.36807  0.94227  0.40856  1.0000
  H   H31       1.0  0.13192  0.55772  0.90855  1.0000
  H   H32       1.0  0.63193  0.05773  0.59145  1.0000
  C   C1        1.0  0.59529  0.75410  0.92580  1.0000
  C   C2        1.0  0.09528  0.25410  0.57419  1.0000
  C   C3        1.0  0.40471  0.24590  0.07419  1.0000
  C   C4        1.0  0.90471  0.74590  0.42581  1.0000
  C   C5        1.0  0.67161  0.63682  0.92788  1.0000
  C   C6        1.0  0.17159  0.13681  0.57211  1.0000
  C   C7        1.0  0.32840  0.36319  0.07211  1.0000
  C   C8        1.0  0.82840  0.86319  0.42789  1.0000
  C   C9        1.0  0.78687  0.60647  0.01154  1.0000
  C   C10       1.0  0.28688  0.10647  0.48845  1.0000
  C   C11       1.0  0.21312  0.39353  0.98845  1.0000
  C   C12       1.0  0.71312  0.89353  0.51155  1.0000
  C   C13       1.0  0.82071  0.69808  0.09017  1.0000
  C   C14       1.0  0.32071  0.19808  0.40983  1.0000
  C   C15       1.0  0.17928  0.30192  0.90982  1.0000
  C   C16       1.0  0.67929  0.80191  0.59018  1.0000
  C   C17       1.0  0.73845  0.81298  0.08376  1.0000
  C   C18       1.0  0.23846  0.31298  0.41624  1.0000
  C   C19       1.0  0.26154  0.18702  0.91624  1.0000
  C   C20       1.0  0.76155  0.68702  0.58377  1.0000
  C   C21       1.0  0.88066  0.48392  0.01515  1.0000
  C   C22       1.0  0.38065  0.98392  0.48485  1.0000
  C   C23       1.0  0.11934  0.51608  0.98484  1.0000
  C   C24       1.0  0.61934  0.01608  0.51516  1.0000
  N   N1        1.0  0.62663  0.84054  0.00301  1.0000
  N   N2        1.0  0.12663  0.34054  0.49698  1.0000
  N   N3        1.0  0.37336  0.15945  0.99698  1.0000
  N   N4        1.0  0.87337  0.65946  0.50302  1.0000
  Cl  Cl1       1.0  0.11803  0.85191  0.79790  1.0000
  Cl  Cl2       1.0  0.61802  0.35190  0.70209  1.0000
  Cl  Cl3       1.0  0.88198  0.14810  0.20210  1.0000
  Cl  Cl4       1.0  0.38197  0.64809  0.29791  1.0000
  O   O1        1.0  0.30849  0.93048  0.11791  1.0000
  O   O2        1.0  0.80848  0.43047  0.38209  1.0000
  O   O3        1.0  0.69152  0.06953  0.88209  1.0000
  O   O4        1.0  0.19152  0.56953  0.61791  1.0000
  O   O5        1.0  0.15971  0.86323  0.90568  1.0000
  O   O6        1.0  0.65968  0.36323  0.59430  1.0000
  O   O7        1.0  0.84031  0.13678  0.09430  1.0000
  O   O8        1.0  0.34033  0.63677  0.40570  1.0000
  O   O9        1.0  0.31073  0.90594  0.74137  1.0000
  O   O10       1.0  0.81073  0.40594  0.75862  1.0000
  O   O11       1.0  0.68927  0.09407  0.25862  1.0000
  O   O12       1.0  0.18927  0.59407  0.24139  1.0000
  O   O13       1.0  0.94836  0.92510  0.77171  1.0000
  O   O14       1.0  0.44836  0.42510  0.72830  1.0000
  O   O15       1.0  0.05164  0.07490  0.22829  1.0000
  O   O16       1.0  0.55163  0.57490  0.27171  1.0000
  O   O17       1.0  0.04737  0.71209  0.77191  1.0000
  O   O18       1.0  0.54737  0.21208  0.72808  1.0000
  O   O19       1.0  0.95266  0.28792  0.22809  1.0000
  O   O20       1.0  0.45264  0.78791  0.27192  1.0000
