data_image0
_chemical_formula_structural       Al6Fe2P8H16C12N8O32
_chemical_formula_sum              "Al6 Fe2 P8 H16 C12 N8 O32"
_cell_length_a       8.65151
_cell_length_b       8.9756
_cell_length_c       13.9789
_cell_angle_alpha    93.013
_cell_angle_beta     91.929
_cell_angle_gamma    116.424

_space_group_name_H-M_alt    "P 1"
_space_group_IT_number       1

loop_
  _space_group_symop_operation_xyz
  'x, y, z'

loop_
  _atom_site_type_symbol
  _atom_site_label
  _atom_site_symmetry_multiplicity
  _atom_site_fract_x
  _atom_site_fract_y
  _atom_site_fract_z
  _atom_site_occupancy
  Al  Al1       1.0  0.13894  0.42484  0.40877  1.0000
  Al  Al2       1.0  0.86106  0.57516  0.59123  1.0000
  Al  Al3       1.0  0.80986  0.79034  0.24820  1.0000
  Al  Al4       1.0  0.19013  0.20966  0.75180  1.0000
  Al  Al5       1.0  0.86891  0.52166  0.86833  1.0000
  Al  Al6       1.0  0.13109  0.47834  0.13167  1.0000
  Fe  Fe1       1.0  0.58844  0.27436  0.22981  1.0000
  Fe  Fe2       1.0  0.41156  0.72564  0.77019  1.0000
  P   P1        1.0  0.90723  0.59693  0.37388  1.0000
  P   P2        1.0  0.09277  0.40307  0.62612  1.0000
  P   P3        1.0  0.89321  0.17002  0.25040  1.0000
  P   P4        1.0  0.10679  0.82998  0.74960  1.0000
  P   P5        1.0  0.82271  0.54696  0.09001  1.0000
  P   P6        1.0  0.17728  0.45303  0.90999  1.0000
  P   P7        1.0  0.43540  0.54650  0.27123  1.0000
  P   P8        1.0  0.56460  0.45350  0.72877  1.0000
  H   H1        1.0  0.29901  0.78568  0.98979  1.0000
  H   H2        1.0  0.70099  0.21431  0.01021  1.0000
  H   H3        1.0  0.39548  0.19691  0.56281  1.0000
  H   H4        1.0  0.60452  0.80309  0.43719  1.0000
  H   H5        1.0  0.27148  0.22422  0.09204  1.0000
  H   H6        1.0  0.72852  0.77578  0.90796  1.0000
  H   H7        1.0  0.13324  0.95438  0.95558  1.0000
  H   H8        1.0  0.86676  0.04561  0.04442  1.0000
  H   H9        1.0  0.50182  0.90557  0.14200  1.0000
  H   H10       1.0  0.49818  0.09443  0.85800  1.0000
  H   H11       1.0  0.57503  0.39510  0.44293  1.0000
  H   H12       1.0  0.42497  0.60490  0.55707  1.0000
  H   H13       1.0  0.22417  0.89713  0.48670  1.0000
  H   H14       1.0  0.77583  0.10287  0.51330  1.0000
  H   H15       1.0  0.31060  0.91573  0.29688  1.0000
  H   H16       1.0  0.68940  0.08427  0.70312  1.0000
  C   C1        1.0  0.29602  0.11664  0.08308  1.0000
  C   C2        1.0  0.70398  0.88335  0.91692  1.0000
  C   C3        1.0  0.22834  0.98455  0.01494  1.0000
  C   C4        1.0  0.77166  0.01544  0.98506  1.0000
  C   C5        1.0  0.41996  0.95550  0.11150  1.0000
  C   C6        1.0  0.58005  0.04450  0.88850  1.0000
  C   C7        1.0  0.49312  0.26329  0.42764  1.0000
  C   C8        1.0  0.50688  0.73672  0.57236  1.0000
  C   C9        1.0  0.30966  0.00143  0.44858  1.0000
  C   C10       1.0  0.69034  0.99857  0.55142  1.0000
  C   C11       1.0  0.35415  0.01236  0.35496  1.0000
  C   C12       1.0  0.64585  0.98764  0.64504  1.0000
  N   N1        1.0  0.41565  0.09726  0.14283  1.0000
  N   N2        1.0  0.58435  0.90274  0.85717  1.0000
  N   N3        1.0  0.30766  0.88498  0.03420  1.0000
  N   N4        1.0  0.69234  0.11501  0.96580  1.0000
  N   N5        1.0  0.46873  0.17657  0.34292  1.0000
  N   N6        1.0  0.53127  0.82343  0.65708  1.0000
  N   N7        1.0  0.39841  0.16035  0.49257  1.0000
  N   N8        1.0  0.60159  0.83965  0.50743  1.0000
  O   O1        1.0  0.70412  0.13745  0.23812  1.0000
  O   O2        1.0  0.29588  0.86255  0.76189  1.0000
  O   O3        1.0  0.46199  0.40620  0.22107  1.0000
  O   O4        1.0  0.53802  0.59380  0.77893  1.0000
  O   O5        1.0  0.70109  0.36675  0.11095  1.0000
  O   O6        1.0  0.29892  0.63325  0.88905  1.0000
  O   O7        1.0  0.97551  0.23881  0.35334  1.0000
  O   O8        1.0  0.02450  0.76119  0.64666  1.0000
  O   O9        1.0  0.07904  0.58617  0.39569  1.0000
  O   O10       1.0  0.92096  0.41383  0.60430  1.0000
  O   O11       1.0  0.82984  0.60644  0.47157  1.0000
  O   O12       1.0  0.17016  0.39357  0.52843  1.0000
  O   O13       1.0  0.95450  0.76504  0.32916  1.0000
  O   O14       1.0  0.04551  0.23496  0.67084  1.0000
  O   O15       1.0  0.77785  0.68024  0.13692  1.0000
  O   O16       1.0  0.22215  0.31976  0.86308  1.0000
  O   O17       1.0  0.80947  0.56102  0.98089  1.0000
  O   O18       1.0  0.19053  0.43897  0.01911  1.0000
  O   O19       1.0  0.01305  0.59262  0.12260  1.0000
  O   O20       1.0  0.98695  0.40738  0.87740  1.0000
  O   O21       1.0  0.60513  0.70969  0.29910  1.0000
  O   O22       1.0  0.39487  0.29031  0.70090  1.0000
  O   O23       1.0  0.34619  0.49407  0.36651  1.0000
  O   O24       1.0  0.65381  0.50593  0.63349  1.0000
  O   O25       1.0  0.32049  0.59516  0.20479  1.0000
  O   O26       1.0  0.67951  0.40484  0.79521  1.0000
  O   O27       1.0  0.78167  0.45269  0.30780  1.0000
  O   O28       1.0  0.21834  0.54731  0.69220  1.0000
  O   O29       1.0  0.89482  0.00061  0.22992  1.0000
  O   O30       1.0  0.10518  0.99939  0.77008  1.0000
  O   O31       1.0  0.00902  0.28657  0.17771  1.0000
  O   O32       1.0  0.99098  0.71343  0.82229  1.0000
