data_image0
_chemical_formula_structural       P2H20PbC18O8
_chemical_formula_sum              "P2 H20 Pb1 C18 O8"
_cell_length_a       5.17555
_cell_length_b       8.49017
_cell_length_c       12.1359
_cell_angle_alpha    110.572
_cell_angle_beta     99.0993
_cell_angle_gamma    89.963

_space_group_name_H-M_alt    "P 1"
_space_group_IT_number       1

loop_
  _space_group_symop_operation_xyz
  'x, y, z'

loop_
  _atom_site_type_symbol
  _atom_site_label
  _atom_site_symmetry_multiplicity
  _atom_site_fract_x
  _atom_site_fract_y
  _atom_site_fract_z
  _atom_site_occupancy
  P   P1        1.0  0.61230  0.57113  0.18165  1.0000
  P   P2        1.0  0.38756  0.38881  0.81851  1.0000
  H   H1        1.0  0.36644  0.81559  0.36299  1.0000
  H   H2        1.0  0.63373  0.45162  0.63749  1.0000
  H   H3        1.0  0.46787  0.92885  0.58335  1.0000
  H   H4        1.0  0.53266  0.34427  0.41711  1.0000
  H   H5        1.0  0.85641  0.83186  0.69009  1.0000
  H   H6        1.0  0.14394  0.14078  0.30999  1.0000
  H   H7        1.0  0.14477  0.63021  0.57332  1.0000
  H   H8        1.0  0.85574  0.05575  0.42637  1.0000
  H   H9        1.0  0.05118  0.52371  0.35182  1.0000
  H   H10       1.0  0.94859  0.17107  0.64786  1.0000
  H   H11       1.0  0.28766  0.39127  0.20547  1.0000
  H   H12       1.0  0.71152  0.18429  0.79369  1.0000
  H   H13       1.0  0.33767  0.32777  0.05713  1.0000
  H   H14       1.0  0.66326  0.26968  0.94232  1.0000
  H   H15       1.0  0.78240  0.21952  0.11458  1.0000
  H   H16       1.0  0.21760  0.10486  0.88539  1.0000
  H   H17       1.0  0.73780  0.28664  0.26355  1.0000
  H   H18       1.0  0.26157  0.02204  0.73636  1.0000
  H   H19       1.0  0.55234  0.86026  0.17233  1.0000
  H   H20       1.0  0.44722  0.68730  0.82797  1.0000
  Pb  Pb1       1.0  0.99986  0.68217  0.00020  1.0000
  C   C1        1.0  0.70008  0.66056  0.34262  1.0000
  C   C2        1.0  0.29988  0.31714  0.65751  1.0000
  C   C3        1.0  0.53772  0.77570  0.40905  1.0000
  C   C4        1.0  0.46248  0.36567  0.59128  1.0000
  C   C5        1.0  0.59527  0.83860  0.53350  1.0000
  C   C6        1.0  0.40521  0.30399  0.46682  1.0000
  C   C7        1.0  0.81203  0.78526  0.59278  1.0000
  C   C8        1.0  0.18844  0.19138  0.40731  1.0000
  C   C9        1.0  0.97486  0.67099  0.52714  1.0000
  C   C10       1.0  0.02555  0.14277  0.47272  1.0000
  C   C11       1.0  0.92055  0.61010  0.40263  1.0000
  C   C12       1.0  0.07948  0.20658  0.59728  1.0000
  C   C13       1.0  0.44143  0.36982  0.14974  1.0000
  C   C14       1.0  0.55850  0.21905  0.84988  1.0000
  C   C15       1.0  0.62992  0.24170  0.17144  1.0000
  C   C16       1.0  0.36983  0.06949  0.82840  1.0000
  C   C17       1.0  0.49831  0.07209  0.14798  1.0000
  C   C18       1.0  0.50132  0.92332  0.85189  1.0000
  O   O1        1.0  0.85963  0.54182  0.12433  1.0000
  O   O2        1.0  0.14038  0.41693  0.87593  1.0000
  O   O3        1.0  0.42281  0.68970  0.14344  1.0000
  O   O4        1.0  0.57699  0.54564  0.85698  1.0000
  O   O5        1.0  0.27076  0.02804  0.09546  1.0000
  O   O6        1.0  0.72898  0.93183  0.90428  1.0000
  O   O7        1.0  0.65460  0.97428  0.19016  1.0000
  O   O8        1.0  0.34491  0.78332  0.80995  1.0000
