data_image0
_chemical_formula_structural       Zn3H30C18O24
_chemical_formula_sum              "Zn3 H30 C18 O24"
_cell_length_a       6.48051
_cell_length_b       10.7465
_cell_length_c       10.7465
_cell_angle_alpha    75.1496
_cell_angle_beta     73.1176
_cell_angle_gamma    73.1178

_space_group_name_H-M_alt    "P 1"
_space_group_IT_number       1

loop_
  _space_group_symop_operation_xyz
  'x, y, z'

loop_
  _atom_site_type_symbol
  _atom_site_label
  _atom_site_symmetry_multiplicity
  _atom_site_fract_x
  _atom_site_fract_y
  _atom_site_fract_z
  _atom_site_occupancy
  Zn  Zn1       1.0  0.00000  0.55444  0.44556  1.0000
  Zn  Zn2       1.0  0.23242  0.00616  0.47317  1.0000
  Zn  Zn3       1.0  0.76759  0.52683  0.99384  1.0000
  H   H1        1.0  0.20210  0.74176  0.99451  1.0000
  H   H2        1.0  0.79790  0.00549  0.25824  1.0000
  H   H3        1.0  1.00000  0.15831  0.84169  1.0000
  H   H4        1.0  0.50000  0.89648  0.10352  1.0000
  H   H5        1.0  0.29884  0.31244  0.95291  1.0000
  H   H6        1.0  0.70116  0.04709  0.68756  1.0000
  H   H7        1.0  0.03114  0.22096  0.35201  1.0000
  H   H8        1.0  0.96886  0.64799  0.77904  1.0000
  H   H9        1.0  0.85613  0.21174  0.50035  1.0000
  H   H10       1.0  0.14387  0.49965  0.78826  1.0000
  H   H11       1.0  0.93011  0.87709  0.46151  1.0000
  H   H12       1.0  0.06990  0.53849  0.12291  1.0000
  H   H13       1.0  0.91513  0.87611  0.61334  1.0000
  H   H14       1.0  0.08487  0.38666  0.12389  1.0000
  H   H15       1.0  0.59026  0.79971  0.44741  1.0000
  H   H16       1.0  0.40975  0.55259  0.20029  1.0000
  H   H17       1.0  0.43106  0.79820  0.59593  1.0000
  H   H18       1.0  0.56895  0.40407  0.20180  1.0000
  H   H19       1.0  0.55502  0.15308  0.33759  1.0000
  H   H20       1.0  0.44498  0.66241  0.84692  1.0000
  H   H21       1.0  0.54101  0.12991  0.49213  1.0000
  H   H22       1.0  0.45899  0.50787  0.87010  1.0000
  H   H23       1.0  0.31926  0.54374  0.57420  1.0000
  H   H24       1.0  0.68075  0.42580  0.45626  1.0000
  H   H25       1.0  0.30342  0.68852  0.49136  1.0000
  H   H26       1.0  0.69658  0.50864  0.31148  1.0000
  H   H27       1.0  0.85774  0.53808  0.69988  1.0000
  H   H28       1.0  0.14225  0.30012  0.46192  1.0000
  H   H29       1.0  0.66406  0.50518  0.65291  1.0000
  H   H30       1.0  0.33594  0.34709  0.49482  1.0000
  C   C1        1.0  0.00000  0.75037  0.24962  1.0000
  C   C2        1.0  1.00000  0.86295  0.13704  1.0000
  C   C3        1.0  0.11428  0.84158  0.00945  1.0000
  C   C4        1.0  0.88572  0.99054  0.15842  1.0000
  C   C5        1.0  0.11297  0.94743  0.90233  1.0000
  C   C6        1.0  0.88702  0.09767  0.05257  1.0000
  C   C7        1.0  1.00000  0.07533  0.92467  1.0000
  C   C8        1.0  0.22672  0.92280  0.76449  1.0000
  C   C9        1.0  0.77328  0.23551  0.07719  1.0000
  C   C10       1.0  0.26409  0.12132  0.18189  1.0000
  C   C11       1.0  0.73591  0.81812  0.87868  1.0000
  C   C12       1.0  0.38539  0.10624  0.04292  1.0000
  C   C13       1.0  0.61461  0.95708  0.89376  1.0000
  C   C14       1.0  0.50000  0.97932  0.02068  1.0000
  C   C15       1.0  0.38693  0.21301  0.93652  1.0000
  C   C16       1.0  0.61307  0.06348  0.78700  1.0000
  C   C17       1.0  0.50000  0.19195  0.80805  1.0000
  C   C18       1.0  0.50000  0.30581  0.69419  1.0000
  O   O1        1.0  0.11126  0.63317  0.23253  1.0000
  O   O2        1.0  0.88875  0.76745  0.36683  1.0000
  O   O3        1.0  0.35755  0.81021  0.74896  1.0000
  O   O4        1.0  0.64244  0.25104  0.18979  1.0000
  O   O5        1.0  0.18272  0.01771  0.66984  1.0000
  O   O6        1.0  0.81729  0.33016  0.98229  1.0000
  O   O7        1.0  0.29671  0.01888  0.27130  1.0000
  O   O8        1.0  0.70329  0.72870  0.98112  1.0000
  O   O9        1.0  0.13374  0.23235  0.20374  1.0000
  O   O10       1.0  0.86626  0.79626  0.76765  1.0000
  O   O11       1.0  0.56921  0.28327  0.57530  1.0000
  O   O12       1.0  0.43079  0.42470  0.71673  1.0000
  O   O13       1.0  0.01368  0.19917  0.45330  1.0000
  O   O14       1.0  0.98632  0.54670  0.80084  1.0000
  O   O15       1.0  0.94939  0.92710  0.52072  1.0000
  O   O16       1.0  0.05061  0.47928  0.07290  1.0000
  O   O17       1.0  0.43457  0.80848  0.49806  1.0000
  O   O18       1.0  0.56544  0.50194  0.19152  1.0000
  O   O19       1.0  0.51262  0.09464  0.42507  1.0000
  O   O20       1.0  0.48738  0.57493  0.90536  1.0000
  O   O21       1.0  0.24216  0.60910  0.50970  1.0000
  O   O22       1.0  0.75784  0.49031  0.39090  1.0000
  O   O23       1.0  0.78578  0.55120  0.62433  1.0000
  O   O24       1.0  0.21422  0.37567  0.44881  1.0000
