data_image0
_chemical_formula_structural       Cu2Mo8H48C36N4O26
_chemical_formula_sum              "Cu2 Mo8 H48 C36 N4 O26"
_cell_length_a       10.8488
_cell_length_b       11.9969
_cell_length_c       12.881
_cell_angle_alpha    98.5375
_cell_angle_beta     113.459
_cell_angle_gamma    111.696

_space_group_name_H-M_alt    "P 1"
_space_group_IT_number       1

loop_
  _space_group_symop_operation_xyz
  'x, y, z'

loop_
  _atom_site_type_symbol
  _atom_site_label
  _atom_site_symmetry_multiplicity
  _atom_site_fract_x
  _atom_site_fract_y
  _atom_site_fract_z
  _atom_site_occupancy
  Cu  Cu1       1.0  0.53616  0.38029  0.94542  1.0000
  Cu  Cu2       1.0  0.46387  0.61972  0.05458  1.0000
  Mo  Mo1       1.0  0.86648  0.65364  0.11593  1.0000
  Mo  Mo2       1.0  0.13352  0.34636  0.88408  1.0000
  Mo  Mo3       1.0  0.07410  0.65779  0.98732  1.0000
  Mo  Mo4       1.0  0.92591  0.34222  0.01269  1.0000
  Mo  Mo5       1.0  0.15818  0.64369  0.32014  1.0000
  Mo  Mo6       1.0  0.84187  0.35634  0.67986  1.0000
  Mo  Mo7       1.0  0.70667  0.50909  0.79482  1.0000
  Mo  Mo8       1.0  0.29334  0.49091  0.20518  1.0000
  H   H1        1.0  0.66316  0.46648  0.21909  1.0000
  H   H2        1.0  0.33683  0.53351  0.78091  1.0000
  H   H3        1.0  0.59334  0.36212  0.35401  1.0000
  H   H4        1.0  0.40667  0.63787  0.64598  1.0000
  H   H5        1.0  0.28803  0.01158  0.04672  1.0000
  H   H6        1.0  0.71196  0.98841  0.95326  1.0000
  H   H7        1.0  0.20416  0.92922  0.86512  1.0000
  H   H8        1.0  0.79586  0.07079  0.13489  1.0000
  H   H9        1.0  0.19637  0.00477  0.54594  1.0000
  H   H10       1.0  0.80364  0.99522  0.45408  1.0000
  H   H11       1.0  0.39245  0.22937  0.67710  1.0000
  H   H12       1.0  0.60753  0.77062  0.32289  1.0000
  H   H13       1.0  0.38129  0.26078  0.39977  1.0000
  H   H14       1.0  0.61869  0.73921  0.60022  1.0000
  H   H15       1.0  0.55105  0.24688  0.46118  1.0000
  H   H16       1.0  0.44893  0.75311  0.53881  1.0000
  H   H17       1.0  0.38752  0.13553  0.45814  1.0000
  H   H18       1.0  0.61245  0.86444  0.54184  1.0000
  H   H19       1.0  0.41395  0.94763  0.21454  1.0000
  H   H20       1.0  0.58605  0.05235  0.78545  1.0000
  H   H21       1.0  0.39810  0.94976  0.34711  1.0000
  H   H22       1.0  0.60188  0.05024  0.65289  1.0000
  H   H23       1.0  0.56766  0.06351  0.35748  1.0000
  H   H24       1.0  0.43233  0.93648  0.64252  1.0000
  H   H25       1.0  0.05498  0.80487  0.44926  1.0000
  H   H26       1.0  0.94501  0.19511  0.55075  1.0000
  H   H27       1.0  0.91815  0.84143  0.46646  1.0000
  H   H28       1.0  0.08184  0.15855  0.53355  1.0000
  H   H29       1.0  0.89145  0.68236  0.43774  1.0000
  H   H30       1.0  0.10853  0.31762  0.56227  1.0000
  H   H31       1.0  0.85359  0.66741  0.60935  1.0000
  H   H32       1.0  0.14641  0.33258  0.39065  1.0000
  H   H33       1.0  0.98775  0.77627  0.75751  1.0000
  H   H34       1.0  0.01224  0.22372  0.24250  1.0000
  H   H35       1.0  0.88039  0.82663  0.64842  1.0000
  H   H36       1.0  0.11960  0.17336  0.35158  1.0000
  H   H37       1.0  0.06042  0.62432  0.59795  1.0000
  H   H38       1.0  0.93957  0.37567  0.40205  1.0000
  H   H39       1.0  0.22779  0.75109  0.61695  1.0000
  H   H40       1.0  0.77220  0.24889  0.38306  1.0000
  H   H41       1.0  0.20044  0.74130  0.74351  1.0000
  H   H42       1.0  0.79955  0.25868  0.25650  1.0000
  H   H43       1.0  0.14935  0.09108  0.19359  1.0000
  H   H44       1.0  0.85064  0.90891  0.80640  1.0000
  H   H45       1.0  0.15595  0.95307  0.12906  1.0000
  H   H46       1.0  0.84404  0.04692  0.87093  1.0000
  H   H47       1.0  0.15956  0.97903  0.26892  1.0000
  H   H48       1.0  0.84044  0.02097  0.73108  1.0000
  C   C1        1.0  0.57939  0.36608  0.18455  1.0000
  C   C2        1.0  0.42060  0.63393  0.81546  1.0000
  C   C3        1.0  0.53884  0.30614  0.25907  1.0000
  C   C4        1.0  0.46116  0.69387  0.74094  1.0000
  C   C5        1.0  0.42980  0.17683  0.21091  1.0000
  C   C6        1.0  0.57020  0.82318  0.78909  1.0000
  C   C7        1.0  0.37013  0.11290  0.08805  1.0000
  C   C8        1.0  0.62987  0.88712  0.91195  1.0000
  C   C9        1.0  0.41313  0.17782  0.01759  1.0000
  C   C10       1.0  0.58688  0.82222  0.98242  1.0000
  C   C11       1.0  0.34944  0.12000  0.88709  1.0000
  C   C12       1.0  0.65056  0.88003  0.11290  1.0000
  C   C13       1.0  0.24148  0.99279  0.81954  1.0000
  C   C14       1.0  0.75852  0.00721  0.18046  1.0000
  C   C15       1.0  0.17897  0.94692  0.69398  1.0000
  C   C16       1.0  0.82103  0.05308  0.30601  1.0000
  C   C17       1.0  0.23577  0.03387  0.64235  1.0000
  C   C18       1.0  0.76423  0.96613  0.35765  1.0000
  C   C19       1.0  0.34584  0.15979  0.71458  1.0000
  C   C20       1.0  0.65414  0.84021  0.28540  1.0000
  C   C21       1.0  0.37523  0.10323  0.28387  1.0000
  C   C22       1.0  0.62478  0.89677  0.71612  1.0000
  C   C23       1.0  0.44307  0.01024  0.30134  1.0000
  C   C24       1.0  0.55692  0.98975  0.69866  1.0000
  C   C25       1.0  0.19975  0.02735  0.21414  1.0000
  C   C26       1.0  0.80025  0.97264  0.78586  1.0000
  C   C27       1.0  0.42665  0.19255  0.40768  1.0000
  C   C28       1.0  0.57333  0.80743  0.59230  1.0000
  C   C29       1.0  0.05917  0.80748  0.62164  1.0000
  C   C30       1.0  0.94084  0.19253  0.37837  1.0000
  C   C31       1.0  0.97709  0.78359  0.48612  1.0000
  C   C32       1.0  0.02291  0.21640  0.51390  1.0000
  C   C33       1.0  0.93873  0.76799  0.66223  1.0000
  C   C34       1.0  0.06127  0.23201  0.33778  1.0000
  C   C35       1.0  0.14249  0.72637  0.64669  1.0000
  C   C36       1.0  0.85750  0.27362  0.35331  1.0000
  N   N1        1.0  0.51621  0.30405  0.06638  1.0000
  N   N2        1.0  0.48379  0.69597  0.93363  1.0000
  N   N3        1.0  0.40004  0.20219  0.83395  1.0000
  N   N4        1.0  0.59993  0.79780  0.16602  1.0000
  O   O1        1.0  0.66767  0.55554  0.05907  1.0000
  O   O2        1.0  0.33235  0.44445  0.94093  1.0000
  O   O3        1.0  0.89899  0.80154  0.18392  1.0000
  O   O4        1.0  0.10098  0.19845  0.81606  1.0000
  O   O5        1.0  0.94058  0.59339  0.24153  1.0000
  O   O6        1.0  0.05941  0.40662  0.75846  1.0000
  O   O7        1.0  0.17201  0.57057  0.42529  1.0000
  O   O8        1.0  0.82798  0.42944  0.57469  1.0000
  O   O9        1.0  0.23528  0.80209  0.39963  1.0000
  O   O10       1.0  0.76471  0.19793  0.60037  1.0000
  O   O11       1.0  0.32464  0.64794  0.29316  1.0000
  O   O12       1.0  0.67536  0.35208  0.70685  1.0000
  O   O13       1.0  0.65767  0.58149  0.69349  1.0000
  O   O14       1.0  0.34234  0.41853  0.30655  1.0000
  O   O15       1.0  0.55057  0.44903  0.82191  1.0000
  O   O16       1.0  0.44946  0.55097  0.17809  1.0000
  O   O17       1.0  0.18128  0.80005  0.98059  1.0000
  O   O18       1.0  0.81876  0.19994  0.01942  1.0000
  O   O19       1.0  0.92586  0.54925  0.82699  1.0000
  O   O20       1.0  0.07421  0.45078  0.17304  1.0000
  O   O21       1.0  0.18312  0.57605  0.01543  1.0000
  O   O22       1.0  0.81688  0.42395  0.98458  1.0000
  O   O23       1.0  0.85143  0.65265  0.95507  1.0000
  O   O24       1.0  0.14862  0.34737  0.04494  1.0000
  O   O25       1.0  0.08073  0.69173  0.13767  1.0000
  O   O26       1.0  0.91930  0.30828  0.86232  1.0000
