data_image0
_chemical_formula_structural       K4H32Pt2C56N16
_chemical_formula_sum              "K4 H32 Pt2 C56 N16"
_cell_length_a       8.21944
_cell_length_b       8.42262
_cell_length_c       20.405
_cell_angle_alpha    90
_cell_angle_beta     90
_cell_angle_gamma    105.412

_space_group_name_H-M_alt    "P 1"
_space_group_IT_number       1

loop_
  _space_group_symop_operation_xyz
  'x, y, z'

loop_
  _atom_site_type_symbol
  _atom_site_label
  _atom_site_symmetry_multiplicity
  _atom_site_fract_x
  _atom_site_fract_y
  _atom_site_fract_z
  _atom_site_occupancy
  K   K1        1.0  0.96857  0.12022  0.57792  1.0000
  K   K2        1.0  0.03145  0.37978  0.07792  1.0000
  K   K3        1.0  0.03145  0.87979  0.42208  1.0000
  K   K4        1.0  0.96857  0.62021  0.92208  1.0000
  H   H1        1.0  0.34216  0.97938  0.56488  1.0000
  H   H2        1.0  0.65784  0.52061  0.06488  1.0000
  H   H3        1.0  0.65784  0.02062  0.43512  1.0000
  H   H4        1.0  0.34216  0.47938  0.93512  1.0000
  H   H5        1.0  0.55873  0.87146  0.62156  1.0000
  H   H6        1.0  0.44127  0.62853  0.12156  1.0000
  H   H7        1.0  0.44127  0.12854  0.37844  1.0000
  H   H8        1.0  0.55874  0.37147  0.87844  1.0000
  H   H9        1.0  0.55355  0.85588  0.74532  1.0000
  H   H10       1.0  0.44644  0.64413  0.24532  1.0000
  H   H11       1.0  0.44644  0.14412  0.25468  1.0000
  H   H12       1.0  0.55356  0.35588  0.75468  1.0000
  H   H13       1.0  0.42374  0.90876  0.85049  1.0000
  H   H14       1.0  0.57624  0.59124  0.35049  1.0000
  H   H15       1.0  0.57624  0.09123  0.14951  1.0000
  H   H16       1.0  0.42375  0.40876  0.64951  1.0000
  H   H17       1.0  0.20713  0.00877  0.90913  1.0000
  H   H18       1.0  0.79286  0.49124  0.40913  1.0000
  H   H19       1.0  0.79287  0.99124  0.09087  1.0000
  H   H20       1.0  0.20713  0.50876  0.59087  1.0000
  H   H21       1.0  0.95034  0.11202  0.90654  1.0000
  H   H22       1.0  0.04965  0.38800  0.40655  1.0000
  H   H23       1.0  0.04966  0.88799  0.09346  1.0000
  H   H24       1.0  0.95034  0.61201  0.59346  1.0000
  H   H25       1.0  0.73512  0.20333  0.84088  1.0000
  H   H26       1.0  0.26487  0.29667  0.34088  1.0000
  H   H27       1.0  0.26487  0.79667  0.15912  1.0000
  H   H28       1.0  0.73513  0.70333  0.65912  1.0000
  H   H29       1.0  0.75570  0.20208  0.71797  1.0000
  H   H30       1.0  0.24429  0.29791  0.21798  1.0000
  H   H31       1.0  0.24430  0.79792  0.28203  1.0000
  H   H32       1.0  0.75571  0.70209  0.78203  1.0000
  Pt  Pt1       1.0  0.50002  0.50000  0.50001  1.0000
  Pt  Pt2       1.0  0.50001  1.00000  0.99999  1.0000
  C   C1        1.0  0.68212  0.70226  0.51651  1.0000
  C   C2        1.0  0.31790  0.79774  0.01649  1.0000
  C   C3        1.0  0.31791  0.29775  0.48350  1.0000
  C   C4        1.0  0.68211  0.20225  0.98349  1.0000
  C   C5        1.0  0.64634  0.36260  0.53134  1.0000
  C   C6        1.0  0.35367  0.13739  0.03132  1.0000
  C   C7        1.0  0.35367  0.63739  0.46868  1.0000
  C   C8        1.0  0.64634  0.86260  0.96866  1.0000
  C   C9        1.0  0.34137  0.97006  0.61831  1.0000
  C   C10       1.0  0.65863  0.52994  0.11831  1.0000
  C   C11       1.0  0.65863  0.02994  0.38168  1.0000
  C   C12       1.0  0.34137  0.47006  0.88169  1.0000
  C   C13       1.0  0.46442  0.90987  0.65048  1.0000
  C   C14       1.0  0.53557  0.59012  0.15048  1.0000
  C   C15       1.0  0.53557  0.09013  0.34952  1.0000
  C   C16       1.0  0.46443  0.40988  0.84952  1.0000
  C   C17       1.0  0.46105  0.90154  0.71807  1.0000
  C   C18       1.0  0.53894  0.59846  0.21807  1.0000
  C   C19       1.0  0.53894  0.09845  0.28193  1.0000
  C   C20       1.0  0.46106  0.40155  0.78193  1.0000
  C   C21       1.0  0.33615  0.95376  0.75310  1.0000
  C   C22       1.0  0.66384  0.54623  0.25310  1.0000
  C   C23       1.0  0.66384  0.04623  0.24690  1.0000
  C   C24       1.0  0.33616  0.45377  0.74690  1.0000
  C   C25       1.0  0.21553  0.01074  0.71599  1.0000
  C   C26       1.0  0.78446  0.48926  0.21599  1.0000
  C   C27       1.0  0.78446  0.98926  0.28401  1.0000
  C   C28       1.0  0.21554  0.51074  0.78401  1.0000
  C   C29       1.0  0.32957  0.95217  0.82323  1.0000
  C   C30       1.0  0.67042  0.54784  0.32323  1.0000
  C   C31       1.0  0.67042  0.04783  0.17677  1.0000
  C   C32       1.0  0.32958  0.45217  0.67677  1.0000
  C   C33       1.0  0.20891  0.00585  0.85563  1.0000
  C   C34       1.0  0.79108  0.49416  0.35563  1.0000
  C   C35       1.0  0.79108  0.99416  0.14437  1.0000
  C   C36       1.0  0.20891  0.50584  0.64437  1.0000
  C   C37       1.0  0.08318  0.06076  0.82053  1.0000
  C   C38       1.0  0.91681  0.43925  0.32053  1.0000
  C   C39       1.0  0.91681  0.93925  0.17947  1.0000
  C   C40       1.0  0.08319  0.56075  0.67947  1.0000
  C   C41       1.0  0.08412  0.06327  0.75061  1.0000
  C   C42       1.0  0.91587  0.43673  0.25062  1.0000
  C   C43       1.0  0.91587  0.93673  0.24938  1.0000
  C   C44       1.0  0.08413  0.56327  0.74939  1.0000
  C   C45       1.0  0.95481  0.11276  0.85318  1.0000
  C   C46       1.0  0.04518  0.38726  0.35318  1.0000
  C   C47       1.0  0.04518  0.88725  0.14682  1.0000
  C   C48       1.0  0.95481  0.61275  0.64682  1.0000
  C   C49       1.0  0.83574  0.16321  0.81691  1.0000
  C   C50       1.0  0.16425  0.33680  0.31692  1.0000
  C   C51       1.0  0.16426  0.83679  0.18308  1.0000
  C   C52       1.0  0.83574  0.66321  0.68309  1.0000
  C   C53       1.0  0.84758  0.16208  0.74815  1.0000
  C   C54       1.0  0.15241  0.33792  0.24815  1.0000
  C   C55       1.0  0.15241  0.83792  0.25185  1.0000
  C   C56       1.0  0.84759  0.66208  0.75185  1.0000
  N   N1        1.0  0.79109  0.82249  0.52556  1.0000
  N   N2        1.0  0.20893  0.67751  0.02556  1.0000
  N   N3        1.0  0.20893  0.17751  0.47444  1.0000
  N   N4        1.0  0.79109  0.32250  0.97444  1.0000
  N   N5        1.0  0.73364  0.28175  0.54953  1.0000
  N   N6        1.0  0.26637  0.21822  0.04952  1.0000
  N   N7        1.0  0.26637  0.71822  0.45048  1.0000
  N   N8        1.0  0.73365  0.78176  0.95047  1.0000
  N   N9        1.0  0.22027  0.01798  0.64948  1.0000
  N   N10       1.0  0.77973  0.48201  0.14948  1.0000
  N   N11       1.0  0.77973  0.98202  0.35052  1.0000
  N   N12       1.0  0.22027  0.51799  0.85053  1.0000
  N   N13       1.0  0.96637  0.11373  0.71560  1.0000
  N   N14       1.0  0.03362  0.38627  0.21561  1.0000
  N   N15       1.0  0.03363  0.88627  0.28439  1.0000
  N   N16       1.0  0.96638  0.61373  0.78440  1.0000
