data_image0
_chemical_formula_structural       Sr2H28C12N20O14
_chemical_formula_sum              "Sr2 H28 C12 N20 O14"
_cell_length_a       7.70164
_cell_length_b       9.72778
_cell_length_c       11.234
_cell_angle_alpha    90.1931
_cell_angle_beta     102.897
_cell_angle_gamma    92.2821

_space_group_name_H-M_alt    "P 1"
_space_group_IT_number       1

loop_
  _space_group_symop_operation_xyz
  'x, y, z'

loop_
  _atom_site_type_symbol
  _atom_site_label
  _atom_site_symmetry_multiplicity
  _atom_site_fract_x
  _atom_site_fract_y
  _atom_site_fract_z
  _atom_site_occupancy
  Sr  Sr1       1.0  0.25995  0.00768  0.02972  1.0000
  Sr  Sr2       1.0  0.74005  0.99231  0.97029  1.0000
  H   H1        1.0  0.67992  0.27689  0.39338  1.0000
  H   H2        1.0  0.32009  0.72310  0.60661  1.0000
  H   H3        1.0  0.58200  0.36566  0.49848  1.0000
  H   H4        1.0  0.41800  0.63433  0.50150  1.0000
  H   H5        1.0  0.96929  0.48830  0.62076  1.0000
  H   H6        1.0  0.03069  0.51171  0.37923  1.0000
  H   H7        1.0  0.86682  0.59652  0.70906  1.0000
  H   H8        1.0  0.13318  0.40349  0.29093  1.0000
  H   H9        1.0  0.03684  0.75055  0.10123  1.0000
  H   H10       1.0  0.96316  0.24944  0.89877  1.0000
  H   H11       1.0  0.24148  0.71515  0.14686  1.0000
  H   H12       1.0  0.75853  0.28485  0.85314  1.0000
  H   H13       1.0  0.61649  0.99621  0.25724  1.0000
  H   H14       1.0  0.38349  0.00379  0.74276  1.0000
  H   H15       1.0  0.50323  0.85720  0.25381  1.0000
  H   H16       1.0  0.49677  0.14279  0.74620  1.0000
  H   H17       1.0  0.14106  0.20580  0.77969  1.0000
  H   H18       1.0  0.85894  0.79420  0.22031  1.0000
  H   H19       1.0  0.26947  0.28777  0.88633  1.0000
  H   H20       1.0  0.73053  0.71222  0.11368  1.0000
  H   H21       1.0  0.77260  0.30971  0.20560  1.0000
  H   H22       1.0  0.22740  0.69029  0.79440  1.0000
  H   H23       1.0  0.70353  0.40989  0.07297  1.0000
  H   H24       1.0  0.29647  0.59009  0.92702  1.0000
  H   H25       1.0  0.73357  0.81181  0.71069  1.0000
  H   H26       1.0  0.26642  0.18819  0.28931  1.0000
  H   H27       1.0  0.75184  0.97003  0.63705  1.0000
  H   H28       1.0  0.24818  0.02999  0.36294  1.0000
  C   C1        1.0  0.57034  0.45995  0.33603  1.0000
  C   C2        1.0  0.42965  0.54006  0.66398  1.0000
  C   C3        1.0  0.65972  0.36293  0.15045  1.0000
  C   C4        1.0  0.34028  0.63706  0.84954  1.0000
  C   C5        1.0  0.50760  0.25595  0.10410  1.0000
  C   C6        1.0  0.49240  0.74406  0.89590  1.0000
  C   C7        1.0  0.90526  0.67698  0.54966  1.0000
  C   C8        1.0  0.09474  0.32303  0.45033  1.0000
  C   C9        1.0  0.82012  0.87464  0.66461  1.0000
  C   C10       1.0  0.17988  0.12537  0.33539  1.0000
  C   C11       1.0  0.00007  0.90833  0.75464  1.0000
  C   C12       1.0  0.99995  0.09167  0.24537  1.0000
  N   N1        1.0  0.60645  0.46950  0.22310  1.0000
  N   N2        1.0  0.39355  0.53049  0.77691  1.0000
  N   N3        1.0  0.54917  0.59161  0.17433  1.0000
  N   N4        1.0  0.45084  0.40838  0.82567  1.0000
  N   N5        1.0  0.48384  0.65385  0.25597  1.0000
  N   N6        1.0  0.51616  0.34615  0.74402  1.0000
  N   N7        1.0  0.49298  0.57695  0.35732  1.0000
  N   N8        1.0  0.50700  0.42306  0.64267  1.0000
  N   N9        1.0  0.60322  0.35323  0.41150  1.0000
  N   N10       1.0  0.39679  0.64676  0.58850  1.0000
  N   N11       1.0  0.84246  0.80453  0.55642  1.0000
  N   N12       1.0  0.15754  0.19549  0.44358  1.0000
  N   N13       1.0  0.83821  0.86957  0.44926  1.0000
  N   N14       1.0  0.16180  0.13043  0.55074  1.0000
  N   N15       1.0  0.89567  0.78338  0.38058  1.0000
  N   N16       1.0  0.10433  0.21663  0.61941  1.0000
  N   N17       1.0  0.93912  0.66228  0.43817  1.0000
  N   N18       1.0  0.06088  0.33773  0.56182  1.0000
  N   N19       1.0  0.93285  0.58586  0.64114  1.0000
  N   N20       1.0  0.06714  0.41415  0.35885  1.0000
  O   O1        1.0  0.35987  0.26705  0.13299  1.0000
  O   O2        1.0  0.64014  0.73296  0.86702  1.0000
  O   O3        1.0  0.14371  0.89252  0.72250  1.0000
  O   O4        1.0  0.85631  0.10749  0.27751  1.0000
  O   O5        1.0  0.15615  0.75738  0.08096  1.0000
  O   O6        1.0  0.84385  0.24260  0.91904  1.0000
  O   O7        1.0  0.49418  0.95604  0.23599  1.0000
  O   O8        1.0  0.50581  0.04395  0.76402  1.0000
  O   O9        1.0  0.98308  0.95151  0.85910  1.0000
  O   O10       1.0  0.01694  0.04848  0.14090  1.0000
  O   O11       1.0  0.17088  0.21816  0.87085  1.0000
  O   O12       1.0  0.82912  0.78184  0.12915  1.0000
  O   O13       1.0  0.54411  0.15871  0.03854  1.0000
  O   O14       1.0  0.45588  0.84129  0.96146  1.0000
