data_image0
_chemical_formula_structural       Cu2H16C12N10O2
_chemical_formula_sum              "Cu2 H16 C12 N10 O2"
_cell_length_a       6.77013
_cell_length_b       7.67024
_cell_length_c       7.74974
_cell_angle_alpha    89.7413
_cell_angle_beta     86.4569
_cell_angle_gamma    88.8971

_space_group_name_H-M_alt    "P 1"
_space_group_IT_number       1

loop_
  _space_group_symop_operation_xyz
  'x, y, z'

loop_
  _atom_site_type_symbol
  _atom_site_label
  _atom_site_symmetry_multiplicity
  _atom_site_fract_x
  _atom_site_fract_y
  _atom_site_fract_z
  _atom_site_occupancy
  Cu  Cu1       1.0  0.14976  0.01529  0.17802  1.0000
  Cu  Cu2       1.0  0.85023  0.98469  0.82203  1.0000
  H   H1        1.0  0.87479  0.22038  0.15317  1.0000
  H   H2        1.0  0.12523  0.77963  0.84681  1.0000
  H   H3        1.0  0.87426  0.16371  0.35984  1.0000
  H   H4        1.0  0.12571  0.83634  0.64015  1.0000
  H   H5        1.0  0.51425  0.40716  0.10682  1.0000
  H   H6        1.0  0.48578  0.59279  0.89318  1.0000
  H   H7        1.0  0.44070  0.34324  0.32034  1.0000
  H   H8        1.0  0.55931  0.65672  0.67966  1.0000
  H   H9        1.0  0.22921  0.58333  0.20448  1.0000
  H   H10       1.0  0.77082  0.41666  0.79551  1.0000
  H   H11       1.0  0.15379  0.44279  0.04287  1.0000
  H   H12       1.0  0.84624  0.55720  0.95712  1.0000
  H   H13       1.0  0.09400  0.37099  0.43200  1.0000
  H   H14       1.0  0.90600  0.62902  0.56800  1.0000
  H   H15       1.0  0.91441  0.47738  0.30986  1.0000
  H   H16       1.0  0.08560  0.52264  0.69011  1.0000
  C   C1        1.0  0.52124  0.09058  0.02955  1.0000
  C   C2        1.0  0.47873  0.90936  0.97046  1.0000
  C   C3        1.0  0.39619  0.34312  0.18594  1.0000
  C   C4        1.0  0.60383  0.65684  0.81405  1.0000
  C   C5        1.0  0.20200  0.44614  0.17597  1.0000
  C   C6        1.0  0.79804  0.55385  0.82401  1.0000
  C   C7        1.0  0.03846  0.38200  0.30219  1.0000
  C   C8        1.0  0.96156  0.61800  0.69779  1.0000
  C   C9        1.0  0.78052  0.80876  0.27526  1.0000
  C   C10       1.0  0.21947  0.19126  0.72478  1.0000
  C   C11       1.0  0.45948  0.81405  0.39386  1.0000
  C   C12       1.0  0.54052  0.18601  0.60613  1.0000
  N   N1        1.0  0.37921  0.16381  0.12839  1.0000
  N   N2        1.0  0.62075  0.83617  0.87164  1.0000
  N   N3        1.0  0.93196  0.85505  0.20797  1.0000
  N   N4        1.0  0.06803  0.14497  0.79206  1.0000
  N   N5        1.0  0.96314  0.21029  0.25678  1.0000
  N   N6        1.0  0.03685  0.78972  0.74321  1.0000
  N   N7        1.0  0.62370  0.73594  0.34124  1.0000
  N   N8        1.0  0.37629  0.26408  0.65881  1.0000
  N   N9        1.0  0.30273  0.87218  0.44201  1.0000
  N   N10       1.0  0.69726  0.12794  0.55793  1.0000
  O   O1        1.0  0.68825  0.15676  0.97932  1.0000
  O   O2        1.0  0.31171  0.84318  0.02067  1.0000
