data_image0
_chemical_formula_structural       Cu3H28C24N6O20
_chemical_formula_sum              "Cu3 H28 C24 N6 O20"
_cell_length_a       8.51474
_cell_length_b       11.17
_cell_length_c       13.1919
_cell_angle_alpha    115.031
_cell_angle_beta     93.2315
_cell_angle_gamma    89.9856

_space_group_name_H-M_alt    "P 1"
_space_group_IT_number       1

loop_
  _space_group_symop_operation_xyz
  'x, y, z'

loop_
  _atom_site_type_symbol
  _atom_site_label
  _atom_site_symmetry_multiplicity
  _atom_site_fract_x
  _atom_site_fract_y
  _atom_site_fract_z
  _atom_site_occupancy
  Cu  Cu1       1.0  0.98262  0.99456  0.98868  1.0000
  Cu  Cu2       1.0  0.61763  0.02888  0.05811  1.0000
  Cu  Cu3       1.0  0.36534  0.96678  0.93373  1.0000
  H   H1        1.0  0.97492  0.30395  0.44779  1.0000
  H   H2        1.0  0.01996  0.85131  0.54294  1.0000
  H   H3        1.0  0.02032  0.69136  0.54322  1.0000
  H   H4        1.0  0.97495  0.14394  0.44783  1.0000
  H   H5        1.0  0.78772  0.10311  0.77345  1.0000
  H   H6        1.0  0.21186  0.33117  0.23555  1.0000
  H   H7        1.0  0.21183  0.90392  0.23563  1.0000
  H   H8        1.0  0.78750  0.67093  0.77288  1.0000
  H   H9        1.0  0.69235  0.25445  0.84585  1.0000
  H   H10       1.0  0.29630  0.41081  0.15880  1.0000
  H   H11       1.0  0.29629  0.74760  0.15901  1.0000
  H   H12       1.0  0.69338  0.59168  0.84550  1.0000
  H   H13       1.0  0.44732  0.14884  0.70763  1.0000
  H   H14       1.0  0.55346  0.43863  0.28633  1.0000
  H   H15       1.0  0.55355  0.84749  0.28641  1.0000
  H   H16       1.0  0.44744  0.55886  0.70772  1.0000
  H   H17       1.0  0.57706  0.02480  0.62413  1.0000
  H   H18       1.0  0.43180  0.40063  0.37537  1.0000
  H   H19       1.0  0.43177  0.97443  0.37539  1.0000
  H   H20       1.0  0.57659  0.59921  0.62387  1.0000
  H   H21       1.0  0.94299  0.81474  0.04970  1.0000
  H   H22       1.0  0.12307  0.82878  0.02136  1.0000
  H   H23       1.0  0.12342  0.19261  0.02162  1.0000
  H   H24       1.0  0.94362  0.23548  0.05042  1.0000
  H   H25       1.0  0.74447  0.23063  0.30419  1.0000
  H   H26       1.0  0.24778  0.92313  0.68850  1.0000
  H   H27       1.0  0.24801  0.76589  0.68878  1.0000
  H   H28       1.0  0.74492  0.07353  0.30403  1.0000
  C   C1        1.0  0.93584  0.11226  0.22349  1.0000
  C   C2        1.0  0.05519  0.88342  0.76642  1.0000
  C   C3        1.0  0.82183  0.15821  0.31620  1.0000
  C   C4        1.0  0.17127  0.83799  0.67574  1.0000
  C   C5        1.0  0.90210  0.21687  0.43364  1.0000
  C   C6        1.0  0.09267  0.77886  0.55795  1.0000
  C   C7        1.0  0.59894  0.09300  0.86771  1.0000
  C   C8        1.0  0.39214  0.22624  0.13134  1.0000
  C   C9        1.0  0.39194  0.90460  0.13127  1.0000
  C   C10       1.0  0.59880  0.77470  0.86754  1.0000
  C   C11       1.0  0.67207  0.14801  0.79376  1.0000
  C   C12       1.0  0.32342  0.35506  0.20908  1.0000
  C   C13       1.0  0.32342  0.85360  0.20915  1.0000
  C   C14       1.0  0.67223  0.64598  0.79343  1.0000
  C   C15       1.0  0.56999  0.12631  0.68801  1.0000
  C   C16       1.0  0.43314  0.43772  0.31083  1.0000
  C   C17       1.0  0.43322  0.87282  0.31094  1.0000
  C   C18       1.0  0.57001  0.56171  0.68788  1.0000
  C   C19       1.0  0.57367  0.34378  0.68749  1.0000
  C   C20       1.0  0.43453  0.65633  0.31303  1.0000
  C   C21       1.0  0.72862  0.16629  0.55375  1.0000
  C   C22       1.0  0.27059  0.61007  0.44135  1.0000
  C   C23       1.0  0.27074  0.83104  0.44147  1.0000
  C   C24       1.0  0.72863  0.38750  0.55371  1.0000
  N   N1        1.0  0.78417  0.25949  0.51894  1.0000
  N   N2        1.0  0.21350  0.73726  0.47480  1.0000
  N   N3        1.0  0.62360  0.21391  0.63878  1.0000
  N   N4        1.0  0.38252  0.57503  0.36085  1.0000
  N   N5        1.0  0.38271  0.78554  0.36099  1.0000
  N   N6        1.0  0.62367  0.42491  0.63877  1.0000
  O   O1        1.0  0.68293  0.10368  0.95448  1.0000
  O   O2        1.0  0.30566  0.15262  0.04415  1.0000
  O   O3        1.0  0.30559  0.89067  0.04390  1.0000
  O   O4        1.0  0.68254  0.85047  0.95455  1.0000
  O   O5        1.0  0.46054  0.04244  0.83951  1.0000
  O   O6        1.0  0.52954  0.19992  0.15624  1.0000
  O   O7        1.0  0.52915  0.95617  0.15627  1.0000
  O   O8        1.0  0.46048  0.79714  0.83920  1.0000
  O   O9        1.0  0.86373  0.06102  0.12210  1.0000
  O   O10       1.0  0.12397  0.93461  0.86872  1.0000
  O   O11       1.0  0.08066  0.12157  0.24059  1.0000
  O   O12       1.0  0.91074  0.87430  0.74809  1.0000
  O   O13       1.0  0.00946  0.81554  0.99224  1.0000
  O   O14       1.0  0.00969  0.17723  0.99265  1.0000
  O   O15       1.0  0.49004  0.38388  0.76767  1.0000
  O   O16       1.0  0.52036  0.61684  0.23399  1.0000
  O   O17       1.0  0.77001  0.05095  0.51297  1.0000
  O   O18       1.0  0.22467  0.53324  0.47846  1.0000
  O   O19       1.0  0.22493  0.94501  0.47865  1.0000
  O   O20       1.0  0.76994  0.46204  0.51288  1.0000
