data_image0
_chemical_formula_structural       Ca2H16C10Br2O16
_chemical_formula_sum              "Ca2 H16 C10 Br2 O16"
_cell_length_a       6.81988
_cell_length_b       7.67638
_cell_length_c       9.92207
_cell_angle_alpha    75.615
_cell_angle_beta     72.759
_cell_angle_gamma    78.8409

_space_group_name_H-M_alt    "P 1"
_space_group_IT_number       1

loop_
  _space_group_symop_operation_xyz
  'x, y, z'

loop_
  _atom_site_type_symbol
  _atom_site_label
  _atom_site_symmetry_multiplicity
  _atom_site_fract_x
  _atom_site_fract_y
  _atom_site_fract_z
  _atom_site_occupancy
  Ca  Ca1       1.0  0.19773  0.49135  0.12445  1.0000
  Ca  Ca2       1.0  0.80226  0.50865  0.87555  1.0000
  H   H1        1.0  0.28505  0.16565  0.98146  1.0000
  H   H2        1.0  0.71496  0.83435  0.01854  1.0000
  H   H3        1.0  0.25192  0.08065  0.14931  1.0000
  H   H4        1.0  0.74809  0.91934  0.85069  1.0000
  H   H5        1.0  0.12136  0.31912  0.45962  1.0000
  H   H6        1.0  0.87865  0.68088  0.54037  1.0000
  H   H7        1.0  0.20795  0.16430  0.37217  1.0000
  H   H8        1.0  0.79205  0.83570  0.62783  1.0000
  H   H9        1.0  0.25393  0.88741  0.92959  1.0000
  H   H10       1.0  0.74608  0.11259  0.07040  1.0000
  H   H11       1.0  0.03971  0.82176  0.95361  1.0000
  H   H12       1.0  0.96030  0.17824  0.04638  1.0000
  H   H13       1.0  0.88661  0.75974  0.27776  1.0000
  H   H14       1.0  0.11338  0.24027  0.72225  1.0000
  H   H15       1.0  0.09395  0.78269  0.30868  1.0000
  H   H16       1.0  0.90605  0.21731  0.69132  1.0000
  C   C1        1.0  0.48068  0.66268  0.39773  1.0000
  C   C2        1.0  0.51931  0.33732  0.60228  1.0000
  C   C3        1.0  0.66303  0.50527  0.19505  1.0000
  C   C4        1.0  0.33697  0.49472  0.80495  1.0000
  C   C5        1.0  0.60339  0.34068  0.45516  1.0000
  C   C6        1.0  0.39661  0.65932  0.54484  1.0000
  C   C7        1.0  0.46969  0.83335  0.28329  1.0000
  C   C8        1.0  0.53031  0.16665  0.71671  1.0000
  C   C9        1.0  0.58360  0.50101  0.35375  1.0000
  C   C10       1.0  0.41640  0.49899  0.64625  1.0000
  Br  Br1       1.0  0.73018  0.12386  0.38869  1.0000
  Br  Br2       1.0  0.26982  0.87614  0.61131  1.0000
  O   O1        1.0  0.64033  0.87880  0.19854  1.0000
  O   O2        1.0  0.35967  0.12120  0.80146  1.0000
  O   O3        1.0  0.85516  0.49040  0.13780  1.0000
  O   O4        1.0  0.14484  0.50959  0.86220  1.0000
  O   O5        1.0  0.53055  0.52855  0.12315  1.0000
  O   O6        1.0  0.46944  0.47145  0.87685  1.0000
  O   O7        1.0  0.29038  0.91680  0.27944  1.0000
  O   O8        1.0  0.70962  0.08319  0.72056  1.0000
  O   O9        1.0  0.21090  0.18990  0.07811  1.0000
  O   O10       1.0  0.78911  0.81010  0.92189  1.0000
  O   O11       1.0  0.18481  0.29618  0.36152  1.0000
  O   O12       1.0  0.81520  0.70382  0.63848  1.0000
  O   O13       1.0  0.15732  0.80614  0.99699  1.0000
  O   O14       1.0  0.84269  0.19385  0.00301  1.0000
  O   O15       1.0  0.99586  0.69425  0.32518  1.0000
  O   O16       1.0  0.00414  0.30575  0.67482  1.0000
