data_image0
_chemical_formula_structural       Cd2H48C44N8O8
_chemical_formula_sum              "Cd2 H48 C44 N8 O8"
_cell_length_a       7.29142
_cell_length_b       13.3795
_cell_length_c       14.87
_cell_angle_alpha    91.3084
_cell_angle_beta     90
_cell_angle_gamma    90

_space_group_name_H-M_alt    "P 1"
_space_group_IT_number       1

loop_
  _space_group_symop_operation_xyz
  'x, y, z'

loop_
  _atom_site_type_symbol
  _atom_site_label
  _atom_site_symmetry_multiplicity
  _atom_site_fract_x
  _atom_site_fract_y
  _atom_site_fract_z
  _atom_site_occupancy
  Cd  Cd1       1.0  0.81969  0.02128  0.81476  1.0000
  Cd  Cd2       1.0  0.18031  0.52128  0.31476  1.0000
  H   H1        1.0  0.81476  0.80693  0.62444  1.0000
  H   H2        1.0  0.18524  0.30692  0.12444  1.0000
  H   H3        1.0  0.44766  0.61851  0.46893  1.0000
  H   H4        1.0  0.55234  0.11852  0.96893  1.0000
  H   H5        1.0  0.80884  0.31275  0.62919  1.0000
  H   H6        1.0  0.19116  0.81275  0.12919  1.0000
  H   H7        1.0  0.75666  0.21484  0.55157  1.0000
  H   H8        1.0  0.24334  0.71484  0.05156  1.0000
  H   H9        1.0  0.49885  0.24235  0.43197  1.0000
  H   H10       1.0  0.50115  0.74235  0.93197  1.0000
  H   H11       1.0  0.18693  0.73350  0.50777  1.0000
  H   H12       1.0  0.81307  0.23350  0.00776  1.0000
  H   H13       1.0  0.12967  0.95149  0.48255  1.0000
  H   H14       1.0  0.87033  0.45149  0.98255  1.0000
  H   H15       1.0  0.55415  0.92224  0.66278  1.0000
  H   H16       1.0  0.44585  0.42224  0.16277  1.0000
  H   H17       1.0  0.71674  0.74753  0.36906  1.0000
  H   H18       1.0  0.28325  0.24753  0.86906  1.0000
  H   H19       1.0  0.89859  0.69127  0.30515  1.0000
  H   H20       1.0  0.10141  0.19127  0.80515  1.0000
  H   H21       1.0  0.68354  0.62848  0.31647  1.0000
  H   H22       1.0  0.31646  0.12848  0.81647  1.0000
  H   H23       1.0  0.13167  0.48623  0.54141  1.0000
  H   H24       1.0  0.86833  0.98624  0.04141  1.0000
  H   H25       1.0  0.87131  0.58652  0.64768  1.0000
  H   H26       1.0  0.12869  0.08652  0.14768  1.0000
  H   H27       1.0  0.50282  0.30084  0.69775  1.0000
  H   H28       1.0  0.49718  0.80084  0.19774  1.0000
  H   H29       1.0  0.28528  0.16408  0.65074  1.0000
  H   H30       1.0  0.71473  0.66408  0.15073  1.0000
  H   H31       1.0  0.43849  0.12453  0.56601  1.0000
  H   H32       1.0  0.56151  0.62453  0.06600  1.0000
  H   H33       1.0  0.86770  0.05271  0.58736  1.0000
  H   H34       1.0  0.13230  0.55271  0.08736  1.0000
  H   H35       1.0  0.10433  0.85461  0.82713  1.0000
  H   H36       1.0  0.89567  0.35462  0.32713  1.0000
  H   H37       1.0  0.31971  0.91662  0.81435  1.0000
  H   H38       1.0  0.68029  0.41662  0.31435  1.0000
  H   H39       1.0  0.28528  0.79654  0.76397  1.0000
  H   H40       1.0  0.71472  0.29655  0.26398  1.0000
  H   H41       1.0  0.71581  0.37921  0.47907  1.0000
  H   H42       1.0  0.28419  0.87921  0.97907  1.0000
  H   H43       1.0  0.56288  0.41860  0.56380  1.0000
  H   H44       1.0  0.43712  0.91861  0.06380  1.0000
  H   H45       1.0  0.19298  0.23008  0.50023  1.0000
  H   H46       1.0  0.80702  0.73008  0.00022  1.0000
  H   H47       1.0  0.24390  0.32814  0.57787  1.0000
  H   H48       1.0  0.75611  0.82814  0.07787  1.0000
  C   C1        1.0  0.67695  0.79079  0.59974  1.0000
  C   C2        1.0  0.32305  0.29079  0.09974  1.0000
  C   C3        1.0  0.85752  0.62805  0.43262  1.0000
  C   C4        1.0  0.14248  0.12805  0.93261  1.0000
  C   C5        1.0  0.35753  0.83330  0.58808  1.0000
  C   C6        1.0  0.64247  0.33330  0.08808  1.0000
  C   C7        1.0  0.46952  0.68596  0.51006  1.0000
  C   C8        1.0  0.53047  0.18596  0.01006  1.0000
  C   C9        1.0  0.69628  0.27805  0.59048  1.0000
  C   C10       1.0  0.30372  0.77805  0.09047  1.0000
  C   C11       1.0  0.64258  0.16401  0.71854  1.0000
  C   C12       1.0  0.35743  0.66401  0.21853  1.0000
  C   C13       1.0  0.44977  0.30607  0.47409  1.0000
  C   C14       1.0  0.55023  0.80607  0.97409  1.0000
  C   C15       1.0  0.32481  0.74973  0.53233  1.0000
  C   C16       1.0  0.67519  0.24973  0.03233  1.0000
  C   C17       1.0  0.10271  0.95271  0.55419  1.0000
  C   C18       1.0  0.89729  0.45271  0.05419  1.0000
  C   C19       1.0  0.53227  0.85464  0.62188  1.0000
  C   C20       1.0  0.46773  0.35464  0.12188  1.0000
  C   C21       1.0  0.78465  0.67663  0.35133  1.0000
  C   C22       1.0  0.21535  0.17663  0.85133  1.0000
  C   C23       1.0  0.64431  0.70739  0.54377  1.0000
  C   C24       1.0  0.35569  0.20739  0.04377  1.0000
  C   C25       1.0  0.02390  0.53752  0.52283  1.0000
  C   C26       1.0  0.97609  0.03752  0.02283  1.0000
  C   C27       1.0  0.89841  0.58682  0.57609  1.0000
  C   C28       1.0  0.10160  0.08682  0.07609  1.0000
  C   C29       1.0  0.55158  0.23710  0.65562  1.0000
  C   C30       1.0  0.44842  0.73710  0.15562  1.0000
  C   C31       1.0  0.38963  0.19112  0.60385  1.0000
  C   C32       1.0  0.61038  0.69112  0.10384  1.0000
  C   C33       1.0  0.97675  0.00260  0.60673  1.0000
  C   C34       1.0  0.02325  0.50261  0.10673  1.0000
  C   C35       1.0  0.14473  0.91469  0.69841  1.0000
  C   C36       1.0  0.85526  0.41469  0.19841  1.0000
  C   C37       1.0  0.35894  0.37913  0.41107  1.0000
  C   C38       1.0  0.64106  0.87913  0.91107  1.0000
  C   C39       1.0  0.21801  0.86796  0.78048  1.0000
  C   C40       1.0  0.78199  0.36797  0.28048  1.0000
  C   C41       1.0  0.61159  0.35203  0.52589  1.0000
  C   C42       1.0  0.38841  0.85203  0.02589  1.0000
  C   C43       1.0  0.30501  0.26501  0.53911  1.0000
  C   C44       1.0  0.69499  0.76501  0.03911  1.0000
  N   N1        1.0  0.20869  0.89761  0.61277  1.0000
  N   N2        1.0  0.79131  0.39762  0.11277  1.0000
  N   N3        1.0  0.00353  0.97802  0.69551  1.0000
  N   N4        1.0  0.99647  0.47802  0.19551  1.0000
  N   N5        1.0  0.99791  0.56413  0.43453  1.0000
  N   N6        1.0  0.00209  0.06413  0.93453  1.0000
  N   N7        1.0  0.79336  0.64352  0.51841  1.0000
  N   N8        1.0  0.20664  0.14352  0.01841  1.0000
  O   O1        1.0  0.41227  0.47050  0.41358  1.0000
  O   O2        1.0  0.58773  0.97051  0.91358  1.0000
  O   O3        1.0  0.59159  0.07226  0.71445  1.0000
  O   O4        1.0  0.40842  0.57226  0.21445  1.0000
  O   O5        1.0  0.22963  0.34848  0.35989  1.0000
  O   O6        1.0  0.77035  0.84848  0.85989  1.0000
  O   O7        1.0  0.76932  0.19494  0.77109  1.0000
  O   O8        1.0  0.23068  0.69494  0.27109  1.0000
