data_image0
_chemical_formula_structural       Mn2H12C24N4O8
_chemical_formula_sum              "Mn2 H12 C24 N4 O8"
_cell_length_a       9.01382
_cell_length_b       9.06345
_cell_length_c       9.52414
_cell_angle_alpha    115.623
_cell_angle_beta     115.457
_cell_angle_gamma    95.2709

_space_group_name_H-M_alt    "P 1"
_space_group_IT_number       1

loop_
  _space_group_symop_operation_xyz
  'x, y, z'

loop_
  _atom_site_type_symbol
  _atom_site_label
  _atom_site_symmetry_multiplicity
  _atom_site_fract_x
  _atom_site_fract_y
  _atom_site_fract_z
  _atom_site_occupancy
  Mn  Mn1       1.0  0.71644  0.96646  0.93289  1.0000
  Mn  Mn2       1.0  0.28358  0.03356  0.06715  1.0000
  H   H1        1.0  0.40674  0.72313  0.22453  1.0000
  H   H2        1.0  0.68218  0.49820  0.77557  1.0000
  H   H3        1.0  0.59327  0.27685  0.77544  1.0000
  H   H4        1.0  0.31779  0.50180  0.22441  1.0000
  H   H5        1.0  0.90804  0.11630  0.52449  1.0000
  H   H6        1.0  0.88316  0.59186  0.47579  1.0000
  H   H7        1.0  0.09198  0.88370  0.47552  1.0000
  H   H8        1.0  0.11683  0.40814  0.52422  1.0000
  H   H9        1.0  0.94939  0.12961  0.80914  1.0000
  H   H10       1.0  0.63982  0.32048  0.19108  1.0000
  H   H11       1.0  0.05058  0.87040  0.19086  1.0000
  H   H12       1.0  0.36021  0.67951  0.80892  1.0000
  C   C1        1.0  0.56766  0.81717  0.51339  1.0000
  C   C2        1.0  0.55399  0.30350  0.48666  1.0000
  C   C3        1.0  0.43234  0.18282  0.48660  1.0000
  C   C4        1.0  0.44601  0.69652  0.51334  1.0000
  C   C5        1.0  0.53065  0.80956  0.35173  1.0000
  C   C6        1.0  0.67881  0.45754  0.64842  1.0000
  C   C7        1.0  0.46936  0.19043  0.64827  1.0000
  C   C8        1.0  0.32117  0.54248  0.35158  1.0000
  C   C9        1.0  0.65177  0.91801  0.35278  1.0000
  C   C10       1.0  0.79884  0.56506  0.64743  1.0000
  C   C11       1.0  0.34822  0.08199  0.64720  1.0000
  C   C12       1.0  0.20115  0.43493  0.35255  1.0000
  C   C13       1.0  0.80796  0.03227  0.51831  1.0000
  C   C14       1.0  0.78933  0.51394  0.48193  1.0000
  C   C15       1.0  0.19205  0.96773  0.48170  1.0000
  C   C16       1.0  0.21067  0.48607  0.51808  1.0000
  C   C17       1.0  0.83119  0.04007  0.67620  1.0000
  C   C18       1.0  0.65458  0.36381  0.32397  1.0000
  C   C19       1.0  0.16881  0.95993  0.32380  1.0000
  C   C20       1.0  0.34542  0.63619  0.67603  1.0000
  C   C21       1.0  0.60599  0.91095  0.17784  1.0000
  C   C22       1.0  0.92807  0.73301  0.82237  1.0000
  C   C23       1.0  0.39400  0.08906  0.82217  1.0000
  C   C24       1.0  0.07194  0.26699  0.17764  1.0000
  N   N1        1.0  0.71388  0.93605  0.67557  1.0000
  N   N2        1.0  0.53789  0.26031  0.32450  1.0000
  N   N3        1.0  0.28611  0.06394  0.32441  1.0000
  N   N4        1.0  0.46210  0.73968  0.67548  1.0000
  O   O1        1.0  0.72820  0.93637  0.14952  1.0000
  O   O2        1.0  0.07869  0.78679  0.85080  1.0000
  O   O3        1.0  0.27178  0.06364  0.85049  1.0000
  O   O4        1.0  0.92135  0.21321  0.14921  1.0000
  O   O5        1.0  0.44461  0.87630  0.06940  1.0000
  O   O6        1.0  0.87509  0.80686  0.93069  1.0000
  O   O7        1.0  0.55538  0.12369  0.93060  1.0000
  O   O8        1.0  0.12494  0.19316  0.06933  1.0000
