data_image0
_chemical_formula_structural       Nd2H14C4S2O16
_chemical_formula_sum              "Nd2 H14 C4 S2 O16"
_cell_length_a       6.95299
_cell_length_b       6.79975
_cell_length_c       8.67346
_cell_angle_alpha    89.4402
_cell_angle_beta     111.465
_cell_angle_gamma    107.548

_space_group_name_H-M_alt    "P 1"
_space_group_IT_number       1

loop_
  _space_group_symop_operation_xyz
  'x, y, z'

loop_
  _atom_site_type_symbol
  _atom_site_label
  _atom_site_symmetry_multiplicity
  _atom_site_fract_x
  _atom_site_fract_y
  _atom_site_fract_z
  _atom_site_occupancy
  Nd  Nd1       1.0  0.14567  0.87875  0.36505  1.0000
  Nd  Nd2       1.0  0.85433  0.12125  0.63495  1.0000
  H   H1        1.0  0.80795  0.82148  0.99157  1.0000
  H   H2        1.0  0.19205  0.17852  0.00843  1.0000
  H   H3        1.0  0.81118  0.59357  0.04819  1.0000
  H   H4        1.0  0.18882  0.40643  0.95181  1.0000
  H   H5        1.0  0.48115  0.07329  0.20814  1.0000
  H   H6        1.0  0.51885  0.92670  0.79186  1.0000
  H   H7        1.0  0.29958  0.88621  0.07101  1.0000
  H   H8        1.0  0.70042  0.11379  0.92899  1.0000
  H   H9        1.0  0.43602  0.57630  0.67236  1.0000
  H   H10       1.0  0.56398  0.42370  0.32764  1.0000
  H   H11       1.0  0.67611  0.50255  0.76092  1.0000
  H   H12       1.0  0.32390  0.49745  0.23908  1.0000
  H   H13       1.0  0.46243  0.42810  0.84260  1.0000
  H   H14       1.0  0.53757  0.57190  0.15740  1.0000
  C   C1        1.0  0.38478  0.26236  0.61178  1.0000
  C   C2        1.0  0.61522  0.73765  0.38822  1.0000
  C   C3        1.0  0.50089  0.45392  0.73085  1.0000
  C   C4        1.0  0.49912  0.54608  0.26915  1.0000
  S   S1        1.0  0.89491  0.29728  0.24106  1.0000
  S   S2        1.0  0.10509  0.70272  0.75894  1.0000
  O   O1        1.0  0.02021  0.15963  0.23080  1.0000
  O   O2        1.0  0.97979  0.84037  0.76920  1.0000
  O   O3        1.0  0.04703  0.50507  0.32600  1.0000
  O   O4        1.0  0.95297  0.49493  0.67400  1.0000
  O   O5        1.0  0.75490  0.20732  0.33807  1.0000
  O   O6        1.0  0.24510  0.79268  0.66194  1.0000
  O   O7        1.0  0.75088  0.31613  0.06950  1.0000
  O   O8        1.0  0.24912  0.68387  0.93050  1.0000
  O   O9        1.0  0.48251  0.18371  0.54117  1.0000
  O   O10       1.0  0.51749  0.81629  0.45883  1.0000
  O   O11       1.0  0.18104  0.17259  0.57502  1.0000
  O   O12       1.0  0.81896  0.82741  0.42498  1.0000
  O   O13       1.0  0.86509  0.74389  0.08496  1.0000
  O   O14       1.0  0.13491  0.25611  0.91504  1.0000
  O   O15       1.0  0.32155  0.00016  0.15421  1.0000
  O   O16       1.0  0.67845  0.99984  0.84579  1.0000
