data_image0
_chemical_formula_structural       La2H14C4S2O16
_chemical_formula_sum              "La2 H14 C4 S2 O16"
_cell_length_a       6.86535
_cell_length_b       7.04661
_cell_length_c       8.74295
_cell_angle_alpha    111.328
_cell_angle_beta     89.1767
_cell_angle_gamma    107.804

_space_group_name_H-M_alt    "P 1"
_space_group_IT_number       1

loop_
  _space_group_symop_operation_xyz
  'x, y, z'

loop_
  _atom_site_type_symbol
  _atom_site_label
  _atom_site_symmetry_multiplicity
  _atom_site_fract_x
  _atom_site_fract_y
  _atom_site_fract_z
  _atom_site_occupancy
  La  La1       1.0  0.87643  0.64511  0.86375  1.0000
  La  La2       1.0  0.12357  0.35489  0.13625  1.0000
  H   H1        1.0  0.07605  0.98249  0.70393  1.0000
  H   H2        1.0  0.92395  0.01751  0.29607  1.0000
  H   H3        1.0  0.59189  0.30945  0.54550  1.0000
  H   H4        1.0  0.40811  0.69055  0.45450  1.0000
  H   H5        1.0  0.51005  0.16969  0.25247  1.0000
  H   H6        1.0  0.48995  0.83031  0.74753  1.0000
  H   H7        1.0  0.89126  0.80110  0.56875  1.0000
  H   H8        1.0  0.10874  0.19890  0.43125  1.0000
  H   H9        1.0  0.57210  0.92508  0.17772  1.0000
  H   H10       1.0  0.42790  0.07491  0.82228  1.0000
  H   H11       1.0  0.81690  0.30161  0.48951  1.0000
  H   H12       1.0  0.18310  0.69838  0.51048  1.0000
  H   H13       1.0  0.42121  0.97005  0.34404  1.0000
  H   H14       1.0  0.57879  0.02994  0.65596  1.0000
  C   C1        1.0  0.26463  0.88452  0.11100  1.0000
  C   C2        1.0  0.73537  0.11548  0.88900  1.0000
  C   C3        1.0  0.45412  0.99827  0.22956  1.0000
  C   C4        1.0  0.54588  0.00172  0.77044  1.0000
  S   S1        1.0  0.29477  0.39270  0.73700  1.0000
  S   S2        1.0  0.70523  0.60731  0.26300  1.0000
  O   O1        1.0  0.15812  0.51625  0.72825  1.0000
  O   O2        1.0  0.84188  0.48376  0.27175  1.0000
  O   O3        1.0  0.50063  0.54318  0.82159  1.0000
  O   O4        1.0  0.49937  0.45682  0.17841  1.0000
  O   O5        1.0  0.20547  0.25303  0.83275  1.0000
  O   O6        1.0  0.79452  0.74698  0.16725  1.0000
  O   O7        1.0  0.31473  0.25283  0.56676  1.0000
  O   O8        1.0  0.68527  0.74717  0.43324  1.0000
  O   O9        1.0  0.18730  0.98282  0.04287  1.0000
  O   O10       1.0  0.81270  0.01719  0.95713  1.0000
  O   O11       1.0  0.17562  0.68310  0.07460  1.0000
  O   O12       1.0  0.82438  0.31689  0.92540  1.0000
  O   O13       1.0  0.74074  0.36128  0.58170  1.0000
  O   O14       1.0  0.25926  0.63872  0.41830  1.0000
  O   O15       1.0  0.00530  0.82464  0.65064  1.0000
  O   O16       1.0  0.99471  0.17536  0.34936  1.0000
