data_image0
_chemical_formula_structural       Sn4H60C44Cl4O8
_chemical_formula_sum              "Sn4 H60 C44 Cl4 O8"
_cell_length_a       9.68951
_cell_length_b       11.2223
_cell_length_c       13.2073
_cell_angle_alpha    113.699
_cell_angle_beta     90
_cell_angle_gamma    90

_space_group_name_H-M_alt    "P 1"
_space_group_IT_number       1

loop_
  _space_group_symop_operation_xyz
  'x, y, z'

loop_
  _atom_site_type_symbol
  _atom_site_label
  _atom_site_symmetry_multiplicity
  _atom_site_fract_x
  _atom_site_fract_y
  _atom_site_fract_z
  _atom_site_occupancy
  Sn  Sn1       1.0  0.38424  0.05154  0.72128  1.0000
  Sn  Sn2       1.0  0.88424  0.94846  0.77872  1.0000
  Sn  Sn3       1.0  0.61576  0.94846  0.27872  1.0000
  Sn  Sn4       1.0  0.11576  0.05155  0.22129  1.0000
  H   H1        1.0  0.79551  0.33011  0.85002  1.0000
  H   H2        1.0  0.29551  0.66989  0.64998  1.0000
  H   H3        1.0  0.20449  0.66989  0.14998  1.0000
  H   H4        1.0  0.70449  0.33011  0.35002  1.0000
  H   H5        1.0  0.88351  0.21031  0.73972  1.0000
  H   H6        1.0  0.38351  0.78969  0.76028  1.0000
  H   H7        1.0  0.11650  0.78969  0.26028  1.0000
  H   H8        1.0  0.61649  0.21031  0.23972  1.0000
  H   H9        1.0  0.96120  0.27918  0.60548  1.0000
  H   H10       1.0  0.46120  0.72082  0.89452  1.0000
  H   H11       1.0  0.03880  0.72082  0.39452  1.0000
  H   H12       1.0  0.53880  0.27918  0.10548  1.0000
  H   H13       1.0  0.93778  0.40982  0.49330  1.0000
  H   H14       1.0  0.43778  0.59018  0.00671  1.0000
  H   H15       1.0  0.06222  0.59018  0.50670  1.0000
  H   H16       1.0  0.56222  0.40982  0.99329  1.0000
  H   H17       1.0  0.55034  0.56161  0.65428  1.0000
  H   H18       1.0  0.05035  0.43839  0.84572  1.0000
  H   H19       1.0  0.44966  0.43838  0.34573  1.0000
  H   H20       1.0  0.94965  0.56161  0.15428  1.0000
  H   H21       1.0  0.57429  0.43107  0.76580  1.0000
  H   H22       1.0  0.07429  0.56892  0.73420  1.0000
  H   H23       1.0  0.42571  0.56893  0.23420  1.0000
  H   H24       1.0  0.92570  0.43108  0.26580  1.0000
  H   H25       1.0  0.17161  0.21952  0.75248  1.0000
  H   H26       1.0  0.67161  0.78048  0.74752  1.0000
  H   H27       1.0  0.82839  0.78048  0.24752  1.0000
  H   H28       1.0  0.32839  0.21952  0.25248  1.0000
  H   H29       1.0  0.17530  0.10729  0.61075  1.0000
  H   H30       1.0  0.67531  0.89271  0.88925  1.0000
  H   H31       1.0  0.82469  0.89271  0.38925  1.0000
  H   H32       1.0  0.32469  0.10729  0.11075  1.0000
  H   H33       1.0  0.29343  0.24202  0.66012  1.0000
  H   H34       1.0  0.79343  0.75798  0.83989  1.0000
  H   H35       1.0  0.70657  0.75798  0.33989  1.0000
  H   H36       1.0  0.20657  0.24202  0.16011  1.0000
  H   H37       1.0  0.48144  0.15917  0.93095  1.0000
  H   H38       1.0  0.98144  0.84083  0.56905  1.0000
  H   H39       1.0  0.51857  0.84084  0.06905  1.0000
  H   H40       1.0  0.01856  0.15917  0.43095  1.0000
  H   H41       1.0  0.44300  0.99256  0.89785  1.0000
  H   H42       1.0  0.94300  0.00744  0.60215  1.0000
  H   H43       1.0  0.55700  0.00744  0.10215  1.0000
  H   H44       1.0  0.05700  0.99256  0.39785  1.0000
  H   H45       1.0  0.30566  0.10929  0.93240  1.0000
  H   H46       1.0  0.80566  0.89071  0.56760  1.0000
  H   H47       1.0  0.69435  0.89071  0.06760  1.0000
  H   H48       1.0  0.19434  0.10929  0.43240  1.0000
  H   H49       1.0  0.39642  0.83653  0.52754  1.0000
  H   H50       1.0  0.89641  0.16348  0.97246  1.0000
  H   H51       1.0  0.60358  0.16348  0.47246  1.0000
  H   H52       1.0  0.10358  0.83653  0.02754  1.0000
  H   H53       1.0  0.53181  0.82820  0.61656  1.0000
  H   H54       1.0  0.03181  0.17180  0.88344  1.0000
  H   H55       1.0  0.46819  0.17180  0.38344  1.0000
  H   H56       1.0  0.96819  0.82820  0.11656  1.0000
  H   H57       1.0  0.55004  0.93105  0.54398  1.0000
  H   H58       1.0  0.05004  0.06895  0.95602  1.0000
  H   H59       1.0  0.44996  0.06895  0.45602  1.0000
  H   H60       1.0  0.94996  0.93105  0.04398  1.0000
  C   C1        1.0  0.66999  0.17202  0.75500  1.0000
  C   C2        1.0  0.17000  0.82798  0.74500  1.0000
  C   C3        1.0  0.33001  0.82798  0.24500  1.0000
  C   C4        1.0  0.83001  0.17202  0.25500  1.0000
  C   C5        1.0  0.78685  0.26583  0.76139  1.0000
  C   C6        1.0  0.28686  0.73417  0.73861  1.0000
  C   C7        1.0  0.21315  0.73417  0.23861  1.0000
  C   C8        1.0  0.71315  0.26583  0.26139  1.0000
  C   C9        1.0  0.76965  0.34551  0.69388  1.0000
  C   C10       1.0  0.26966  0.65449  0.80611  1.0000
  C   C11       1.0  0.23035  0.65449  0.30612  1.0000
  C   C12       1.0  0.73034  0.34551  0.19389  1.0000
  C   C13       1.0  0.87054  0.34092  0.61654  1.0000
  C   C14       1.0  0.37054  0.65908  0.88346  1.0000
  C   C15       1.0  0.12946  0.65908  0.38346  1.0000
  C   C16       1.0  0.62946  0.34092  0.11654  1.0000
  C   C17       1.0  0.85858  0.41484  0.55344  1.0000
  C   C18       1.0  0.35858  0.58516  0.94656  1.0000
  C   C19       1.0  0.14142  0.58516  0.44656  1.0000
  C   C20       1.0  0.64142  0.41484  0.05344  1.0000
  C   C21       1.0  0.74353  0.49486  0.56854  1.0000
  C   C22       1.0  0.24354  0.50514  0.93146  1.0000
  C   C23       1.0  0.25646  0.50514  0.43146  1.0000
  C   C24       1.0  0.75646  0.49486  0.06854  1.0000
  C   C25       1.0  0.64066  0.50025  0.64433  1.0000
  C   C26       1.0  0.14067  0.49975  0.85567  1.0000
  C   C27       1.0  0.35934  0.49975  0.35567  1.0000
  C   C28       1.0  0.85933  0.50025  0.14433  1.0000
  C   C29       1.0  0.65469  0.42641  0.70681  1.0000
  C   C30       1.0  0.15469  0.57359  0.79318  1.0000
  C   C31       1.0  0.34531  0.57359  0.29319  1.0000
  C   C32       1.0  0.84531  0.42641  0.20682  1.0000
  C   C33       1.0  0.23835  0.16959  0.68088  1.0000
  C   C34       1.0  0.73835  0.83041  0.81912  1.0000
  C   C35       1.0  0.76165  0.83041  0.31912  1.0000
  C   C36       1.0  0.26165  0.16959  0.18088  1.0000
  C   C37       1.0  0.40607  0.08173  0.89170  1.0000
  C   C38       1.0  0.90607  0.91828  0.60830  1.0000
  C   C39       1.0  0.59393  0.91828  0.10830  1.0000
  C   C40       1.0  0.09393  0.08173  0.39170  1.0000
  C   C41       1.0  0.47650  0.89224  0.58604  1.0000
  C   C42       1.0  0.97650  0.10776  0.91396  1.0000
  C   C43       1.0  0.52350  0.10775  0.41396  1.0000
  C   C44       1.0  0.02350  0.89225  0.08604  1.0000
  Cl  Cl1       1.0  0.72771  0.59032  0.49287  1.0000
  Cl  Cl2       1.0  0.22771  0.40969  0.00713  1.0000
  Cl  Cl3       1.0  0.27229  0.40968  0.50713  1.0000
  Cl  Cl4       1.0  0.77229  0.59032  0.99287  1.0000
  O   O1        1.0  0.54972  0.19669  0.72877  1.0000
  O   O2        1.0  0.04972  0.80331  0.77123  1.0000
  O   O3        1.0  0.45028  0.80331  0.27123  1.0000
  O   O4        1.0  0.95028  0.19669  0.22877  1.0000
  O   O5        1.0  0.69338  0.07564  0.77950  1.0000
  O   O6        1.0  0.19338  0.92436  0.72051  1.0000
  O   O7        1.0  0.30662  0.92436  0.22050  1.0000
  O   O8        1.0  0.80663  0.07564  0.27950  1.0000
