data_image0
_chemical_formula_structural       Cu4H68C32S4I4N12
_chemical_formula_sum              "Cu4 H68 C32 S4 I4 N12"
_cell_length_a       7.11583
_cell_length_b       12.6086
_cell_length_c       14.0659
_cell_angle_alpha    98.8406
_cell_angle_beta     90
_cell_angle_gamma    90

_space_group_name_H-M_alt    "P 1"
_space_group_IT_number       1

loop_
  _space_group_symop_operation_xyz
  'x, y, z'

loop_
  _atom_site_type_symbol
  _atom_site_label
  _atom_site_symmetry_multiplicity
  _atom_site_fract_x
  _atom_site_fract_y
  _atom_site_fract_z
  _atom_site_occupancy
  Cu  Cu1       1.0  0.43295  0.83457  0.21719  1.0000
  Cu  Cu2       1.0  0.93295  0.66543  0.28281  1.0000
  Cu  Cu3       1.0  0.56705  0.16543  0.78281  1.0000
  Cu  Cu4       1.0  0.06705  0.33457  0.71719  1.0000
  H   H1        1.0  0.76990  0.96645  0.22768  1.0000
  H   H2        1.0  0.26992  0.53356  0.27232  1.0000
  H   H3        1.0  0.23009  0.03355  0.77232  1.0000
  H   H4        1.0  0.73009  0.46644  0.72768  1.0000
  H   H5        1.0  0.98596  0.89231  0.22508  1.0000
  H   H6        1.0  0.48597  0.60770  0.27492  1.0000
  H   H7        1.0  0.01403  0.10769  0.77492  1.0000
  H   H8        1.0  0.51403  0.39231  0.72508  1.0000
  H   H9        1.0  0.91497  0.91477  0.41336  1.0000
  H   H10       1.0  0.41498  0.58523  0.08664  1.0000
  H   H11       1.0  0.08503  0.08523  0.58663  1.0000
  H   H12       1.0  0.58503  0.41477  0.91336  1.0000
  H   H13       1.0  0.73654  0.84034  0.46464  1.0000
  H   H14       1.0  0.23654  0.65966  0.03537  1.0000
  H   H15       1.0  0.26347  0.15966  0.53536  1.0000
  H   H16       1.0  0.76346  0.34034  0.96464  1.0000
  H   H17       1.0  0.67061  0.95693  0.41412  1.0000
  H   H18       1.0  0.17062  0.54307  0.08588  1.0000
  H   H19       1.0  0.32939  0.04307  0.58588  1.0000
  H   H20       1.0  0.82939  0.45693  0.91412  1.0000
  H   H21       1.0  0.86363  0.87262  0.05901  1.0000
  H   H22       1.0  0.36363  0.62738  0.44099  1.0000
  H   H23       1.0  0.13637  0.12738  0.94099  1.0000
  H   H24       1.0  0.63636  0.37262  0.55901  1.0000
  H   H25       1.0  0.84151  0.74858  0.10328  1.0000
  H   H26       1.0  0.34152  0.75142  0.39672  1.0000
  H   H27       1.0  0.15848  0.25142  0.89672  1.0000
  H   H28       1.0  0.65847  0.24858  0.60328  1.0000
  H   H29       1.0  0.90485  0.71956  0.94295  1.0000
  H   H30       1.0  0.40485  0.78044  0.55705  1.0000
  H   H31       1.0  0.09515  0.28044  0.05705  1.0000
  H   H32       1.0  0.59514  0.21956  0.44295  1.0000
  H   H33       1.0  0.76995  0.64547  0.85072  1.0000
  H   H34       1.0  0.26996  0.85453  0.64928  1.0000
  H   H35       1.0  0.23005  0.35453  0.14928  1.0000
  H   H36       1.0  0.73004  0.14547  0.35072  1.0000
  H   H37       1.0  0.72011  0.63458  0.97263  1.0000
  H   H38       1.0  0.22012  0.86542  0.52737  1.0000
  H   H39       1.0  0.27989  0.36543  0.02737  1.0000
  H   H40       1.0  0.77988  0.13458  0.47263  1.0000
  H   H41       1.0  0.45605  0.69001  0.81580  1.0000
  H   H42       1.0  0.95605  0.80999  0.68420  1.0000
  H   H43       1.0  0.54396  0.30999  0.18420  1.0000
  H   H44       1.0  0.04394  0.19001  0.31580  1.0000
  H   H45       1.0  0.58345  0.80096  0.77883  1.0000
  H   H46       1.0  0.08346  0.69903  0.72116  1.0000
  H   H47       1.0  0.41656  0.19904  0.22117  1.0000
  H   H48       1.0  0.91655  0.30096  0.27884  1.0000
  H   H49       1.0  0.37507  0.93042  0.85903  1.0000
  H   H50       1.0  0.87508  0.56958  0.64096  1.0000
  H   H51       1.0  0.62493  0.06958  0.14097  1.0000
  H   H52       1.0  0.12494  0.43041  0.35904  1.0000
  H   H53       1.0  0.20975  0.82154  0.84273  1.0000
  H   H54       1.0  0.70976  0.67845  0.65727  1.0000
  H   H55       1.0  0.79026  0.17846  0.15727  1.0000
  H   H56       1.0  0.29025  0.32153  0.34273  1.0000
  H   H57       1.0  0.24131  0.91986  0.11199  1.0000
  H   H58       1.0  0.74132  0.58014  0.38800  1.0000
  H   H59       1.0  0.75869  0.08015  0.88800  1.0000
  H   H60       1.0  0.25868  0.41985  0.61200  1.0000
  H   H61       1.0  0.09625  0.92784  0.00964  1.0000
  H   H62       1.0  0.59626  0.57217  0.49036  1.0000
  H   H63       1.0  0.90375  0.07217  0.99036  1.0000
  H   H64       1.0  0.40374  0.42782  0.50965  1.0000
  H   H65       1.0  0.29840  0.01179  0.03221  1.0000
  H   H66       1.0  0.79841  0.48821  0.46779  1.0000
  H   H67       1.0  0.70161  0.98821  0.96778  1.0000
  H   H68       1.0  0.20160  0.51178  0.53222  1.0000
  C   C1        1.0  0.83384  0.88630  0.21208  1.0000
  C   C2        1.0  0.33386  0.61370  0.28792  1.0000
  C   C3        1.0  0.16615  0.11369  0.78792  1.0000
  C   C4        1.0  0.66614  0.38630  0.71208  1.0000
  C   C5        1.0  0.76770  0.88869  0.40819  1.0000
  C   C6        1.0  0.26770  0.61132  0.09181  1.0000
  C   C7        1.0  0.23230  0.11131  0.59181  1.0000
  C   C8        1.0  0.73230  0.38869  0.90819  1.0000
  C   C9        1.0  0.52630  0.81986  0.00495  1.0000
  C   C10       1.0  0.02630  0.68014  0.49505  1.0000
  C   C11       1.0  0.47370  0.18014  0.99505  1.0000
  C   C12       1.0  0.97369  0.31985  0.50496  1.0000
  C   C13       1.0  0.78764  0.83167  0.11109  1.0000
  C   C14       1.0  0.28764  0.66834  0.38891  1.0000
  C   C15       1.0  0.21236  0.16833  0.88890  1.0000
  C   C16       1.0  0.71235  0.33167  0.61109  1.0000
  C   C17       1.0  0.76254  0.69046  0.92370  1.0000
  C   C18       1.0  0.26256  0.80954  0.57630  1.0000
  C   C19       1.0  0.23746  0.30954  0.07630  1.0000
  C   C20       1.0  0.73744  0.19046  0.42370  1.0000
  C   C21       1.0  0.50673  0.77289  0.83813  1.0000
  C   C22       1.0  0.00674  0.72711  0.66187  1.0000
  C   C23       1.0  0.49327  0.22711  0.16187  1.0000
  C   C24       1.0  0.99326  0.27289  0.33813  1.0000
  C   C25       1.0  0.34618  0.84839  0.87403  1.0000
  C   C26       1.0  0.84619  0.65161  0.62596  1.0000
  C   C27       1.0  0.65383  0.15161  0.12596  1.0000
  C   C28       1.0  0.15383  0.34838  0.37404  1.0000
  C   C29       1.0  0.24143  0.93123  0.03611  1.0000
  C   C30       1.0  0.74143  0.56877  0.46388  1.0000
  C   C31       1.0  0.75857  0.06878  0.96388  1.0000
  C   C32       1.0  0.25857  0.43122  0.53612  1.0000
  S   S1        1.0  0.73070  0.80417  0.29407  1.0000
  S   S2        1.0  0.23071  0.69584  0.20593  1.0000
  S   S3        1.0  0.26930  0.19583  0.70593  1.0000
  S   S4        1.0  0.76929  0.30417  0.79407  1.0000
  I   I1        1.0  0.30951  0.00568  0.32475  1.0000
  I   I2        1.0  0.80952  0.49432  0.17525  1.0000
  I   I3        1.0  0.69048  0.99433  0.67525  1.0000
  I   I4        1.0  0.19049  0.50568  0.82475  1.0000
  N   N1        1.0  0.58515  0.83660  0.09433  1.0000
  N   N2        1.0  0.08516  0.66341  0.40567  1.0000
  N   N3        1.0  0.41484  0.16341  0.90567  1.0000
  N   N4        1.0  0.91484  0.33659  0.59433  1.0000
  N   N5        1.0  0.62677  0.77763  0.92385  1.0000
  N   N6        1.0  0.12678  0.72237  0.57615  1.0000
  N   N7        1.0  0.37323  0.22237  0.07615  1.0000
  N   N8        1.0  0.87322  0.27763  0.42385  1.0000
  N   N9        1.0  0.34770  0.84719  0.97800  1.0000
  N   N10       1.0  0.84771  0.65281  0.52200  1.0000
  N   N11       1.0  0.65229  0.15281  0.02200  1.0000
  N   N12       1.0  0.15229  0.34718  0.47800  1.0000
