data_image0
_chemical_formula_structural       Cd2H24C32S4N12
_chemical_formula_sum              "Cd2 H24 C32 S4 N12"
_cell_length_a       5.63394
_cell_length_b       7.28651
_cell_length_c       21.0846
_cell_angle_alpha    89.9999
_cell_angle_beta     95.6712
_cell_angle_gamma    90.0011

_space_group_name_H-M_alt    "P 1"
_space_group_IT_number       1

loop_
  _space_group_symop_operation_xyz
  'x, y, z'

loop_
  _atom_site_type_symbol
  _atom_site_label
  _atom_site_symmetry_multiplicity
  _atom_site_fract_x
  _atom_site_fract_y
  _atom_site_fract_z
  _atom_site_occupancy
  Cd  Cd1       1.0  0.99999  0.50002  0.00000  1.0000
  Cd  Cd2       1.0  0.99999  0.99998  0.50000  1.0000
  H   H1        1.0  0.85589  0.57776  0.13474  1.0000
  H   H2        1.0  0.14410  0.07775  0.36527  1.0000
  H   H3        1.0  0.14409  0.42226  0.86526  1.0000
  H   H4        1.0  0.85588  0.92224  0.63474  1.0000
  H   H5        1.0  0.47464  0.30940  0.10882  1.0000
  H   H6        1.0  0.52532  0.80939  0.39118  1.0000
  H   H7        1.0  0.52534  0.69060  0.89117  1.0000
  H   H8        1.0  0.47465  0.19057  0.60882  1.0000
  H   H9        1.0  0.65319  0.26583  0.25210  1.0000
  H   H10       1.0  0.34681  0.76583  0.24790  1.0000
  H   H11       1.0  0.34681  0.73417  0.74790  1.0000
  H   H12       1.0  0.65320  0.23417  0.75210  1.0000
  H   H13       1.0  0.52944  0.33759  0.35941  1.0000
  H   H14       1.0  0.47058  0.83761  0.14059  1.0000
  H   H15       1.0  0.47060  0.66239  0.64059  1.0000
  H   H16       1.0  0.52943  0.16240  0.85941  1.0000
  H   H17       1.0  0.14344  0.48857  0.37133  1.0000
  H   H18       1.0  0.85659  0.98858  0.12868  1.0000
  H   H19       1.0  0.85658  0.51141  0.62868  1.0000
  H   H20       1.0  0.14342  0.01143  0.87132  1.0000
  H   H21       1.0  0.86937  0.57922  0.27624  1.0000
  H   H22       1.0  0.13065  0.07922  0.22376  1.0000
  H   H23       1.0  0.13064  0.42077  0.72376  1.0000
  H   H24       1.0  0.86935  0.92079  0.77624  1.0000
  C   C1        1.0  0.34004  0.36963  0.13589  1.0000
  C   C2        1.0  0.65997  0.86963  0.36411  1.0000
  C   C3        1.0  0.65996  0.63038  0.86410  1.0000
  C   C4        1.0  0.34007  0.13037  0.63589  1.0000
  C   C5        1.0  0.33254  0.38435  0.20293  1.0000
  C   C6        1.0  0.66745  0.88435  0.29707  1.0000
  C   C7        1.0  0.66745  0.61566  0.79707  1.0000
  C   C8        1.0  0.33254  0.11564  0.70293  1.0000
  C   C9        1.0  0.48446  0.33407  0.25716  1.0000
  C   C10       1.0  0.51555  0.83407  0.24284  1.0000
  C   C11       1.0  0.51555  0.66593  0.74284  1.0000
  C   C12       1.0  0.48446  0.16593  0.75716  1.0000
  C   C13       1.0  0.41361  0.37353  0.31675  1.0000
  C   C14       1.0  0.58640  0.87354  0.18325  1.0000
  C   C15       1.0  0.58640  0.62646  0.68325  1.0000
  C   C16       1.0  0.41361  0.12646  0.81675  1.0000
  C   C17       1.0  0.19260  0.46083  0.32347  1.0000
  C   C18       1.0  0.80743  0.96084  0.17653  1.0000
  C   C19       1.0  0.80743  0.53916  0.67653  1.0000
  C   C20       1.0  0.19259  0.03917  0.82347  1.0000
  C   C21       1.0  0.03866  0.51216  0.27098  1.0000
  C   C22       1.0  0.96136  0.01217  0.22902  1.0000
  C   C23       1.0  0.96135  0.48784  0.72902  1.0000
  C   C24       1.0  0.03864  0.98785  0.77098  1.0000
  C   C25       1.0  0.11205  0.47423  0.21060  1.0000
  C   C26       1.0  0.88794  0.97423  0.28941  1.0000
  C   C27       1.0  0.88795  0.52578  0.78940  1.0000
  C   C28       1.0  0.11206  0.02577  0.71059  1.0000
  C   C29       1.0  0.50950  0.72635  0.02466  1.0000
  C   C30       1.0  0.49050  0.22633  0.47535  1.0000
  C   C31       1.0  0.49049  0.27368  0.97535  1.0000
  C   C32       1.0  0.50949  0.77365  0.52465  1.0000
  S   S1        1.0  0.25664  0.82492  0.00192  1.0000
  S   S2        1.0  0.74337  0.32490  0.49809  1.0000
  S   S3        1.0  0.74335  0.17512  0.99808  1.0000
  S   S4        1.0  0.25663  0.67508  0.50192  1.0000
  N   N1        1.0  0.14487  0.44497  0.10590  1.0000
  N   N2        1.0  0.85510  0.94496  0.39410  1.0000
  N   N3        1.0  0.85510  0.55504  0.89410  1.0000
  N   N4        1.0  0.14487  0.05501  0.60589  1.0000
  N   N5        1.0  0.00733  0.50723  0.15057  1.0000
  N   N6        1.0  0.99264  0.00722  0.34944  1.0000
  N   N7        1.0  0.99266  0.49278  0.84944  1.0000
  N   N8        1.0  0.00734  0.99277  0.65057  1.0000
  N   N9        1.0  0.69305  0.65504  0.04322  1.0000
  N   N10       1.0  0.30695  0.15502  0.45679  1.0000
  N   N11       1.0  0.30694  0.34500  0.95678  1.0000
  N   N12       1.0  0.69303  0.84496  0.54322  1.0000
