data_image0
_chemical_formula_structural       Zn2H32C50N8Cl2O8
_chemical_formula_sum              "Zn2 H32 C50 N8 Cl2 O8"
_cell_length_a       8.63941
_cell_length_b       12.1171
_cell_length_c       12.5842
_cell_angle_alpha    61.3288
_cell_angle_beta     74.1855
_cell_angle_gamma    75.3801

_space_group_name_H-M_alt    "P 1"
_space_group_IT_number       1

loop_
  _space_group_symop_operation_xyz
  'x, y, z'

loop_
  _atom_site_type_symbol
  _atom_site_label
  _atom_site_symmetry_multiplicity
  _atom_site_fract_x
  _atom_site_fract_y
  _atom_site_fract_z
  _atom_site_occupancy
  Zn  Zn1       1.0  0.60157  0.60506  0.71467  1.0000
  Zn  Zn2       1.0  0.39843  0.39493  0.28533  1.0000
  H   H1        1.0  0.19091  0.31060  0.10812  1.0000
  H   H2        1.0  0.80909  0.68940  0.89188  1.0000
  H   H3        1.0  0.76268  0.82544  0.52617  1.0000
  H   H4        1.0  0.23732  0.17456  0.47383  1.0000
  H   H5        1.0  0.73110  0.05895  0.46874  1.0000
  H   H6        1.0  0.26890  0.94105  0.53125  1.0000
  H   H7        1.0  0.54239  0.13967  0.61373  1.0000
  H   H8        1.0  0.45761  0.86033  0.38627  1.0000
  H   H9        1.0  0.45314  0.75379  0.85994  1.0000
  H   H10       1.0  0.54686  0.24621  0.14006  1.0000
  H   H11       1.0  0.27343  0.16955  0.70008  1.0000
  H   H12       1.0  0.72657  0.83045  0.29992  1.0000
  H   H13       1.0  0.44637  0.83336  0.00464  1.0000
  H   H14       1.0  0.55363  0.16664  0.99536  1.0000
  H   H15       1.0  0.14842  0.35189  0.64970  1.0000
  H   H16       1.0  0.85158  0.64811  0.35030  1.0000
  H   H17       1.0  0.92215  0.52985  0.59546  1.0000
  H   H18       1.0  0.07785  0.47015  0.40454  1.0000
  H   H19       1.0  0.68326  0.40386  0.95777  1.0000
  H   H20       1.0  0.31674  0.59614  0.04223  1.0000
  H   H21       1.0  0.90084  0.21704  0.02871  1.0000
  H   H22       1.0  0.09916  0.78296  0.97129  1.0000
  H   H23       1.0  0.04442  0.03845  0.21857  1.0000
  H   H24       1.0  0.95558  0.96155  0.78143  1.0000
  H   H25       1.0  0.01162  0.91336  0.44649  1.0000
  H   H26       1.0  0.98838  0.08664  0.55351  1.0000
  H   H27       1.0  0.35687  0.61664  0.41924  1.0000
  H   H28       1.0  0.64313  0.38336  0.58076  1.0000
  H   H29       1.0  0.41174  0.72904  0.19178  1.0000
  H   H30       1.0  0.58826  0.27096  0.80822  1.0000
  H   H31       1.0  0.83334  0.31179  0.42060  1.0000
  H   H32       1.0  0.16666  0.68821  0.57940  1.0000
  C   C1        1.0  0.33986  0.46877  0.88996  1.0000
  C   C2        1.0  0.66014  0.53123  0.11004  1.0000
  C   C3        1.0  0.16175  0.48328  0.94241  1.0000
  C   C4        1.0  0.83824  0.51672  0.05759  1.0000
  C   C5        1.0  0.10620  0.39317  0.06070  1.0000
  C   C6        1.0  0.89380  0.60684  0.93930  1.0000
  C   C7        1.0  0.94604  0.40925  0.11977  1.0000
  C   C8        1.0  0.05396  0.59075  0.88023  1.0000
  C   C9        1.0  0.90092  0.31655  0.25238  1.0000
  C   C10       1.0  0.09907  0.68345  0.74761  1.0000
  C   C11       1.0  0.68727  0.86542  0.58783  1.0000
  C   C12       1.0  0.31273  0.13458  0.41217  1.0000
  C   C13       1.0  0.66735  0.99411  0.55639  1.0000
  C   C14       1.0  0.33265  0.00590  0.44360  1.0000
  C   C15       1.0  0.56345  0.03846  0.63828  1.0000
  C   C16       1.0  0.43655  0.96154  0.36172  1.0000
  C   C17       1.0  0.48654  0.95279  0.75180  1.0000
  C   C18       1.0  0.51346  0.04721  0.24820  1.0000
  C   C19       1.0  0.51381  0.82471  0.77577  1.0000
  C   C20       1.0  0.48620  0.17529  0.22423  1.0000
  C   C21       1.0  0.37449  0.99595  0.84112  1.0000
  C   C22       1.0  0.62551  0.00405  0.15888  1.0000
  C   C23       1.0  0.27057  0.11148  0.79856  1.0000
  C   C24       1.0  0.72943  0.88852  0.20144  1.0000
  C   C25       1.0  0.16000  0.14868  0.88406  1.0000
  C   C26       1.0  0.84001  0.85132  0.11594  1.0000
  C   C27       1.0  0.25105  0.96743  0.04804  1.0000
  C   C28       1.0  0.74895  0.03257  0.95196  1.0000
  C   C29       1.0  0.36549  0.92292  0.96852  1.0000
  C   C30       1.0  0.63451  0.07708  0.03148  1.0000
  C   C31       1.0  0.03942  0.26525  0.84486  1.0000
  C   C32       1.0  0.96058  0.73475  0.15514  1.0000
  C   C33       1.0  0.04709  0.35687  0.72191  1.0000
  C   C34       1.0  0.95291  0.64313  0.27809  1.0000
  C   C35       1.0  0.92266  0.45816  0.69042  1.0000
  C   C36       1.0  0.07734  0.54183  0.30958  1.0000
  C   C37       1.0  0.78867  0.38799  0.89321  1.0000
  C   C38       1.0  0.21133  0.61201  0.10679  1.0000
  C   C39       1.0  0.90842  0.28443  0.93192  1.0000
  C   C40       1.0  0.09158  0.71557  0.06808  1.0000
  C   C41       1.0  0.22984  0.89428  0.18424  1.0000
  C   C42       1.0  0.77016  0.10572  0.81576  1.0000
  C   C43       1.0  0.11471  0.94463  0.25887  1.0000
  C   C44       1.0  0.88529  0.05537  0.74113  1.0000
  C   C45       1.0  0.09520  0.87488  0.38590  1.0000
  C   C46       1.0  0.90480  0.12512  0.61410  1.0000
  C   C47       1.0  0.29010  0.71034  0.37090  1.0000
  C   C48       1.0  0.70990  0.28966  0.62910  1.0000
  C   C49       1.0  0.31983  0.77456  0.24293  1.0000
  C   C50       1.0  0.68017  0.22544  0.75707  1.0000
  N   N1        1.0  0.60982  0.78270  0.69484  1.0000
  N   N2        1.0  0.39018  0.21730  0.30516  1.0000
  N   N3        1.0  0.15075  0.07748  0.00582  1.0000
  N   N4        1.0  0.84925  0.92252  0.99418  1.0000
  N   N5        1.0  0.79376  0.47284  0.77378  1.0000
  N   N6        1.0  0.20624  0.52716  0.22622  1.0000
  N   N7        1.0  0.18012  0.75938  0.44160  1.0000
  N   N8        1.0  0.81988  0.24062  0.55840  1.0000
  Cl  Cl1       1.0  0.61190  0.63604  0.52246  1.0000
  Cl  Cl2       1.0  0.38810  0.36396  0.47754  1.0000
  O   O1        1.0  0.41955  0.36175  0.90958  1.0000
  O   O2        1.0  0.58045  0.63826  0.09042  1.0000
  O   O3        1.0  0.39763  0.57646  0.83097  1.0000
  O   O4        1.0  0.60237  0.42354  0.16903  1.0000
  O   O5        1.0  0.84630  0.37518  0.32375  1.0000
  O   O6        1.0  0.15370  0.62482  0.67625  1.0000
  O   O7        1.0  0.92460  0.20002  0.28854  1.0000
  O   O8        1.0  0.07540  0.79999  0.71146  1.0000
