data_image0
_chemical_formula_structural       Cd2H18C22S2N8Cl2
_chemical_formula_sum              "Cd2 H18 C22 S2 N8 Cl2"
_cell_length_a       8.97693
_cell_length_b       9.2204
_cell_length_c       9.08037
_cell_angle_alpha    102.129
_cell_angle_beta     107.138
_cell_angle_gamma    111.073

_space_group_name_H-M_alt    "P 1"
_space_group_IT_number       1

loop_
  _space_group_symop_operation_xyz
  'x, y, z'

loop_
  _atom_site_type_symbol
  _atom_site_label
  _atom_site_symmetry_multiplicity
  _atom_site_fract_x
  _atom_site_fract_y
  _atom_site_fract_z
  _atom_site_occupancy
  Cd  Cd1       1.0  0.59872  0.71700  0.98164  1.0000
  Cd  Cd2       1.0  0.40128  0.28299  0.01837  1.0000
  H   H1        1.0  0.14413  0.76403  0.11126  1.0000
  H   H2        1.0  0.85587  0.23597  0.88874  1.0000
  H   H3        1.0  0.51892  0.50289  0.63264  1.0000
  H   H4        1.0  0.48108  0.49711  0.36736  1.0000
  H   H5        1.0  0.62740  0.34349  0.46843  1.0000
  H   H6        1.0  0.37260  0.65652  0.53157  1.0000
  H   H7        1.0  0.93707  0.38534  0.60942  1.0000
  H   H8        1.0  0.06293  0.61466  0.39058  1.0000
  H   H9        1.0  0.12106  0.58895  0.89189  1.0000
  H   H10       1.0  0.87894  0.41105  0.10811  1.0000
  H   H11       1.0  0.27505  0.95135  0.36020  1.0000
  H   H12       1.0  0.72495  0.04865  0.63980  1.0000
  H   H13       1.0  0.28838  0.19368  0.55780  1.0000
  H   H14       1.0  0.71162  0.80632  0.44220  1.0000
  H   H15       1.0  0.04611  0.27399  0.47616  1.0000
  H   H16       1.0  0.95389  0.72602  0.52384  1.0000
  H   H17       1.0  0.78612  0.09115  0.20917  1.0000
  H   H18       1.0  0.21388  0.90885  0.79083  1.0000
  C   C1        1.0  0.65294  0.52060  0.68332  1.0000
  C   C2        1.0  0.34706  0.47940  0.31667  1.0000
  C   C3        1.0  0.71228  0.43083  0.59381  1.0000
  C   C4        1.0  0.28772  0.56917  0.40619  1.0000
  C   C5        1.0  0.88351  0.45455  0.67165  1.0000
  C   C6        1.0  0.11648  0.54544  0.32835  1.0000
  C   C7        1.0  0.98683  0.56754  0.83036  1.0000
  C   C8        1.0  0.01317  0.43246  0.16964  1.0000
  C   C9        1.0  0.91687  0.65607  0.91201  1.0000
  C   C10       1.0  0.08313  0.34392  0.08799  1.0000
  C   C11       1.0  0.02240  0.89444  0.17886  1.0000
  C   C12       1.0  0.97760  0.10556  0.82113  1.0000
  C   C13       1.0  0.16961  0.98709  0.33059  1.0000
  C   C14       1.0  0.83040  0.01291  0.66941  1.0000
  C   C15       1.0  0.17754  0.12226  0.43895  1.0000
  C   C16       1.0  0.82246  0.87775  0.56105  1.0000
  C   C17       1.0  0.04073  0.16559  0.39494  1.0000
  C   C18       1.0  0.95927  0.83441  0.60506  1.0000
  C   C19       1.0  0.89812  0.06535  0.24713  1.0000
  C   C20       1.0  0.10188  0.93465  0.75287  1.0000
  C   C21       1.0  0.52926  0.00016  0.82590  1.0000
  C   C22       1.0  0.47073  0.99982  0.17410  1.0000
  S   S1        1.0  0.54688  0.17719  0.80694  1.0000
  S   S2        1.0  0.45311  0.82280  0.19307  1.0000
  N   N1        1.0  0.75071  0.63002  0.83938  1.0000
  N   N2        1.0  0.24929  0.36998  0.16062  1.0000
  N   N3        1.0  0.88559  0.92973  0.14120  1.0000
  N   N4        1.0  0.11441  0.07027  0.85880  1.0000
  N   N5        1.0  0.02650  0.76724  0.07040  1.0000
  N   N6        1.0  0.97350  0.23276  0.92960  1.0000
  N   N7        1.0  0.51664  0.87020  0.83430  1.0000
  N   N8        1.0  0.48336  0.12980  0.16570  1.0000
  Cl  Cl1       1.0  0.31391  0.44402  0.81251  1.0000
  Cl  Cl2       1.0  0.68609  0.55597  0.18749  1.0000
