data_image0
_chemical_formula_structural       Cd4H32C48N8O16
_chemical_formula_sum              "Cd4 H32 C48 N8 O16"
_cell_length_a       9.84402
_cell_length_b       9.79059
_cell_length_c       15.598
_cell_angle_alpha    104.27
_cell_angle_beta     107.88
_cell_angle_gamma    97.3276

_space_group_name_H-M_alt    "P 1"
_space_group_IT_number       1

loop_
  _space_group_symop_operation_xyz
  'x, y, z'

loop_
  _atom_site_type_symbol
  _atom_site_label
  _atom_site_symmetry_multiplicity
  _atom_site_fract_x
  _atom_site_fract_y
  _atom_site_fract_z
  _atom_site_occupancy
  Cd  Cd1       1.0  0.18154  0.27979  0.02735  1.0000
  Cd  Cd2       1.0  0.24793  0.84727  0.52771  1.0000
  Cd  Cd3       1.0  0.81846  0.72021  0.97265  1.0000
  Cd  Cd4       1.0  0.75208  0.15274  0.47230  1.0000
  H   H1        1.0  0.25640  0.03306  0.87988  1.0000
  H   H2        1.0  0.34518  0.62367  0.38049  1.0000
  H   H3        1.0  0.74359  0.96693  0.12012  1.0000
  H   H4        1.0  0.65482  0.37633  0.61951  1.0000
  H   H5        1.0  0.47098  0.96453  0.83622  1.0000
  H   H6        1.0  0.36978  0.36389  0.33669  1.0000
  H   H7        1.0  0.52901  0.03547  0.16378  1.0000
  H   H8        1.0  0.63021  0.63611  0.66331  1.0000
  H   H9        1.0  0.72043  0.12483  0.93088  1.0000
  H   H10       1.0  0.30506  0.20818  0.43095  1.0000
  H   H11       1.0  0.27957  0.87517  0.06911  1.0000
  H   H12       1.0  0.69493  0.79182  0.56904  1.0000
  H   H13       1.0  0.74600  0.34443  0.06088  1.0000
  H   H14       1.0  0.21709  0.31327  0.56090  1.0000
  H   H15       1.0  0.25400  0.65557  0.93911  1.0000
  H   H16       1.0  0.78291  0.68673  0.43910  1.0000
  H   H17       1.0  0.74298  0.54431  0.13971  1.0000
  H   H18       1.0  0.09609  0.39545  0.63912  1.0000
  H   H19       1.0  0.25702  0.45568  0.86030  1.0000
  H   H20       1.0  0.90391  0.60456  0.36088  1.0000
  H   H21       1.0  0.73843  0.75993  0.26307  1.0000
  H   H22       1.0  0.00445  0.52376  0.76197  1.0000
  H   H23       1.0  0.26157  0.24005  0.73693  1.0000
  H   H24       1.0  0.99556  0.47624  0.23804  1.0000
  H   H25       1.0  0.50595  0.77910  0.29416  1.0000
  H   H26       1.0  0.01649  0.78915  0.79335  1.0000
  H   H27       1.0  0.49405  0.22089  0.70584  1.0000
  H   H28       1.0  0.98352  0.21085  0.20665  1.0000
  H   H29       1.0  0.28701  0.57104  0.20416  1.0000
  H   H30       1.0  0.13372  0.91899  0.70407  1.0000
  H   H31       1.0  0.71299  0.42895  0.79584  1.0000
  H   H32       1.0  0.86629  0.08101  0.29594  1.0000
  C   C1        1.0  0.36746  0.09853  0.91705  1.0000
  C   C2        1.0  0.31737  0.54936  0.41751  1.0000
  C   C3        1.0  0.63253  0.90146  0.08294  1.0000
  C   C4        1.0  0.68263  0.45065  0.58249  1.0000
  C   C5        1.0  0.48647  0.06105  0.89400  1.0000
  C   C6        1.0  0.33164  0.40647  0.39440  1.0000
  C   C7        1.0  0.51353  0.93895  0.10600  1.0000
  C   C8        1.0  0.66835  0.59353  0.60560  1.0000
  C   C9        1.0  0.62449  0.15086  0.94659  1.0000
  C   C10       1.0  0.29497  0.32054  0.44677  1.0000
  C   C11       1.0  0.37550  0.84913  0.05340  1.0000
  C   C12       1.0  0.70503  0.67946  0.55323  1.0000
  C   C13       1.0  0.63872  0.27423  0.01917  1.0000
  C   C14       1.0  0.24489  0.37924  0.51928  1.0000
  C   C15       1.0  0.36128  0.72577  0.98083  1.0000
  C   C16       1.0  0.75511  0.62076  0.48072  1.0000
  C   C17       1.0  0.51329  0.30681  0.03691  1.0000
  C   C18       1.0  0.23005  0.52322  0.53705  1.0000
  C   C19       1.0  0.48670  0.69318  0.96309  1.0000
  C   C20       1.0  0.76996  0.47679  0.46295  1.0000
  C   C21       1.0  0.51852  0.43939  0.11080  1.0000
  C   C22       1.0  0.17181  0.59227  0.61071  1.0000
  C   C23       1.0  0.48148  0.56060  0.88920  1.0000
  C   C24       1.0  0.82821  0.40774  0.38930  1.0000
  C   C25       1.0  0.64458  0.55041  0.15739  1.0000
  C   C26       1.0  0.10785  0.51227  0.65698  1.0000
  C   C27       1.0  0.35541  0.44958  0.84261  1.0000
  C   C28       1.0  0.89216  0.48773  0.34302  1.0000
  C   C29       1.0  0.64154  0.67253  0.22479  1.0000
  C   C30       1.0  0.05342  0.58298  0.72411  1.0000
  C   C31       1.0  0.35846  0.32746  0.77521  1.0000
  C   C32       1.0  0.94659  0.41702  0.27589  1.0000
  C   C33       1.0  0.51308  0.68308  0.24384  1.0000
  C   C34       1.0  0.06182  0.73137  0.74321  1.0000
  C   C35       1.0  0.48692  0.31690  0.75616  1.0000
  C   C36       1.0  0.93819  0.26864  0.25679  1.0000
  C   C37       1.0  0.39178  0.56877  0.19407  1.0000
  C   C38       1.0  0.12598  0.80341  0.69380  1.0000
  C   C39       1.0  0.60822  0.43122  0.80593  1.0000
  C   C40       1.0  0.87403  0.19659  0.30620  1.0000
  C   C41       1.0  0.02141  0.50476  0.95606  1.0000
  C   C42       1.0  0.95157  0.93410  0.45603  1.0000
  C   C43       1.0  0.97859  0.49525  0.04394  1.0000
  C   C44       1.0  0.04844  0.06590  0.54397  1.0000
  C   C45       1.0  0.97175  0.98577  0.94449  1.0000
  C   C46       1.0  0.45818  0.97272  0.44455  1.0000
  C   C47       1.0  0.02823  0.01423  0.05551  1.0000
  C   C48       1.0  0.54183  0.02728  0.55546  1.0000
  N   N1        1.0  0.38091  0.21796  0.98604  1.0000
  N   N2        1.0  0.26755  0.60516  0.48637  1.0000
  N   N3        1.0  0.61908  0.78203  0.01396  1.0000
  N   N4        1.0  0.73246  0.39485  0.51362  1.0000
  N   N5        1.0  0.39483  0.45025  0.13006  1.0000
  N   N6        1.0  0.18023  0.73610  0.63008  1.0000
  N   N7        1.0  0.60517  0.54974  0.86994  1.0000
  N   N8        1.0  0.81978  0.26391  0.36993  1.0000
  O   O1        1.0  0.10637  0.42711  0.93391  1.0000
  O   O2        1.0  0.00763  0.82732  0.43359  1.0000
  O   O3        1.0  0.89363  0.57290  0.06609  1.0000
  O   O4        1.0  0.99238  0.17268  0.56641  1.0000
  O   O5        1.0  0.96981  0.59053  0.91240  1.0000
  O   O6        1.0  0.82187  0.94081  0.41255  1.0000
  O   O7        1.0  0.03018  0.40948  0.08761  1.0000
  O   O8        1.0  0.17814  0.05920  0.58745  1.0000
  O   O9        1.0  0.03072  0.07455  0.91246  1.0000
  O   O10       1.0  0.33622  0.88337  0.41262  1.0000
  O   O11       1.0  0.96926  0.92546  0.08754  1.0000
  O   O12       1.0  0.66379  0.11665  0.58740  1.0000
  O   O13       1.0  0.87081  0.87541  0.89316  1.0000
  O   O14       1.0  0.51763  0.02063  0.39317  1.0000
  O   O15       1.0  0.12917  0.12459  0.10683  1.0000
  O   O16       1.0  0.48238  0.97937  0.60683  1.0000
