data_image0
_chemical_formula_structural       NiP2H32C28S4N2O4
_chemical_formula_sum              "Ni1 P2 H32 C28 S4 N2 O4"
_cell_length_a       8.08765
_cell_length_b       9.73594
_cell_length_c       10.0516
_cell_angle_alpha    90.4126
_cell_angle_beta     76.8283
_cell_angle_gamma    77.4548

_space_group_name_H-M_alt    "P 1"
_space_group_IT_number       1

loop_
  _space_group_symop_operation_xyz
  'x, y, z'

loop_
  _atom_site_type_symbol
  _atom_site_label
  _atom_site_symmetry_multiplicity
  _atom_site_fract_x
  _atom_site_fract_y
  _atom_site_fract_z
  _atom_site_occupancy
  Ni  Ni1       1.0  1.00000  0.50000  0.50000  1.0000
  P   P1        1.0  0.23707  0.30216  0.63667  1.0000
  P   P2        1.0  0.76293  0.69784  0.36333  1.0000
  H   H1        1.0  0.41794  0.05612  0.75836  1.0000
  H   H2        1.0  0.58206  0.94388  0.24163  1.0000
  H   H3        1.0  0.34849  0.95780  0.98520  1.0000
  H   H4        1.0  0.65151  0.04219  0.01479  1.0000
  H   H5        1.0  0.88620  0.29306  0.10514  1.0000
  H   H6        1.0  0.11380  0.70693  0.89486  1.0000
  H   H7        1.0  0.96079  0.39357  0.87858  1.0000
  H   H8        1.0  0.03921  0.60642  0.12142  1.0000
  H   H9        1.0  0.19101  0.86253  0.16209  1.0000
  H   H10       1.0  0.80899  0.13747  0.83791  1.0000
  H   H11       1.0  0.10681  0.93910  0.33275  1.0000
  H   H12       1.0  0.89319  0.06090  0.66725  1.0000
  H   H13       1.0  0.30059  0.97996  0.22960  1.0000
  H   H14       1.0  0.69941  0.02004  0.77040  1.0000
  H   H15       1.0  0.53042  0.33677  0.42107  1.0000
  H   H16       1.0  0.46958  0.66324  0.57893  1.0000
  H   H17       1.0  0.44853  0.19137  0.37507  1.0000
  H   H18       1.0  0.55148  0.80862  0.62493  1.0000
  H   H19       1.0  0.78599  0.17104  0.47688  1.0000
  H   H20       1.0  0.21401  0.82896  0.52312  1.0000
  H   H21       1.0  0.77401  0.12804  0.30913  1.0000
  H   H22       1.0  0.22599  0.87196  0.69087  1.0000
  H   H23       1.0  0.69949  0.02437  0.44499  1.0000
  H   H24       1.0  0.30051  0.97563  0.55500  1.0000
  H   H25       1.0  0.85459  0.68393  0.76284  1.0000
  H   H26       1.0  0.14541  0.31608  0.23717  1.0000
  H   H27       1.0  0.65519  0.68410  0.98844  1.0000
  H   H28       1.0  0.34481  0.31591  0.01156  1.0000
  H   H29       1.0  0.50037  0.33021  0.82631  1.0000
  H   H30       1.0  0.49963  0.66979  0.17370  1.0000
  H   H31       1.0  0.70918  0.34518  0.61052  1.0000
  H   H32       1.0  0.29082  0.65483  0.38949  1.0000
  C   C1        1.0  0.19421  0.23061  0.80257  1.0000
  C   C2        1.0  0.80579  0.76938  0.19743  1.0000
  C   C3        1.0  0.30179  0.10817  0.83443  1.0000
  C   C4        1.0  0.69821  0.89182  0.16556  1.0000
  C   C5        1.0  0.26223  0.05241  0.96230  1.0000
  C   C6        1.0  0.73777  0.94758  0.03769  1.0000
  C   C7        1.0  0.11102  0.11879  0.05919  1.0000
  C   C8        1.0  0.88898  0.88120  0.94080  1.0000
  C   C9        1.0  0.00079  0.24078  0.02734  1.0000
  C   C10       1.0  0.99921  0.75922  0.97266  1.0000
  C   C11       1.0  0.04337  0.29646  0.90102  1.0000
  C   C12       1.0  0.95663  0.70353  0.09897  1.0000
  C   C13       1.0  0.17348  0.95689  0.22899  1.0000
  C   C14       1.0  0.82652  0.04311  0.77100  1.0000
  C   C15       1.0  0.52634  0.22618  0.43997  1.0000
  C   C16       1.0  0.47366  0.77382  0.56003  1.0000
  C   C17       1.0  0.70584  0.13221  0.41702  1.0000
  C   C18       1.0  0.29416  0.86780  0.58298  1.0000
  C   C19       1.0  0.77431  0.60653  0.78241  1.0000
  C   C20       1.0  0.22569  0.39347  0.21760  1.0000
  C   C21       1.0  0.66052  0.60574  0.90896  1.0000
  C   C22       1.0  0.33948  0.39426  0.09104  1.0000
  C   C23       1.0  0.55913  0.50383  0.93270  1.0000
  C   C24       1.0  0.44088  0.49617  0.06732  1.0000
  C   C25       1.0  0.57672  0.41017  0.82056  1.0000
  C   C26       1.0  0.42328  0.58984  0.17945  1.0000
  C   C27       1.0  0.69423  0.41773  0.69747  1.0000
  C   C28       1.0  0.30576  0.58228  0.30254  1.0000
  S   S1        1.0  0.08779  0.25207  0.51702  1.0000
  S   S2        1.0  0.91221  0.74793  0.48298  1.0000
  S   S3        1.0  0.20568  0.51129  0.64807  1.0000
  S   S4        1.0  0.79432  0.48871  0.35193  1.0000
  N   N1        1.0  0.79508  0.51230  0.67779  1.0000
  N   N2        1.0  0.20492  0.48771  0.32222  1.0000
  O   O1        1.0  0.43815  0.21869  0.58244  1.0000
  O   O2        1.0  0.56185  0.78131  0.41755  1.0000
  O   O3        1.0  0.06191  0.07547  0.18724  1.0000
  O   O4        1.0  0.93809  0.92453  0.81275  1.0000
