data_image0
_chemical_formula_structural       Cd2H14C18Br4N2
_chemical_formula_sum              "Cd2 H14 C18 Br4 N2"
_cell_length_a       7.47383
_cell_length_b       8.35519
_cell_length_c       10.1058
_cell_angle_alpha    107.771
_cell_angle_beta     95.2152
_cell_angle_gamma    116.732

_space_group_name_H-M_alt    "P 1"
_space_group_IT_number       1

loop_
  _space_group_symop_operation_xyz
  'x, y, z'

loop_
  _atom_site_type_symbol
  _atom_site_label
  _atom_site_symmetry_multiplicity
  _atom_site_fract_x
  _atom_site_fract_y
  _atom_site_fract_z
  _atom_site_occupancy
  Cd  Cd1       1.0  0.75327  0.49145  0.05262  1.0000
  Cd  Cd2       1.0  0.24671  0.50851  0.94736  1.0000
  H   H1        1.0  0.73830  0.15624  0.12447  1.0000
  H   H2        1.0  0.26173  0.84378  0.87554  1.0000
  H   H3        1.0  0.70713  0.02641  0.31657  1.0000
  H   H4        1.0  0.29288  0.97360  0.68344  1.0000
  H   H5        1.0  0.71503  0.23120  0.56340  1.0000
  H   H6        1.0  0.28497  0.76881  0.43661  1.0000
  H   H7        1.0  0.74037  0.53870  0.72260  1.0000
  H   H8        1.0  0.25963  0.46130  0.27740  1.0000
  H   H9        1.0  0.77474  0.85897  0.75560  1.0000
  H   H10       1.0  0.22524  0.14103  0.24441  1.0000
  H   H11       1.0  0.80042  0.96786  0.55160  1.0000
  H   H12       1.0  0.19957  0.03214  0.44841  1.0000
  H   H13       1.0  0.79270  0.75956  0.31353  1.0000
  H   H14       1.0  0.20729  0.24045  0.68648  1.0000
  C   C1        1.0  0.73977  0.24166  0.23118  1.0000
  C   C2        1.0  0.26024  0.75835  0.76882  1.0000
  C   C3        1.0  0.72286  0.16905  0.34095  1.0000
  C   C4        1.0  0.27715  0.83096  0.65905  1.0000
  C   C5        1.0  0.72721  0.28091  0.47473  1.0000
  C   C6        1.0  0.27279  0.71909  0.52527  1.0000
  C   C7        1.0  0.74816  0.46544  0.49929  1.0000
  C   C8        1.0  0.25183  0.53457  0.50070  1.0000
  C   C9        1.0  0.75258  0.58785  0.63381  1.0000
  C   C10       1.0  0.24742  0.41215  0.36619  1.0000
  C   C11       1.0  0.77196  0.76577  0.65198  1.0000
  C   C12       1.0  0.22803  0.23423  0.34802  1.0000
  C   C13       1.0  0.78627  0.82724  0.53574  1.0000
  C   C14       1.0  0.21372  0.17277  0.46426  1.0000
  C   C15       1.0  0.78212  0.71164  0.40319  1.0000
  C   C16       1.0  0.21787  0.28836  0.59681  1.0000
  C   C17       1.0  0.76340  0.52895  0.38215  1.0000
  C   C18       1.0  0.23660  0.47106  0.61785  1.0000
  Br  Br1       1.0  0.80509  0.24676  0.84572  1.0000
  Br  Br2       1.0  0.19492  0.75320  0.15428  1.0000
  Br  Br3       1.0  0.69129  0.76493  0.02331  1.0000
  Br  Br4       1.0  0.30870  0.23504  0.97666  1.0000
  N   N1        1.0  0.75847  0.41356  0.25019  1.0000
  N   N2        1.0  0.24153  0.58645  0.74981  1.0000
