data_image0
_chemical_formula_structural       Cd4H44C32I8N4
_chemical_formula_sum              "Cd4 H44 C32 I8 N4"
_cell_length_a       7.6413
_cell_length_b       8.04904
_cell_length_c       19.2432
_cell_angle_alpha    90.0001
_cell_angle_beta     89.9997
_cell_angle_gamma    89.6676

_space_group_name_H-M_alt    "P 1"
_space_group_IT_number       1

loop_
  _space_group_symop_operation_xyz
  'x, y, z'

loop_
  _atom_site_type_symbol
  _atom_site_label
  _atom_site_symmetry_multiplicity
  _atom_site_fract_x
  _atom_site_fract_y
  _atom_site_fract_z
  _atom_site_occupancy
  Cd  Cd1       1.0  0.75798  0.94671  0.53290  1.0000
  Cd  Cd2       1.0  0.74202  0.05328  0.03290  1.0000
  Cd  Cd3       1.0  0.24201  0.05330  0.46711  1.0000
  Cd  Cd4       1.0  0.25798  0.94668  0.96710  1.0000
  H   H1        1.0  0.02200  0.00784  0.66043  1.0000
  H   H2        1.0  0.47800  0.99217  0.16043  1.0000
  H   H3        1.0  0.97800  0.99217  0.33958  1.0000
  H   H4        1.0  0.52198  0.00783  0.83957  1.0000
  H   H5        1.0  0.94341  0.05489  0.74548  1.0000
  H   H6        1.0  0.55659  0.94512  0.24548  1.0000
  H   H7        1.0  0.05658  0.94512  0.25452  1.0000
  H   H8        1.0  0.44340  0.05489  0.75452  1.0000
  H   H9        1.0  0.82074  0.11497  0.67062  1.0000
  H   H10       1.0  0.67926  0.88504  0.17062  1.0000
  H   H11       1.0  0.17926  0.88504  0.32938  1.0000
  H   H12       1.0  0.32072  0.11496  0.82938  1.0000
  H   H13       1.0  0.83231  0.82356  0.80556  1.0000
  H   H14       1.0  0.66770  0.17644  0.30556  1.0000
  H   H15       1.0  0.16770  0.17645  0.19444  1.0000
  H   H16       1.0  0.33230  0.82356  0.69443  1.0000
  H   H17       1.0  0.53814  0.46616  0.82452  1.0000
  H   H18       1.0  0.96187  0.53384  0.32453  1.0000
  H   H19       1.0  0.46187  0.53385  0.17548  1.0000
  H   H20       1.0  0.03813  0.46615  0.67547  1.0000
  H   H21       1.0  0.68102  0.60233  0.86980  1.0000
  H   H22       1.0  0.81899  0.39767  0.36981  1.0000
  H   H23       1.0  0.31899  0.39767  0.13020  1.0000
  H   H24       1.0  0.18101  0.60232  0.63019  1.0000
  H   H25       1.0  0.76313  0.41852  0.83030  1.0000
  H   H26       1.0  0.73688  0.58148  0.33030  1.0000
  H   H27       1.0  0.23688  0.58148  0.16970  1.0000
  H   H28       1.0  0.26312  0.41852  0.66969  1.0000
  H   H29       1.0  0.57834  0.43262  0.69083  1.0000
  H   H30       1.0  0.92166  0.56739  0.19083  1.0000
  H   H31       1.0  0.42167  0.56739  0.30918  1.0000
  H   H32       1.0  0.07835  0.43260  0.80917  1.0000
  H   H33       1.0  0.48592  0.67316  0.54867  1.0000
  H   H34       1.0  0.01409  0.32685  0.04867  1.0000
  H   H35       1.0  0.51409  0.32685  0.45134  1.0000
  H   H36       1.0  0.98591  0.67314  0.95133  1.0000
  H   H37       1.0  0.53532  0.46318  0.57082  1.0000
  H   H38       1.0  0.96468  0.53683  0.07082  1.0000
  H   H39       1.0  0.46468  0.53683  0.42918  1.0000
  H   H40       1.0  0.03531  0.46315  0.92918  1.0000
  H   H41       1.0  0.69121  0.58444  0.52507  1.0000
  H   H42       1.0  0.80880  0.41557  0.02508  1.0000
  H   H43       1.0  0.30879  0.41557  0.47493  1.0000
  H   H44       1.0  0.19120  0.58442  0.97492  1.0000
  C   C1        1.0  0.80986  0.85431  0.69512  1.0000
  C   C2        1.0  0.69014  0.14570  0.19512  1.0000
  C   C3        1.0  0.19014  0.14570  0.30489  1.0000
  C   C4        1.0  0.30985  0.85430  0.80488  1.0000
  C   C5        1.0  0.90401  0.01670  0.69311  1.0000
  C   C6        1.0  0.59599  0.98331  0.19312  1.0000
  C   C7        1.0  0.09599  0.98331  0.30689  1.0000
  C   C8        1.0  0.40399  0.01669  0.80688  1.0000
  C   C9        1.0  0.78543  0.76827  0.75731  1.0000
  C   C10       1.0  0.71458  0.23174  0.25731  1.0000
  C   C11       1.0  0.21458  0.23174  0.24270  1.0000
  C   C12       1.0  0.28542  0.76825  0.74269  1.0000
  C   C13       1.0  0.70080  0.61466  0.75798  1.0000
  C   C14       1.0  0.79921  0.38534  0.25798  1.0000
  C   C15       1.0  0.29921  0.38534  0.24202  1.0000
  C   C16       1.0  0.20079  0.61465  0.74202  1.0000
  C   C17       1.0  0.66909  0.52172  0.82410  1.0000
  C   C18       1.0  0.83092  0.47829  0.32411  1.0000
  C   C19       1.0  0.33092  0.47829  0.17590  1.0000
  C   C20       1.0  0.16908  0.52171  0.67589  1.0000
  C   C21       1.0  0.64466  0.55212  0.69395  1.0000
  C   C22       1.0  0.85535  0.44789  0.19396  1.0000
  C   C23       1.0  0.35535  0.44788  0.30605  1.0000
  C   C24       1.0  0.14465  0.55211  0.80604  1.0000
  C   C25       1.0  0.66520  0.64476  0.63337  1.0000
  C   C26       1.0  0.83480  0.35525  0.13337  1.0000
  C   C27       1.0  0.33481  0.35525  0.36664  1.0000
  C   C28       1.0  0.16519  0.64474  0.86663  1.0000
  C   C29       1.0  0.59059  0.58785  0.56592  1.0000
  C   C30       1.0  0.90941  0.41216  0.06592  1.0000
  C   C31       1.0  0.40941  0.41216  0.43408  1.0000
  C   C32       1.0  0.09059  0.58784  0.93407  1.0000
  I   I1        1.0  0.57710  0.89412  0.40436  1.0000
  I   I2        1.0  0.92290  0.10587  0.90436  1.0000
  I   I3        1.0  0.42290  0.10588  0.59564  1.0000
  I   I4        1.0  0.07710  0.89412  0.09564  1.0000
  I   I5        1.0  0.92786  0.25485  0.51322  1.0000
  I   I6        1.0  0.57213  0.74515  0.01322  1.0000
  I   I7        1.0  0.07213  0.74517  0.48677  1.0000
  I   I8        1.0  0.42787  0.25482  0.98678  1.0000
  N   N1        1.0  0.74757  0.79340  0.63438  1.0000
  N   N2        1.0  0.75243  0.20660  0.13438  1.0000
  N   N3        1.0  0.25244  0.20660  0.36563  1.0000
  N   N4        1.0  0.24756  0.79339  0.86562  1.0000
