data_image0
_chemical_formula_structural       Cd4H56C72N8Cl8
_chemical_formula_sum              "Cd4 H56 C72 N8 Cl8"
_cell_length_a       7.42868
_cell_length_b       14.9699
_cell_length_c       15.0737
_cell_angle_alpha    90
_cell_angle_beta     90
_cell_angle_gamma    90

_space_group_name_H-M_alt    "P 1"
_space_group_IT_number       1

loop_
  _space_group_symop_operation_xyz
  'x, y, z'

loop_
  _atom_site_type_symbol
  _atom_site_label
  _atom_site_symmetry_multiplicity
  _atom_site_fract_x
  _atom_site_fract_y
  _atom_site_fract_z
  _atom_site_occupancy
  Cd  Cd1       1.0  0.21841  0.50000  0.00000  1.0000
  Cd  Cd2       1.0  0.28159  0.00000  0.50000  1.0000
  Cd  Cd3       1.0  0.71816  0.50000  1.00000  1.0000
  Cd  Cd4       1.0  0.78184  0.00000  0.50000  1.0000
  H   H1        1.0  0.19449  0.50334  0.20131  1.0000
  H   H2        1.0  0.19450  0.49666  0.79869  1.0000
  H   H3        1.0  0.30550  0.00334  0.29869  1.0000
  H   H4        1.0  0.30550  0.99666  0.70131  1.0000
  H   H5        1.0  0.69449  0.70190  0.00205  1.0000
  H   H6        1.0  0.69448  0.29810  0.99794  1.0000
  H   H7        1.0  0.80551  0.79810  0.50206  1.0000
  H   H8        1.0  0.80551  0.20190  0.49794  1.0000
  H   H9        1.0  0.13296  0.41981  0.34071  1.0000
  H   H10       1.0  0.13296  0.58019  0.65929  1.0000
  H   H11       1.0  0.36704  0.91981  0.15929  1.0000
  H   H12       1.0  0.36704  0.08019  0.84071  1.0000
  H   H13       1.0  0.63197  0.84211  0.91909  1.0000
  H   H14       1.0  0.63197  0.15790  0.08091  1.0000
  H   H15       1.0  0.86803  0.65789  0.41909  1.0000
  H   H16       1.0  0.86803  0.34211  0.58091  1.0000
  H   H17       1.0  0.10670  0.25143  0.33447  1.0000
  H   H18       1.0  0.10670  0.74856  0.66553  1.0000
  H   H19       1.0  0.39329  0.75143  0.16553  1.0000
  H   H20       1.0  0.39329  0.24856  0.83447  1.0000
  H   H21       1.0  0.60594  0.83573  0.75190  1.0000
  H   H22       1.0  0.60594  0.16427  0.24809  1.0000
  H   H23       1.0  0.89407  0.66427  0.25191  1.0000
  H   H24       1.0  0.89406  0.33573  0.74809  1.0000
  H   H25       1.0  0.11464  0.11392  0.24333  1.0000
  H   H26       1.0  0.11463  0.88608  0.75667  1.0000
  H   H27       1.0  0.38536  0.61392  0.25667  1.0000
  H   H28       1.0  0.38537  0.38608  0.74333  1.0000
  H   H29       1.0  0.61485  0.74427  0.61551  1.0000
  H   H30       1.0  0.61487  0.25573  0.38448  1.0000
  H   H31       1.0  0.88514  0.75573  0.11552  1.0000
  H   H32       1.0  0.88514  0.24427  0.88449  1.0000
  H   H33       1.0  0.15453  0.04110  0.09607  1.0000
  H   H34       1.0  0.15452  0.95890  0.90393  1.0000
  H   H35       1.0  0.34547  0.54110  0.40393  1.0000
  H   H36       1.0  0.34548  0.45890  0.59607  1.0000
  H   H37       1.0  0.65503  0.59609  0.54296  1.0000
  H   H38       1.0  0.65503  0.40391  0.45703  1.0000
  H   H39       1.0  0.84497  0.90391  0.04297  1.0000
  H   H40       1.0  0.84496  0.09609  0.95703  1.0000
  H   H41       1.0  0.21654  0.13450  0.96191  1.0000
  H   H42       1.0  0.21654  0.86550  0.03808  1.0000
  H   H43       1.0  0.28346  0.63450  0.53809  1.0000
  H   H44       1.0  0.28346  0.36550  0.46192  1.0000
  H   H45       1.0  0.71676  0.46088  0.63559  1.0000
  H   H46       1.0  0.71676  0.53912  0.36441  1.0000
  H   H47       1.0  0.78324  0.03912  0.13559  1.0000
  H   H48       1.0  0.78323  0.96088  0.86441  1.0000
  H   H49       1.0  0.24054  0.29898  0.97460  1.0000
  H   H50       1.0  0.24053  0.70102  0.02540  1.0000
  H   H51       1.0  0.25947  0.79898  0.52540  1.0000
  H   H52       1.0  0.25947  0.20102  0.47460  1.0000
  H   H53       1.0  0.74061  0.47340  0.79895  1.0000
  H   H54       1.0  0.74062  0.52660  0.20105  1.0000
  H   H55       1.0  0.75938  0.02660  0.29896  1.0000
  H   H56       1.0  0.75938  0.97340  0.70105  1.0000
  C   C1        1.0  0.18502  0.43067  0.20029  1.0000
  C   C2        1.0  0.18502  0.56933  0.79971  1.0000
  C   C3        1.0  0.31498  0.93067  0.29970  1.0000
  C   C4        1.0  0.31498  0.06933  0.70030  1.0000
  C   C5        1.0  0.68486  0.70079  0.92987  1.0000
  C   C6        1.0  0.68486  0.29921  0.07013  1.0000
  C   C7        1.0  0.81514  0.79921  0.42987  1.0000
  C   C8        1.0  0.81514  0.20079  0.57013  1.0000
  C   C9        1.0  0.15085  0.38289  0.27908  1.0000
  C   C10       1.0  0.15085  0.61710  0.72092  1.0000
  C   C11       1.0  0.34914  0.88289  0.22092  1.0000
  C   C12       1.0  0.34915  0.11710  0.77908  1.0000
  C   C13       1.0  0.65025  0.78008  0.88245  1.0000
  C   C14       1.0  0.65025  0.21992  0.11755  1.0000
  C   C15       1.0  0.84975  0.71992  0.38245  1.0000
  C   C16       1.0  0.84975  0.28008  0.61755  1.0000
  C   C17       1.0  0.13567  0.29134  0.27557  1.0000
  C   C18       1.0  0.13567  0.70866  0.72444  1.0000
  C   C19       1.0  0.36433  0.79134  0.22443  1.0000
  C   C20       1.0  0.36433  0.20866  0.77556  1.0000
  C   C21       1.0  0.63516  0.77648  0.79152  1.0000
  C   C22       1.0  0.63517  0.22352  0.20847  1.0000
  C   C23       1.0  0.86484  0.72352  0.29153  1.0000
  C   C24       1.0  0.86484  0.27648  0.70848  1.0000
  C   C25       1.0  0.15696  0.24749  0.19290  1.0000
  C   C26       1.0  0.15695  0.75251  0.80710  1.0000
  C   C27       1.0  0.34304  0.74749  0.30710  1.0000
  C   C28       1.0  0.34305  0.25251  0.69290  1.0000
  C   C29       1.0  0.65694  0.69328  0.74805  1.0000
  C   C30       1.0  0.65695  0.30672  0.25195  1.0000
  C   C31       1.0  0.84306  0.80672  0.24805  1.0000
  C   C32       1.0  0.84306  0.19328  0.75195  1.0000
  C   C33       1.0  0.14420  0.15330  0.18414  1.0000
  C   C34       1.0  0.14419  0.84670  0.81586  1.0000
  C   C35       1.0  0.35580  0.65330  0.31586  1.0000
  C   C36       1.0  0.35581  0.34670  0.68415  1.0000
  C   C37       1.0  0.64434  0.68457  0.65450  1.0000
  C   C38       1.0  0.64436  0.31542  0.34550  1.0000
  C   C39       1.0  0.85566  0.81543  0.15450  1.0000
  C   C40       1.0  0.85565  0.18458  0.84550  1.0000
  C   C41       1.0  0.16615  0.11348  0.10234  1.0000
  C   C42       1.0  0.16615  0.88652  0.89765  1.0000
  C   C43       1.0  0.33384  0.61348  0.39765  1.0000
  C   C44       1.0  0.33385  0.38652  0.60235  1.0000
  C   C45       1.0  0.66652  0.60228  0.61487  1.0000
  C   C46       1.0  0.66652  0.39772  0.38513  1.0000
  C   C47       1.0  0.83349  0.89772  0.11487  1.0000
  C   C48       1.0  0.83348  0.10228  0.88513  1.0000
  C   C49       1.0  0.20120  0.16632  0.02653  1.0000
  C   C50       1.0  0.20120  0.83368  0.97347  1.0000
  C   C51       1.0  0.29880  0.66632  0.47347  1.0000
  C   C52       1.0  0.29880  0.33368  0.52653  1.0000
  C   C53       1.0  0.70148  0.52588  0.66728  1.0000
  C   C54       1.0  0.70149  0.47412  0.33272  1.0000
  C   C55       1.0  0.79852  0.97412  0.16728  1.0000
  C   C56       1.0  0.79851  0.02588  0.83272  1.0000
  C   C57       1.0  0.21347  0.25810  0.03271  1.0000
  C   C58       1.0  0.21346  0.74190  0.96729  1.0000
  C   C59       1.0  0.28653  0.75810  0.46729  1.0000
  C   C60       1.0  0.28654  0.24191  0.53271  1.0000
  C   C61       1.0  0.71368  0.53200  0.75845  1.0000
  C   C62       1.0  0.71369  0.46800  0.24155  1.0000
  C   C63       1.0  0.78632  0.96800  0.25845  1.0000
  C   C64       1.0  0.78631  0.03200  0.74155  1.0000
  C   C65       1.0  0.19159  0.30095  0.11577  1.0000
  C   C66       1.0  0.19159  0.69905  0.88423  1.0000
  C   C67       1.0  0.30840  0.80095  0.38422  1.0000
  C   C68       1.0  0.30841  0.19905  0.61578  1.0000
  C   C69       1.0  0.69168  0.61560  0.80109  1.0000
  C   C70       1.0  0.69169  0.38440  0.19891  1.0000
  C   C71       1.0  0.80832  0.88440  0.30110  1.0000
  C   C72       1.0  0.80832  0.11560  0.69891  1.0000
  N   N1        1.0  0.20359  0.39230  0.12153  1.0000
  N   N2        1.0  0.20359  0.60770  0.87847  1.0000
  N   N3        1.0  0.29641  0.89230  0.37847  1.0000
  N   N4        1.0  0.29641  0.10770  0.62153  1.0000
  N   N5        1.0  0.70364  0.62144  0.89183  1.0000
  N   N6        1.0  0.70364  0.37856  0.10816  1.0000
  N   N7        1.0  0.79636  0.87856  0.39184  1.0000
  N   N8        1.0  0.79636  0.12144  0.60816  1.0000
  Cl  Cl1       1.0  0.46606  0.41403  0.90962  1.0000
  Cl  Cl2       1.0  0.46606  0.58597  0.09038  1.0000
  Cl  Cl3       1.0  0.03394  0.91403  0.59038  1.0000
  Cl  Cl4       1.0  0.03394  0.08597  0.40962  1.0000
  Cl  Cl5       1.0  0.96583  0.40893  0.91502  1.0000
  Cl  Cl6       1.0  0.96583  0.59107  0.08498  1.0000
  Cl  Cl7       1.0  0.53416  0.09107  0.41502  1.0000
  Cl  Cl8       1.0  0.53416  0.90893  0.58498  1.0000
