data_image0
_chemical_formula_structural       Zn2H44C62N6O14
_chemical_formula_sum              "Zn2 H44 C62 N6 O14"
_cell_length_a       7.68024
_cell_length_b       10.1433
_cell_length_c       17.687
_cell_angle_alpha    102.355
_cell_angle_beta     100.484
_cell_angle_gamma    102.771

_space_group_name_H-M_alt    "P 1"
_space_group_IT_number       1

loop_
  _space_group_symop_operation_xyz
  'x, y, z'

loop_
  _atom_site_type_symbol
  _atom_site_label
  _atom_site_symmetry_multiplicity
  _atom_site_fract_x
  _atom_site_fract_y
  _atom_site_fract_z
  _atom_site_occupancy
  Zn  Zn1       1.0  0.09781  0.39547  0.99852  1.0000
  Zn  Zn2       1.0  0.90219  0.60453  0.00148  1.0000
  H   H1        1.0  0.24557  0.96038  0.05999  1.0000
  H   H2        1.0  0.75444  0.03962  0.94001  1.0000
  H   H3        1.0  0.74719  0.66295  0.49868  1.0000
  H   H4        1.0  0.25280  0.33705  0.50132  1.0000
  H   H5        1.0  0.41551  0.33979  0.93259  1.0000
  H   H6        1.0  0.58450  0.66021  0.06741  1.0000
  H   H7        1.0  0.40949  0.56007  0.24428  1.0000
  H   H8        1.0  0.59050  0.43993  0.75572  1.0000
  H   H9        1.0  0.33592  0.34818  0.21906  1.0000
  H   H10       1.0  0.66408  0.65181  0.78094  1.0000
  H   H11       1.0  0.71779  0.10317  0.26497  1.0000
  H   H12       1.0  0.28221  0.89683  0.73503  1.0000
  H   H13       1.0  0.60190  0.16959  0.93274  1.0000
  H   H14       1.0  0.39812  0.83042  0.06727  1.0000
  H   H15       1.0  0.40800  0.27209  0.35117  1.0000
  H   H16       1.0  0.59200  0.72791  0.64883  1.0000
  H   H17       1.0  0.26482  0.11984  0.27862  1.0000
  H   H18       1.0  0.73518  0.88016  0.72138  1.0000
  H   H19       1.0  0.88577  0.19324  0.17269  1.0000
  H   H20       1.0  0.11422  0.80676  0.82731  1.0000
  H   H21       1.0  0.29782  0.93960  0.20491  1.0000
  H   H22       1.0  0.70218  0.06040  0.79509  1.0000
  H   H23       1.0  0.51548  0.44740  0.13193  1.0000
  H   H24       1.0  0.48453  0.55260  0.86807  1.0000
  H   H25       1.0  0.07722  0.14212  0.05573  1.0000
  H   H26       1.0  0.92279  0.85788  0.94427  1.0000
  H   H27       1.0  0.61551  0.94087  0.43355  1.0000
  H   H28       1.0  0.38448  0.05913  0.56646  1.0000
  H   H29       1.0  0.29816  0.78943  0.49448  1.0000
  H   H30       1.0  0.70183  0.21057  0.50552  1.0000
  H   H31       1.0  0.05748  0.11003  0.41258  1.0000
  H   H32       1.0  0.94252  0.88996  0.58742  1.0000
  H   H33       1.0  0.90431  0.63333  0.23872  1.0000
  H   H34       1.0  0.09569  0.36667  0.76128  1.0000
  H   H35       1.0  0.37261  0.59503  0.54683  1.0000
  H   H36       1.0  0.62739  0.40497  0.45317  1.0000
  H   H37       1.0  0.87971  0.47367  0.30425  1.0000
  H   H38       1.0  0.12029  0.52633  0.69575  1.0000
  H   H39       1.0  0.13366  0.92630  0.47216  1.0000
  H   H40       1.0  0.86633  0.07369  0.52784  1.0000
  H   H41       1.0  0.98400  0.29475  0.36171  1.0000
  H   H42       1.0  0.01601  0.70525  0.63829  1.0000
  H   H43       1.0  0.83265  0.82950  0.18970  1.0000
  H   H44       1.0  0.16735  0.17050  0.81030  1.0000
  C   C1        1.0  0.29046  0.04223  0.03121  1.0000
  C   C2        1.0  0.70955  0.95777  0.96879  1.0000
  C   C3        1.0  0.71345  0.32742  0.14663  1.0000
  C   C4        1.0  0.28655  0.67258  0.85337  1.0000
  C   C5        1.0  0.44331  0.04971  0.99764  1.0000
  C   C6        1.0  0.55670  0.95029  0.00236  1.0000
  C   C7        1.0  0.81937  0.38576  0.09271  1.0000
  C   C8        1.0  0.18063  0.61424  0.90729  1.0000
  C   C9        1.0  0.38240  0.25325  0.95962  1.0000
  C   C10       1.0  0.61760  0.74675  0.04039  1.0000
  C   C11       1.0  0.42442  0.67134  0.26553  1.0000
  C   C12       1.0  0.57557  0.32866  0.73447  1.0000
  C   C13       1.0  0.45791  0.31520  0.20947  1.0000
  C   C14       1.0  0.54210  0.68480  0.79053  1.0000
  C   C15       1.0  0.66884  0.17634  0.23513  1.0000
  C   C16       1.0  0.33116  0.82365  0.76487  1.0000
  C   C17       1.0  0.34491  0.74285  0.21609  1.0000
  C   C18       1.0  0.65509  0.25715  0.78391  1.0000
  C   C19       1.0  0.48558  0.15711  0.95997  1.0000
  C   C20       1.0  0.51443  0.84291  0.04003  1.0000
  C   C21       1.0  0.40959  0.17696  0.30802  1.0000
  C   C22       1.0  0.59041  0.82304  0.69198  1.0000
  C   C23       1.0  0.59438  0.65781  0.39541  1.0000
  C   C24       1.0  0.40561  0.34221  0.60460  1.0000
  C   C25       1.0  0.46349  0.95789  0.32222  1.0000
  C   C26       1.0  0.53650  0.04211  0.67777  1.0000
  C   C27       1.0  0.23167  0.66409  0.13368  1.0000
  C   C28       1.0  0.76833  0.33591  0.86632  1.0000
  C   C29       1.0  0.76580  0.22801  0.18340  1.0000
  C   C30       1.0  0.23420  0.77199  0.81660  1.0000
  C   C31       1.0  0.52103  0.74212  0.34411  1.0000
  C   C32       1.0  0.47896  0.25787  0.65589  1.0000
  C   C33       1.0  0.36352  0.88668  0.24435  1.0000
  C   C34       1.0  0.63648  0.11332  0.75565  1.0000
  C   C35       1.0  0.55818  0.37076  0.16033  1.0000
  C   C36       1.0  0.44182  0.62924  0.83967  1.0000
  C   C37       1.0  0.51440  0.22041  0.24899  1.0000
  C   C38       1.0  0.48560  0.77959  0.75100  1.0000
  C   C39       1.0  0.19385  0.14234  0.02866  1.0000
  C   C40       1.0  0.80616  0.85766  0.97134  1.0000
  C   C41       1.0  0.54142  0.88527  0.37239  1.0000
  C   C42       1.0  0.45858  0.11473  0.62762  1.0000
  C   C43       1.0  0.02877  0.76155  0.36069  1.0000
  C   C44       1.0  0.97123  0.23845  0.63931  1.0000
  C   C45       1.0  0.22078  0.68197  0.46309  1.0000
  C   C46       1.0  0.77922  0.31803  0.53692  1.0000
  C   C47       1.0  0.02412  0.00291  0.37521  1.0000
  C   C48       1.0  0.97588  0.99709  0.62479  1.0000
  C   C49       1.0  0.93975  0.73670  0.28036  1.0000
  C   C50       1.0  0.06026  0.26329  0.71964  1.0000
  C   C51       1.0  0.26657  0.57466  0.49249  1.0000
  C   C52       1.0  0.73343  0.42533  0.50751  1.0000
  C   C53       1.0  0.08034  0.64962  0.39364  1.0000
  C   C54       1.0  0.91966  0.35038  0.60636  1.0000
  C   C55       1.0  0.99320  0.50703  0.35701  1.0000
  C   C56       1.0  0.00680  0.49297  0.64299  1.0000
  C   C57       1.0  0.06947  0.89924  0.40870  1.0000
  C   C58       1.0  0.93053  0.10076  0.59130  1.0000
  C   C59       1.0  0.04951  0.40597  0.38981  1.0000
  C   C60       1.0  0.95049  0.59403  0.61018  1.0000
  C   C61       1.0  0.89990  0.84772  0.25236  1.0000
  C   C62       1.0  0.10010  0.15228  0.74764  1.0000
  N   N1        1.0  0.23920  0.24689  0.99403  1.0000
  N   N2        1.0  0.76081  0.75312  0.00597  1.0000
  N   N3        1.0  0.18345  0.43842  0.45672  1.0000
  N   N4        1.0  0.81655  0.56158  0.54328  1.0000
  N   N5        1.0  0.94159  0.97986  0.29791  1.0000
  N   N6        1.0  0.05842  0.02014  0.70209  1.0000
  O   O1        1.0  0.49186  0.09819  0.35524  1.0000
  O   O2        1.0  0.50814  0.90181  0.64476  1.0000
  O   O3        1.0  0.11716  0.72074  0.10044  1.0000
  O   O4        1.0  0.88284  0.27926  0.89956  1.0000
  O   O5        1.0  0.69943  0.73173  0.46698  1.0000
  O   O6        1.0  0.30056  0.26826  0.53302  1.0000
  O   O7        1.0  0.78703  0.49412  0.07341  1.0000
  O   O8        1.0  0.21296  0.50588  0.92659  1.0000
  O   O9        1.0  0.55678  0.52871  0.37151  1.0000
  O   O10       1.0  0.44317  0.47127  0.62849  1.0000
  O   O11       1.0  0.25708  0.54634  0.10282  1.0000
  O   O12       1.0  0.74292  0.45366  0.89718  1.0000
  O   O13       1.0  0.93449  0.32317  0.06943  1.0000
  O   O14       1.0  0.06552  0.67683  0.93057  1.0000
