data_image0
_chemical_formula_structural       Cd4H24C32S2O26
_chemical_formula_sum              "Cd4 H24 C32 S2 O26"
_cell_length_a       7.32559
_cell_length_b       10.8386
_cell_length_c       13.5928
_cell_angle_alpha    70.8339
_cell_angle_beta     80.2587
_cell_angle_gamma    68.61

_space_group_name_H-M_alt    "P 1"
_space_group_IT_number       1

loop_
  _space_group_symop_operation_xyz
  'x, y, z'

loop_
  _atom_site_type_symbol
  _atom_site_label
  _atom_site_symmetry_multiplicity
  _atom_site_fract_x
  _atom_site_fract_y
  _atom_site_fract_z
  _atom_site_occupancy
  Cd  Cd1       1.0  0.01196  0.08544  0.85713  1.0000
  Cd  Cd2       1.0  0.98805  0.91456  0.14287  1.0000
  Cd  Cd3       1.0  0.75284  0.07615  0.59659  1.0000
  Cd  Cd4       1.0  0.24716  0.92386  0.40341  1.0000
  H   H1        1.0  0.78598  0.12566  0.38380  1.0000
  H   H2        1.0  0.21403  0.87434  0.61620  1.0000
  H   H3        1.0  0.73803  0.98581  0.43487  1.0000
  H   H4        1.0  0.26197  0.01419  0.56513  1.0000
  H   H5        1.0  0.43563  0.94032  0.82782  1.0000
  H   H6        1.0  0.56437  0.05968  0.17218  1.0000
  H   H7        1.0  0.31715  0.84648  0.82194  1.0000
  H   H8        1.0  0.68285  0.15352  0.17807  1.0000
  H   H9        1.0  0.59750  0.17761  0.89996  1.0000
  H   H10       1.0  0.40250  0.82239  0.10004  1.0000
  H   H11       1.0  0.68259  0.15391  0.00779  1.0000
  H   H12       1.0  0.31741  0.84609  0.99221  1.0000
  H   H13       1.0  0.68143  0.41053  0.91275  1.0000
  H   H14       1.0  0.31857  0.58946  0.08726  1.0000
  H   H15       1.0  0.73965  0.39969  0.09234  1.0000
  H   H16       1.0  0.26036  0.60030  0.90766  1.0000
  H   H17       1.0  0.80147  0.59760  0.11910  1.0000
  H   H18       1.0  0.19853  0.40239  0.88089  1.0000
  H   H19       1.0  0.31366  0.59990  0.45957  1.0000
  H   H20       1.0  0.68634  0.40010  0.54043  1.0000
  H   H21       1.0  0.32826  0.46243  0.64651  1.0000
  H   H22       1.0  0.67173  0.53757  0.35348  1.0000
  H   H23       1.0  0.01880  0.47713  0.75693  1.0000
  H   H24       1.0  0.98120  0.52287  0.24307  1.0000
  C   C1        1.0  0.71458  0.61103  0.84306  1.0000
  C   C2        1.0  0.28542  0.38897  0.15694  1.0000
  C   C3        1.0  0.71235  0.49444  0.92649  1.0000
  C   C4        1.0  0.28765  0.50556  0.07351  1.0000
  C   C5        1.0  0.74343  0.48926  0.02644  1.0000
  C   C6        1.0  0.25657  0.51074  0.97356  1.0000
  C   C7        1.0  0.77970  0.59876  0.04156  1.0000
  C   C8        1.0  0.22030  0.40124  0.95844  1.0000
  C   C9        1.0  0.79386  0.71197  0.95706  1.0000
  C   C10       1.0  0.20615  0.28803  0.04294  1.0000
  C   C11       1.0  0.75796  0.72099  0.85602  1.0000
  C   C12       1.0  0.24203  0.27901  0.14398  1.0000
  C   C13       1.0  0.83379  0.61925  0.63197  1.0000
  C   C14       1.0  0.16621  0.38075  0.36803  1.0000
  C   C15       1.0  0.82054  0.69455  0.52599  1.0000
  C   C16       1.0  0.17945  0.30545  0.47402  1.0000
  C   C17       1.0  0.99826  0.68790  0.46507  1.0000
  C   C18       1.0  0.00173  0.31211  0.53493  1.0000
  C   C19       1.0  0.17918  0.60513  0.50872  1.0000
  C   C20       1.0  0.82083  0.39487  0.49128  1.0000
  C   C21       1.0  0.18769  0.52797  0.61324  1.0000
  C   C22       1.0  0.81231  0.47203  0.38676  1.0000
  C   C23       1.0  0.01445  0.53602  0.67485  1.0000
  C   C24       1.0  0.98555  0.46399  0.32515  1.0000
  C   C25       1.0  0.85860  0.81920  0.97554  1.0000
  C   C26       1.0  0.14140  0.18079  0.02446  1.0000
  C   C27       1.0  0.75574  0.85041  0.76813  1.0000
  C   C28       1.0  0.24425  0.14958  0.23188  1.0000
  C   C29       1.0  0.62722  0.78226  0.47726  1.0000
  C   C30       1.0  0.37278  0.21774  0.52274  1.0000
  C   C31       1.0  0.99974  0.76548  0.35165  1.0000
  C   C32       1.0  0.00026  0.23452  0.64834  1.0000
  S   S1        1.0  0.62666  0.62249  0.72334  1.0000
  S   S2        1.0  0.37334  0.37749  0.27666  1.0000
  O   O1        1.0  0.62285  0.96439  0.77389  1.0000
  O   O2        1.0  0.37716  0.03561  0.22610  1.0000
  O   O3        1.0  0.87977  0.84223  0.69171  1.0000
  O   O4        1.0  0.12022  0.15777  0.30829  1.0000
  O   O5        1.0  0.95279  0.88043  0.90028  1.0000
  O   O6        1.0  0.04720  0.11957  0.09972  1.0000
  O   O7        1.0  0.81974  0.83543  0.06615  1.0000
  O   O8        1.0  0.18028  0.16457  0.93385  1.0000
  O   O9        1.0  0.59474  0.91104  0.43461  1.0000
  O   O10       1.0  0.40526  0.08896  0.56538  1.0000
  O   O11       1.0  0.50314  0.72375  0.48107  1.0000
  O   O12       1.0  0.49686  0.27626  0.51893  1.0000
  O   O13       1.0  0.88367  0.76652  0.29266  1.0000
  O   O14       1.0  0.11633  0.23348  0.70734  1.0000
  O   O15       1.0  0.12601  0.83015  0.31435  1.0000
  O   O16       1.0  0.87399  0.16986  0.68565  1.0000
  O   O17       1.0  0.47087  0.75713  0.69661  1.0000
  O   O18       1.0  0.52912  0.24287  0.30340  1.0000
  O   O19       1.0  0.57819  0.49871  0.73944  1.0000
  O   O20       1.0  0.42181  0.50129  0.26056  1.0000
  O   O21       1.0  0.83176  0.03602  0.43673  1.0000
  O   O22       1.0  0.16824  0.96398  0.56327  1.0000
  O   O23       1.0  0.31776  0.90751  0.86126  1.0000
  O   O24       1.0  0.68224  0.09249  0.13874  1.0000
  O   O25       1.0  0.70242  0.18657  0.92979  1.0000
  O   O26       1.0  0.29758  0.81343  0.07021  1.0000
