data_image0
_chemical_formula_structural       Cd4H40C48N8Cl8O24
_chemical_formula_sum              "Cd4 H40 C48 N8 Cl8 O24"
_cell_length_a       8.1455
_cell_length_b       10.4877
_cell_length_c       19.661
_cell_angle_alpha    105.736
_cell_angle_beta     90
_cell_angle_gamma    90

_space_group_name_H-M_alt    "P 1"
_space_group_IT_number       1

loop_
  _space_group_symop_operation_xyz
  'x, y, z'

loop_
  _atom_site_type_symbol
  _atom_site_label
  _atom_site_symmetry_multiplicity
  _atom_site_fract_x
  _atom_site_fract_y
  _atom_site_fract_z
  _atom_site_occupancy
  Cd  Cd1       1.0  0.43234  0.34106  0.35790  1.0000
  Cd  Cd2       1.0  0.06766  0.84106  0.85790  1.0000
  Cd  Cd3       1.0  0.56766  0.65894  0.64210  1.0000
  Cd  Cd4       1.0  0.93234  0.15894  0.14210  1.0000
  H   H1        1.0  0.40910  0.59650  0.44804  1.0000
  H   H2        1.0  0.09090  0.09650  0.94804  1.0000
  H   H3        1.0  0.59090  0.40350  0.55196  1.0000
  H   H4        1.0  0.90910  0.90350  0.05196  1.0000
  H   H5        1.0  0.38358  0.61907  0.37113  1.0000
  H   H6        1.0  0.11643  0.11907  0.87113  1.0000
  H   H7        1.0  0.61643  0.38093  0.62887  1.0000
  H   H8        1.0  0.88358  0.88094  0.12887  1.0000
  H   H9        1.0  0.51843  0.36437  0.22643  1.0000
  H   H10       1.0  0.98157  0.86437  0.72642  1.0000
  H   H11       1.0  0.48157  0.63563  0.77357  1.0000
  H   H12       1.0  0.01843  0.13563  0.27357  1.0000
  H   H13       1.0  0.34372  0.28994  0.21336  1.0000
  H   H14       1.0  0.15628  0.78993  0.71335  1.0000
  H   H15       1.0  0.65628  0.71006  0.78664  1.0000
  H   H16       1.0  0.84372  0.21006  0.28664  1.0000
  H   H17       1.0  0.20406  0.92249  0.18870  1.0000
  H   H18       1.0  0.29594  0.42249  0.68870  1.0000
  H   H19       1.0  0.79594  0.07751  0.81130  1.0000
  H   H20       1.0  0.70406  0.57751  0.31130  1.0000
  H   H21       1.0  0.16784  0.67411  0.15158  1.0000
  H   H22       1.0  0.33216  0.17412  0.65158  1.0000
  H   H23       1.0  0.83216  0.32588  0.84842  1.0000
  H   H24       1.0  0.66784  0.82588  0.34842  1.0000
  H   H25       1.0  0.23520  0.54617  0.23922  1.0000
  H   H26       1.0  0.26480  0.04617  0.73922  1.0000
  H   H27       1.0  0.76480  0.45383  0.76078  1.0000
  H   H28       1.0  0.73520  0.95383  0.26078  1.0000
  H   H29       1.0  0.83072  0.23955  0.52636  1.0000
  H   H30       1.0  0.66928  0.73955  0.02636  1.0000
  H   H31       1.0  0.16928  0.76045  0.47364  1.0000
  H   H32       1.0  0.33072  0.26045  0.97364  1.0000
  H   H33       1.0  0.11463  0.20668  0.56916  1.0000
  H   H34       1.0  0.38536  0.70668  0.06916  1.0000
  H   H35       1.0  0.88537  0.79332  0.43084  1.0000
  H   H36       1.0  0.61463  0.29332  0.93084  1.0000
  H   H37       1.0  0.35608  0.27544  0.50673  1.0000
  H   H38       1.0  0.14392  0.77544  0.00673  1.0000
  H   H39       1.0  0.64392  0.72457  0.49327  1.0000
  H   H40       1.0  0.85608  0.22456  0.99327  1.0000
  C   C1        1.0  0.31320  0.84436  0.33832  1.0000
  C   C2        1.0  0.18680  0.34436  0.83832  1.0000
  C   C3        1.0  0.68680  0.15564  0.66168  1.0000
  C   C4        1.0  0.81320  0.65564  0.16168  1.0000
  C   C5        1.0  0.28612  0.92552  0.29326  1.0000
  C   C6        1.0  0.21388  0.42552  0.79326  1.0000
  C   C7        1.0  0.71388  0.07448  0.70674  1.0000
  C   C8        1.0  0.78612  0.57448  0.20674  1.0000
  C   C9        1.0  0.23030  0.86264  0.22501  1.0000
  C   C10       1.0  0.26970  0.36264  0.72501  1.0000
  C   C11       1.0  0.76970  0.13736  0.77499  1.0000
  C   C12       1.0  0.73030  0.63736  0.27499  1.0000
  C   C13       1.0  0.21038  0.72553  0.20442  1.0000
  C   C14       1.0  0.28962  0.22553  0.70442  1.0000
  C   C15       1.0  0.78962  0.27447  0.79558  1.0000
  C   C16       1.0  0.71038  0.77447  0.29558  1.0000
  C   C17       1.0  0.24446  0.65401  0.25296  1.0000
  C   C18       1.0  0.25554  0.15400  0.75295  1.0000
  C   C19       1.0  0.75554  0.34599  0.74705  1.0000
  C   C20       1.0  0.74446  0.84599  0.24705  1.0000
  C   C21       1.0  0.31813  0.07213  0.31359  1.0000
  C   C22       1.0  0.18187  0.57213  0.81359  1.0000
  C   C23       1.0  0.68187  0.92787  0.68641  1.0000
  C   C24       1.0  0.81813  0.42787  0.18641  1.0000
  C   C25       1.0  0.05968  0.36616  0.41737  1.0000
  C   C26       1.0  0.44032  0.86616  0.91737  1.0000
  C   C27       1.0  0.94033  0.63384  0.58263  1.0000
  C   C28       1.0  0.55967  0.13384  0.08263  1.0000
  C   C29       1.0  0.91663  0.32743  0.44644  1.0000
  C   C30       1.0  0.58337  0.82743  0.94644  1.0000
  C   C31       1.0  0.08337  0.67257  0.55356  1.0000
  C   C32       1.0  0.41663  0.17257  0.05356  1.0000
  C   C33       1.0  0.93904  0.27009  0.50233  1.0000
  C   C34       1.0  0.56096  0.77009  0.00232  1.0000
  C   C35       1.0  0.06096  0.72991  0.49768  1.0000
  C   C36       1.0  0.43904  0.22991  0.99768  1.0000
  C   C37       1.0  0.09599  0.25104  0.52570  1.0000
  C   C38       1.0  0.40400  0.75104  0.02570  1.0000
  C   C39       1.0  0.90401  0.74896  0.47430  1.0000
  C   C40       1.0  0.59599  0.24896  0.97430  1.0000
  C   C41       1.0  0.22975  0.28930  0.49192  1.0000
  C   C42       1.0  0.27025  0.78930  0.99192  1.0000
  C   C43       1.0  0.77025  0.71070  0.50808  1.0000
  C   C44       1.0  0.72975  0.21071  0.00808  1.0000
  C   C45       1.0  0.74569  0.33803  0.41960  1.0000
  C   C46       1.0  0.75431  0.83804  0.91960  1.0000
  C   C47       1.0  0.25431  0.66196  0.58040  1.0000
  C   C48       1.0  0.24569  0.16196  0.08040  1.0000
  N   N1        1.0  0.29330  0.71365  0.31944  1.0000
  N   N2        1.0  0.20670  0.21365  0.81944  1.0000
  N   N3        1.0  0.70670  0.28635  0.68056  1.0000
  N   N4        1.0  0.79330  0.78635  0.18056  1.0000
  N   N5        1.0  0.21081  0.34621  0.43881  1.0000
  N   N6        1.0  0.28919  0.84621  0.93881  1.0000
  N   N7        1.0  0.78919  0.65379  0.56119  1.0000
  N   N8        1.0  0.71081  0.15379  0.06119  1.0000
  Cl  Cl1       1.0  0.37318  0.91314  0.42573  1.0000
  Cl  Cl2       1.0  0.12682  0.41314  0.92573  1.0000
  Cl  Cl3       1.0  0.62682  0.08686  0.57427  1.0000
  Cl  Cl4       1.0  0.87318  0.58686  0.07427  1.0000
  Cl  Cl5       1.0  0.05197  0.44615  0.35154  1.0000
  Cl  Cl6       1.0  0.44803  0.94615  0.85154  1.0000
  Cl  Cl7       1.0  0.94803  0.55384  0.64846  1.0000
  Cl  Cl8       1.0  0.55197  0.05385  0.14846  1.0000
  O   O1        1.0  0.45620  0.11198  0.34142  1.0000
  O   O2        1.0  0.04379  0.61198  0.84142  1.0000
  O   O3        1.0  0.54379  0.88802  0.65858  1.0000
  O   O4        1.0  0.95621  0.38802  0.15858  1.0000
  O   O5        1.0  0.20902  0.14780  0.30005  1.0000
  O   O6        1.0  0.29098  0.64780  0.80005  1.0000
  O   O7        1.0  0.79098  0.85219  0.69994  1.0000
  O   O8        1.0  0.70903  0.35219  0.19994  1.0000
  O   O9        1.0  0.72569  0.32374  0.35367  1.0000
  O   O10       1.0  0.77431  0.82374  0.85367  1.0000
  O   O11       1.0  0.27431  0.67626  0.64633  1.0000
  O   O12       1.0  0.22569  0.17626  0.14633  1.0000
  O   O13       1.0  0.62719  0.35648  0.46313  1.0000
  O   O14       1.0  0.87281  0.85649  0.96313  1.0000
  O   O15       1.0  0.37281  0.64351  0.53687  1.0000
  O   O16       1.0  0.12719  0.14352  0.03687  1.0000
  O   O17       1.0  0.45069  0.56977  0.39850  1.0000
  O   O18       1.0  0.04931  0.06977  0.89850  1.0000
  O   O19       1.0  0.54931  0.43023  0.60150  1.0000
  O   O20       1.0  0.95069  0.93023  0.10150  1.0000
  O   O21       1.0  0.40481  0.36342  0.24616  1.0000
  O   O22       1.0  0.09519  0.86342  0.74616  1.0000
  O   O23       1.0  0.59519  0.63658  0.75383  1.0000
  O   O24       1.0  0.90481  0.13658  0.25384  1.0000
