data_image0
_chemical_formula_structural       Cd4H48C48N8O24
_chemical_formula_sum              "Cd4 H48 C48 N8 O24"
_cell_length_a       7.87828
_cell_length_b       12.4466
_cell_length_c       14.0134
_cell_angle_alpha    90
_cell_angle_beta     97.7389
_cell_angle_gamma    90

_space_group_name_H-M_alt    "P 1"
_space_group_IT_number       1

loop_
  _space_group_symop_operation_xyz
  'x, y, z'

loop_
  _atom_site_type_symbol
  _atom_site_label
  _atom_site_symmetry_multiplicity
  _atom_site_fract_x
  _atom_site_fract_y
  _atom_site_fract_z
  _atom_site_occupancy
  Cd  Cd1       1.0  0.75929  0.00061  0.15479  1.0000
  Cd  Cd2       1.0  0.74071  0.50061  0.34521  1.0000
  Cd  Cd3       1.0  0.24071  0.99939  0.84521  1.0000
  Cd  Cd4       1.0  0.25929  0.49939  0.65479  1.0000
  H   H1        1.0  0.71749  0.09817  0.34402  1.0000
  H   H2        1.0  0.78251  0.59817  0.15598  1.0000
  H   H3        1.0  0.28251  0.90183  0.65598  1.0000
  H   H4        1.0  0.21749  0.40183  0.84402  1.0000
  H   H5        1.0  0.85494  0.16934  0.29777  1.0000
  H   H6        1.0  0.64506  0.66934  0.20222  1.0000
  H   H7        1.0  0.14506  0.83066  0.70222  1.0000
  H   H8        1.0  0.35494  0.33066  0.79778  1.0000
  H   H9        1.0  0.83943  0.90432  0.97654  1.0000
  H   H10       1.0  0.66057  0.40432  0.52346  1.0000
  H   H11       1.0  0.16057  0.09568  0.02346  1.0000
  H   H12       1.0  0.33943  0.59568  0.47654  1.0000
  H   H13       1.0  0.65773  0.96117  0.95121  1.0000
  H   H14       1.0  0.84227  0.46117  0.54879  1.0000
  H   H15       1.0  0.34227  0.03884  0.04879  1.0000
  H   H16       1.0  0.15773  0.53883  0.45121  1.0000
  H   H17       1.0  0.15074  0.98384  0.14011  1.0000
  H   H18       1.0  0.34926  0.48383  0.35989  1.0000
  H   H19       1.0  0.84925  0.01616  0.85989  1.0000
  H   H20       1.0  0.65075  0.51617  0.64011  1.0000
  H   H21       1.0  0.37349  0.70696  0.29407  1.0000
  H   H22       1.0  0.12651  0.20696  0.20594  1.0000
  H   H23       1.0  0.62651  0.29303  0.70593  1.0000
  H   H24       1.0  0.87349  0.79304  0.79406  1.0000
  H   H25       1.0  0.08513  0.67407  0.34824  1.0000
  H   H26       1.0  0.41486  0.17406  0.15176  1.0000
  H   H27       1.0  0.91487  0.32593  0.65177  1.0000
  H   H28       1.0  0.58513  0.82593  0.84824  1.0000
  H   H29       1.0  0.84498  0.79777  0.29249  1.0000
  H   H30       1.0  0.65501  0.29777  0.20751  1.0000
  H   H31       1.0  0.15502  0.20223  0.70751  1.0000
  H   H32       1.0  0.34498  0.70223  0.79249  1.0000
  H   H33       1.0  0.13470  0.25384  0.97305  1.0000
  H   H34       1.0  0.36529  0.75384  0.52696  1.0000
  H   H35       1.0  0.86530  0.74616  0.02696  1.0000
  H   H36       1.0  0.63470  0.24616  0.47304  1.0000
  H   H37       1.0  0.61244  0.33642  0.00132  1.0000
  H   H38       1.0  0.88756  0.83643  0.49868  1.0000
  H   H39       1.0  0.38756  0.66357  0.99868  1.0000
  H   H40       1.0  0.11245  0.16357  0.50132  1.0000
  H   H41       1.0  0.64858  0.50246  0.90239  1.0000
  H   H42       1.0  0.85142  0.00245  0.59761  1.0000
  H   H43       1.0  0.35142  0.49754  0.09761  1.0000
  H   H44       1.0  0.14859  0.99754  0.40239  1.0000
  H   H45       1.0  0.93331  0.53365  0.84592  1.0000
  H   H46       1.0  0.56670  0.03365  0.65408  1.0000
  H   H47       1.0  0.06670  0.46635  0.15408  1.0000
  H   H48       1.0  0.43331  0.96635  0.34592  1.0000
  C   C1        1.0  0.14207  0.91336  0.18484  1.0000
  C   C2        1.0  0.35793  0.41336  0.31516  1.0000
  C   C3        1.0  0.85792  0.08663  0.81516  1.0000
  C   C4        1.0  0.64208  0.58664  0.68484  1.0000
  C   C5        1.0  0.28448  0.84811  0.21230  1.0000
  C   C6        1.0  0.21552  0.34811  0.28770  1.0000
  C   C7        1.0  0.71551  0.15189  0.78769  1.0000
  C   C8        1.0  0.78449  0.65190  0.71230  1.0000
  C   C9        1.0  0.26469  0.75904  0.27075  1.0000
  C   C10       1.0  0.23531  0.25904  0.22925  1.0000
  C   C11       1.0  0.73531  0.24095  0.72925  1.0000
  C   C12       1.0  0.76469  0.74096  0.77075  1.0000
  C   C13       1.0  0.10611  0.74079  0.30120  1.0000
  C   C14       1.0  0.39388  0.24079  0.19880  1.0000
  C   C15       1.0  0.89389  0.25920  0.69880  1.0000
  C   C16       1.0  0.60612  0.75921  0.80120  1.0000
  C   C17       1.0  0.97083  0.80983  0.27054  1.0000
  C   C18       1.0  0.52917  0.30983  0.22946  1.0000
  C   C19       1.0  0.02917  0.19016  0.72946  1.0000
  C   C20       1.0  0.47084  0.69017  0.77054  1.0000
  C   C21       1.0  0.45720  0.87882  0.18688  1.0000
  C   C22       1.0  0.04280  0.37882  0.31312  1.0000
  C   C23       1.0  0.54280  0.12117  0.81312  1.0000
  C   C24       1.0  0.95721  0.62119  0.68688  1.0000
  C   C25       1.0  0.02431  0.30731  0.95961  1.0000
  C   C26       1.0  0.47569  0.80731  0.54039  1.0000
  C   C27       1.0  0.97570  0.69269  0.04039  1.0000
  C   C28       1.0  0.52431  0.19269  0.45960  1.0000
  C   C29       1.0  0.87145  0.28388  0.99595  1.0000
  C   C30       1.0  0.62854  0.78388  0.50405  1.0000
  C   C31       1.0  0.12855  0.71612  0.00405  1.0000
  C   C32       1.0  0.37145  0.21613  0.49595  1.0000
  C   C33       1.0  0.73335  0.35482  0.97515  1.0000
  C   C34       1.0  0.76665  0.85482  0.52485  1.0000
  C   C35       1.0  0.26666  0.64518  0.02485  1.0000
  C   C36       1.0  0.23335  0.14518  0.47515  1.0000
  C   C37       1.0  0.75362  0.44602  0.92046  1.0000
  C   C38       1.0  0.74637  0.94602  0.57954  1.0000
  C   C39       1.0  0.24638  0.55398  0.07954  1.0000
  C   C40       1.0  0.25363  0.05397  0.42046  1.0000
  C   C41       1.0  0.91120  0.46283  0.88802  1.0000
  C   C42       1.0  0.58880  0.96283  0.61198  1.0000
  C   C43       1.0  0.08880  0.53717  0.11198  1.0000
  C   C44       1.0  0.41121  0.03717  0.38802  1.0000
  C   C45       1.0  0.85273  0.18389  0.05306  1.0000
  C   C46       1.0  0.64726  0.68390  0.44694  1.0000
  C   C47       1.0  0.14727  0.81610  0.94694  1.0000
  C   C48       1.0  0.35273  0.31611  0.55306  1.0000
  N   N1        1.0  0.98804  0.89388  0.21197  1.0000
  N   N2        1.0  0.51196  0.39388  0.28803  1.0000
  N   N3        1.0  0.01196  0.10612  0.78803  1.0000
  N   N4        1.0  0.48804  0.60612  0.71197  1.0000
  N   N5        1.0  0.04380  0.39474  0.90617  1.0000
  N   N6        1.0  0.45620  0.89474  0.59383  1.0000
  N   N7        1.0  0.95620  0.60526  0.09383  1.0000
  N   N8        1.0  0.54380  0.10526  0.40616  1.0000
  O   O1        1.0  0.81602  0.09469  0.30440  1.0000
  O   O2        1.0  0.68398  0.59469  0.19560  1.0000
  O   O3        1.0  0.18398  0.90531  0.69560  1.0000
  O   O4        1.0  0.31602  0.40531  0.80440  1.0000
  O   O5        1.0  0.46997  0.97304  0.15001  1.0000
  O   O6        1.0  0.03003  0.47304  0.34999  1.0000
  O   O7        1.0  0.53003  0.02696  0.84999  1.0000
  O   O8        1.0  0.96998  0.52697  0.65001  1.0000
  O   O9        1.0  0.72839  0.91844  0.00127  1.0000
  O   O10       1.0  0.77161  0.41844  0.49874  1.0000
  O   O11       1.0  0.27160  0.08156  0.99874  1.0000
  O   O12       1.0  0.22839  0.58156  0.50127  1.0000
  O   O13       1.0  0.58288  0.81682  0.20846  1.0000
  O   O14       1.0  0.91712  0.31682  0.29154  1.0000
  O   O15       1.0  0.41712  0.18318  0.79155  1.0000
  O   O16       1.0  0.08288  0.68319  0.70846  1.0000
  O   O17       1.0  0.70787  0.16656  0.08076  1.0000
  O   O18       1.0  0.79212  0.66656  0.41924  1.0000
  O   O19       1.0  0.29212  0.83343  0.91924  1.0000
  O   O20       1.0  0.20787  0.33344  0.58076  1.0000
  O   O21       1.0  0.97961  0.11986  0.07164  1.0000
  O   O22       1.0  0.52038  0.61985  0.42836  1.0000
  O   O23       1.0  0.02039  0.88015  0.92836  1.0000
  O   O24       1.0  0.47961  0.38016  0.57163  1.0000
