data_image0
_chemical_formula_structural       La2H54C32O18
_chemical_formula_sum              "La2 H54 C32 O18"
_cell_length_a       8.59176
_cell_length_b       8.97834
_cell_length_c       13.092
_cell_angle_alpha    100.71
_cell_angle_beta     103.644
_cell_angle_gamma    97.9346

_space_group_name_H-M_alt    "P 1"
_space_group_IT_number       1

loop_
  _space_group_symop_operation_xyz
  'x, y, z'

loop_
  _atom_site_type_symbol
  _atom_site_label
  _atom_site_symmetry_multiplicity
  _atom_site_fract_x
  _atom_site_fract_y
  _atom_site_fract_z
  _atom_site_occupancy
  La  La1       1.0  0.75072  0.98295  0.00417  1.0000
  La  La2       1.0  0.24928  0.01705  0.99583  1.0000
  H   H1        1.0  0.73719  0.54864  0.96328  1.0000
  H   H2        1.0  0.26281  0.45135  0.03672  1.0000
  H   H3        1.0  0.15982  0.66116  0.19530  1.0000
  H   H4        1.0  0.84019  0.33884  0.80470  1.0000
  H   H5        1.0  0.00686  0.57765  0.24704  1.0000
  H   H6        1.0  0.99314  0.42235  0.75296  1.0000
  H   H7        1.0  0.14771  0.92422  0.28932  1.0000
  H   H8        1.0  0.85229  0.07578  0.71068  1.0000
  H   H9        1.0  0.97977  0.85139  0.33312  1.0000
  H   H10       1.0  0.02023  0.14861  0.66688  1.0000
  H   H11       1.0  0.15622  0.69692  0.43855  1.0000
  H   H12       1.0  0.84378  0.30308  0.56145  1.0000
  H   H13       1.0  0.32465  0.78069  0.39929  1.0000
  H   H14       1.0  0.67535  0.21931  0.60071  1.0000
  H   H15       1.0  0.12650  0.96063  0.52756  1.0000
  H   H16       1.0  0.87351  0.03938  0.47244  1.0000
  H   H17       1.0  0.29782  0.04407  0.49118  1.0000
  H   H18       1.0  0.70219  0.95594  0.50882  1.0000
  H   H19       1.0  0.30111  0.80743  0.63323  1.0000
  H   H20       1.0  0.69889  0.19257  0.36676  1.0000
  H   H21       1.0  0.47384  0.89833  0.60100  1.0000
  H   H22       1.0  0.52617  0.10167  0.39900  1.0000
  H   H23       1.0  0.43048  0.15678  0.69296  1.0000
  H   H24       1.0  0.56952  0.84322  0.30704  1.0000
  H   H25       1.0  0.26594  0.06078  0.73168  1.0000
  H   H26       1.0  0.73406  0.93921  0.26832  1.0000
  H   H27       1.0  0.21011  0.37965  0.25283  1.0000
  H   H28       1.0  0.78989  0.62035  0.74717  1.0000
  H   H29       1.0  0.26641  0.20574  0.27658  1.0000
  H   H30       1.0  0.73359  0.79426  0.72342  1.0000
  H   H31       1.0  0.07590  0.19510  0.39976  1.0000
  H   H32       1.0  0.92410  0.80490  0.60024  1.0000
  H   H33       1.0  0.03415  0.37574  0.38110  1.0000
  H   H34       1.0  0.96585  0.62426  0.61890  1.0000
  H   H35       1.0  0.33276  0.49351  0.45827  1.0000
  H   H36       1.0  0.66724  0.50648  0.54173  1.0000
  H   H37       1.0  0.37503  0.31174  0.47472  1.0000
  H   H38       1.0  0.62497  0.68826  0.52528  1.0000
  H   H39       1.0  0.15756  0.48974  0.58657  1.0000
  H   H40       1.0  0.84244  0.51026  0.41343  1.0000
  H   H41       1.0  0.19437  0.30507  0.60087  1.0000
  H   H42       1.0  0.80563  0.69492  0.39913  1.0000
  H   H43       1.0  0.45596  0.60008  0.66109  1.0000
  H   H44       1.0  0.54404  0.39992  0.33891  1.0000
  H   H45       1.0  0.49568  0.41550  0.67290  1.0000
  H   H46       1.0  0.50432  0.58450  0.32710  1.0000
  H   H47       1.0  0.28427  0.59338  0.79205  1.0000
  H   H48       1.0  0.71573  0.40662  0.20795  1.0000
  H   H49       1.0  0.32329  0.40462  0.80216  1.0000
  H   H50       1.0  0.67671  0.59538  0.19784  1.0000
  H   H51       1.0  0.84598  0.36510  0.02596  1.0000
  H   H52       1.0  0.15402  0.63489  0.97404  1.0000
  H   H53       1.0  0.67158  0.29048  0.95373  1.0000
  H   H54       1.0  0.32842  0.70951  0.04627  1.0000
  C   C1        1.0  0.92306  0.69188  0.12246  1.0000
  C   C2        1.0  0.07694  0.30812  0.87754  1.0000
  C   C3        1.0  0.05073  0.68266  0.22181  1.0000
  C   C4        1.0  0.94927  0.31735  0.77819  1.0000
  C   C5        1.0  0.09274  0.82419  0.31467  1.0000
  C   C6        1.0  0.90726  0.17581  0.68533  1.0000
  C   C7        1.0  0.20846  0.80170  0.41615  1.0000
  C   C8        1.0  0.79154  0.19831  0.58385  1.0000
  C   C9        1.0  0.24312  0.93894  0.51194  1.0000
  C   C10       1.0  0.75688  0.06106  0.48806  1.0000
  C   C11       1.0  0.35463  0.91423  0.61416  1.0000
  C   C12       1.0  0.64538  0.08577  0.38584  1.0000
  C   C13       1.0  0.38097  0.04779  0.71149  1.0000
  C   C14       1.0  0.61903  0.95220  0.28851  1.0000
  C   C15       1.0  0.50238  0.02869  0.80985  1.0000
  C   C16       1.0  0.49761  0.97131  0.19015  1.0000
  C   C17       1.0  0.02515  0.18177  0.18248  1.0000
  C   C18       1.0  0.97485  0.81823  0.81752  1.0000
  C   C19       1.0  0.16704  0.27138  0.27467  1.0000
  C   C20       1.0  0.83296  0.72862  0.72533  1.0000
  C   C21       1.0  0.12883  0.30431  0.38354  1.0000
  C   C22       1.0  0.87117  0.69569  0.61646  1.0000
  C   C23       1.0  0.28064  0.38379  0.47438  1.0000
  C   C24       1.0  0.71936  0.61621  0.52562  1.0000
  C   C25       1.0  0.24874  0.41450  0.58535  1.0000
  C   C26       1.0  0.75126  0.58550  0.41465  1.0000
  C   C27       1.0  0.40337  0.48920  0.67513  1.0000
  C   C28       1.0  0.59663  0.51080  0.32487  1.0000
  C   C29       1.0  0.37184  0.51585  0.78717  1.0000
  C   C30       1.0  0.62816  0.48415  0.21283  1.0000
  C   C31       1.0  0.52810  0.58848  0.87224  1.0000
  C   C32       1.0  0.47190  0.41151  0.12776  1.0000
  O   O1        1.0  0.86870  0.81500  0.11845  1.0000
  O   O2        1.0  0.13130  0.18500  0.88155  1.0000
  O   O3        1.0  0.87518  0.56943  0.04623  1.0000
  O   O4        1.0  0.12482  0.43057  0.95377  1.0000
  O   O5        1.0  0.46817  0.05143  0.90196  1.0000
  O   O6        1.0  0.53183  0.94857  0.09804  1.0000
  O   O7        1.0  0.63794  0.99413  0.80320  1.0000
  O   O8        1.0  0.36206  0.00587  0.19680  1.0000
  O   O9        1.0  0.88164  0.16263  0.19262  1.0000
  O   O10       1.0  0.11836  0.83737  0.80738  1.0000
  O   O11       1.0  0.05368  0.12460  0.09149  1.0000
  O   O12       1.0  0.94632  0.87539  0.90852  1.0000
  O   O13       1.0  0.56472  0.73044  0.91022  1.0000
  O   O14       1.0  0.43528  0.26956  0.08978  1.0000
  O   O15       1.0  0.62465  0.49290  0.89931  1.0000
  O   O16       1.0  0.37535  0.50710  0.10069  1.0000
  O   O17       1.0  0.77340  0.26392  0.99016  1.0000
  O   O18       1.0  0.22660  0.73608  0.00984  1.0000
