data_image0
_chemical_formula_structural       Ni2H34C50N6O10
_chemical_formula_sum              "Ni2 H34 C50 N6 O10"
_cell_length_a       9.36151
_cell_length_b       10.11
_cell_length_c       11.973
_cell_angle_alpha    75.7016
_cell_angle_beta     89.5533
_cell_angle_gamma    67.1778

_space_group_name_H-M_alt    "P 1"
_space_group_IT_number       1

loop_
  _space_group_symop_operation_xyz
  'x, y, z'

loop_
  _atom_site_type_symbol
  _atom_site_label
  _atom_site_symmetry_multiplicity
  _atom_site_fract_x
  _atom_site_fract_y
  _atom_site_fract_z
  _atom_site_occupancy
  Ni  Ni1       1.0  0.76999  0.93764  0.72943  1.0000
  Ni  Ni2       1.0  0.23000  0.06235  0.27056  1.0000
  H   H1        1.0  0.61842  0.98406  0.49465  1.0000
  H   H2        1.0  0.38159  0.01594  0.50535  1.0000
  H   H3        1.0  0.61186  0.39000  0.26891  1.0000
  H   H4        1.0  0.38814  0.61000  0.73109  1.0000
  H   H5        1.0  0.85237  0.20408  0.61232  1.0000
  H   H6        1.0  0.14763  0.79591  0.38768  1.0000
  H   H7        1.0  0.62520  0.52212  0.54694  1.0000
  H   H8        1.0  0.37481  0.47787  0.45306  1.0000
  H   H9        1.0  0.69052  0.74072  0.53749  1.0000
  H   H10       1.0  0.30948  0.25927  0.46252  1.0000
  H   H11       1.0  0.88402  0.78552  0.40787  1.0000
  H   H12       1.0  0.11596  0.21448  0.59215  1.0000
  H   H13       1.0  0.01374  0.60946  0.28821  1.0000
  H   H14       1.0  0.98626  0.39056  0.71179  1.0000
  H   H15       1.0  0.13576  0.82145  0.77240  1.0000
  H   H16       1.0  0.86425  0.17853  0.22761  1.0000
  H   H17       1.0  0.31626  0.89736  0.86819  1.0000
  H   H18       1.0  0.68378  0.10262  0.13183  1.0000
  H   H19       1.0  0.20286  0.12800  0.94239  1.0000
  H   H20       1.0  0.79714  0.87202  0.05761  1.0000
  H   H21       1.0  0.96204  0.35236  0.95535  1.0000
  H   H22       1.0  0.03795  0.64764  0.04464  1.0000
  H   H23       1.0  0.67433  0.47368  0.94118  1.0000
  H   H24       1.0  0.32567  0.52632  0.05881  1.0000
  H   H25       1.0  0.41296  0.45365  0.91457  1.0000
  H   H26       1.0  0.58703  0.54635  0.08543  1.0000
  H   H27       1.0  0.26668  0.32653  0.84404  1.0000
  H   H28       1.0  0.73329  0.67345  0.15596  1.0000
  H   H29       1.0  0.41201  0.11074  0.75976  1.0000
  H   H30       1.0  0.58799  0.88924  0.24023  1.0000
  H   H31       1.0  0.87909  0.69661  0.87678  1.0000
  H   H32       1.0  0.12089  0.30341  0.12321  1.0000
  H   H33       1.0  0.69302  0.75741  0.87487  1.0000
  H   H34       1.0  0.30697  0.24259  0.12511  1.0000
  C   C1        1.0  0.65305  0.07729  0.47575  1.0000
  C   C2        1.0  0.34697  0.92270  0.52425  1.0000
  C   C3        1.0  0.60237  0.18604  0.36995  1.0000
  C   C4        1.0  0.39763  0.81398  0.63004  1.0000
  C   C5        1.0  0.65115  0.30314  0.35017  1.0000
  C   C6        1.0  0.34886  0.69686  0.64982  1.0000
  C   C7        1.0  0.74360  0.31121  0.43731  1.0000
  C   C8        1.0  0.25641  0.68878  0.56269  1.0000
  C   C9        1.0  0.78341  0.19960  0.54161  1.0000
  C   C10       1.0  0.21660  0.80041  0.45839  1.0000
  C   C11       1.0  0.78654  0.44011  0.42611  1.0000
  C   C12       1.0  0.21343  0.55990  0.57389  1.0000
  C   C13       1.0  0.71155  0.54150  0.49091  1.0000
  C   C14       1.0  0.28845  0.45849  0.50910  1.0000
  C   C15       1.0  0.74578  0.66532  0.48430  1.0000
  C   C16       1.0  0.25420  0.33468  0.51571  1.0000
  C   C17       1.0  0.85499  0.69017  0.41133  1.0000
  C   C18       1.0  0.14499  0.30984  0.58869  1.0000
  C   C19       1.0  0.92804  0.59169  0.34531  1.0000
  C   C20       1.0  0.07195  0.40832  0.65470  1.0000
  C   C21       1.0  0.89595  0.46561  0.35226  1.0000
  C   C22       1.0  0.10407  0.53437  0.64776  1.0000
  C   C23       1.0  0.48595  0.18267  0.28496  1.0000
  C   C24       1.0  0.51406  0.81733  0.71503  1.0000
  C   C25       1.0  0.98551  0.36199  0.28081  1.0000
  C   C26       1.0  0.01451  0.63801  0.71919  1.0000
  C   C27       1.0  0.09098  0.91856  0.80659  1.0000
  C   C28       1.0  0.90902  0.08143  0.19341  1.0000
  C   C29       1.0  0.19142  0.96421  0.85904  1.0000
  C   C30       1.0  0.80859  0.03579  0.14096  1.0000
  C   C31       1.0  0.12966  0.09035  0.89897  1.0000
  C   C32       1.0  0.87033  0.90967  0.10103  1.0000
  C   C33       1.0  0.96635  0.16987  0.88775  1.0000
  C   C34       1.0  0.03363  0.83014  0.11226  1.0000
  C   C35       1.0  0.87445  0.11154  0.83854  1.0000
  C   C36       1.0  0.12554  0.88847  0.16145  1.0000
  C   C37       1.0  0.89055  0.30367  0.92363  1.0000
  C   C38       1.0  0.10944  0.69634  0.07636  1.0000
  C   C39       1.0  0.73166  0.36968  0.91716  1.0000
  C   C40       1.0  0.26834  0.63033  0.08282  1.0000
  C   C41       1.0  0.63650  0.30537  0.87746  1.0000
  C   C42       1.0  0.36352  0.69462  0.12254  1.0000
  C   C43       1.0  0.70826  0.17863  0.83456  1.0000
  C   C44       1.0  0.29175  0.82138  0.16543  1.0000
  C   C45       1.0  0.47352  0.35808  0.88054  1.0000
  C   C46       1.0  0.52649  0.64191  0.11946  1.0000
  C   C47       1.0  0.39220  0.28712  0.84140  1.0000
  C   C48       1.0  0.60779  0.71288  0.15860  1.0000
  C   C49       1.0  0.47279  0.16601  0.79545  1.0000
  C   C50       1.0  0.52721  0.83399  0.20454  1.0000
  N   N1        1.0  0.73979  0.08462  0.56110  1.0000
  N   N2        1.0  0.26021  0.91539  0.43889  1.0000
  N   N3        1.0  0.93670  0.98963  0.79661  1.0000
  N   N4        1.0  0.06331  0.01036  0.20338  1.0000
  N   N5        1.0  0.62669  0.11287  0.79220  1.0000
  N   N6        1.0  0.37332  0.88712  0.20779  1.0000
  O   O1        1.0  0.46202  0.26417  0.18236  1.0000
  O   O2        1.0  0.53796  0.73584  0.81764  1.0000
  O   O3        1.0  0.41806  0.09619  0.32794  1.0000
  O   O4        1.0  0.58192  0.90382  0.67206  1.0000
  O   O5        1.0  0.06698  0.22709  0.33650  1.0000
  O   O6        1.0  0.93302  0.77290  0.66350  1.0000
  O   O7        1.0  0.97666  0.41795  0.17254  1.0000
  O   O8        1.0  0.02335  0.58207  0.82746  1.0000
  O   O9        1.0  0.78391  0.78221  0.88947  1.0000
  O   O10       1.0  0.21611  0.21776  0.11057  1.0000
