data_image0
_chemical_formula_structural       Cd2H34C50N6O10
_chemical_formula_sum              "Cd2 H34 C50 N6 O10"
_cell_length_a       9.28724
_cell_length_b       10.2183
_cell_length_c       12.477
_cell_angle_alpha    76.791
_cell_angle_beta     89.0043
_cell_angle_gamma    67.441

_space_group_name_H-M_alt    "P 1"
_space_group_IT_number       1

loop_
  _space_group_symop_operation_xyz
  'x, y, z'

loop_
  _atom_site_type_symbol
  _atom_site_label
  _atom_site_symmetry_multiplicity
  _atom_site_fract_x
  _atom_site_fract_y
  _atom_site_fract_z
  _atom_site_occupancy
  Cd  Cd1       1.0  0.22222  0.07111  0.26296  1.0000
  Cd  Cd2       1.0  0.77778  0.92889  0.73704  1.0000
  H   H1        1.0  0.37285  0.01102  0.50784  1.0000
  H   H2        1.0  0.62715  0.98898  0.49216  1.0000
  H   H3        1.0  0.37460  0.61355  0.71781  1.0000
  H   H4        1.0  0.62540  0.38644  0.28218  1.0000
  H   H5        1.0  0.15539  0.78244  0.38608  1.0000
  H   H6        1.0  0.84461  0.21756  0.61392  1.0000
  H   H7        1.0  0.01361  0.36769  0.71400  1.0000
  H   H8        1.0  0.98639  0.63231  0.28600  1.0000
  H   H9        1.0  0.13332  0.20100  0.58886  1.0000
  H   H10       1.0  0.86668  0.79900  0.41114  1.0000
  H   H11       1.0  0.30932  0.25895  0.45076  1.0000
  H   H12       1.0  0.69068  0.74105  0.54924  1.0000
  H   H13       1.0  0.36552  0.48094  0.43759  1.0000
  H   H14       1.0  0.63448  0.51906  0.56241  1.0000
  H   H15       1.0  0.84200  0.17146  0.20271  1.0000
  H   H16       1.0  0.15800  0.82854  0.79729  1.0000
  H   H17       1.0  0.66032  0.09153  0.11493  1.0000
  H   H18       1.0  0.33968  0.90847  0.88507  1.0000
  H   H19       1.0  0.77568  0.85814  0.04756  1.0000
  H   H20       1.0  0.22432  0.14186  0.95244  1.0000
  H   H21       1.0  0.00929  0.64241  0.03163  1.0000
  H   H22       1.0  0.99072  0.35759  0.96837  1.0000
  H   H23       1.0  0.29747  0.51107  0.05074  1.0000
  H   H24       1.0  0.70253  0.48893  0.94926  1.0000
  H   H25       1.0  0.56124  0.50823  0.09100  1.0000
  H   H26       1.0  0.43876  0.49177  0.90900  1.0000
  H   H27       1.0  0.72303  0.62691  0.15587  1.0000
  H   H28       1.0  0.27697  0.37309  0.84413  1.0000
  H   H29       1.0  0.58421  0.85246  0.22813  1.0000
  H   H30       1.0  0.41579  0.14755  0.77187  1.0000
  H   H31       1.0  0.31867  0.26685  0.13340  1.0000
  H   H32       1.0  0.68132  0.73315  0.86660  1.0000
  H   H33       1.0  0.12979  0.33299  0.12943  1.0000
  H   H34       1.0  0.87021  0.66701  0.87057  1.0000
  C   C1        1.0  0.33887  0.91810  0.52354  1.0000
  C   C2        1.0  0.66113  0.08190  0.47646  1.0000
  C   C3        1.0  0.38425  0.81426  0.62451  1.0000
  C   C4        1.0  0.61575  0.18574  0.37549  1.0000
  C   C5        1.0  0.33897  0.69642  0.64013  1.0000
  C   C6        1.0  0.66103  0.30358  0.35987  1.0000
  C   C7        1.0  0.25532  0.68189  0.55457  1.0000
  C   C8        1.0  0.74468  0.31810  0.44543  1.0000
  C   C9        1.0  0.21888  0.78985  0.45577  1.0000
  C   C10       1.0  0.78112  0.21015  0.54423  1.0000
  C   C11       1.0  0.21674  0.55201  0.56499  1.0000
  C   C12       1.0  0.78326  0.44799  0.43501  1.0000
  C   C13       1.0  0.11762  0.51898  0.64369  1.0000
  C   C14       1.0  0.88238  0.48102  0.35631  1.0000
  C   C15       1.0  0.09103  0.39101  0.65275  1.0000
  C   C16       1.0  0.90897  0.60899  0.34725  1.0000
  C   C17       1.0  0.15854  0.29800  0.58356  1.0000
  C   C18       1.0  0.84146  0.70200  0.41644  1.0000
  C   C19       1.0  0.25692  0.33065  0.50555  1.0000
  C   C20       1.0  0.74307  0.66934  0.49445  1.0000
  C   C21       1.0  0.28646  0.45631  0.49707  1.0000
  C   C22       1.0  0.71354  0.54369  0.50293  1.0000
  C   C23       1.0  0.88688  0.07266  0.17190  1.0000
  C   C24       1.0  0.11312  0.92734  0.82810  1.0000
  C   C25       1.0  0.78555  0.02602  0.12314  1.0000
  C   C26       1.0  0.21445  0.97398  0.87686  1.0000
  C   C27       1.0  0.84846  0.89876  0.08699  1.0000
  C   C28       1.0  0.15154  0.10124  0.91301  1.0000
  C   C29       1.0  0.01222  0.81970  0.09835  1.0000
  C   C30       1.0  0.98778  0.18030  0.90165  1.0000
  C   C31       1.0  0.10584  0.87732  0.14572  1.0000
  C   C32       1.0  0.89416  0.12268  0.85428  1.0000
  C   C33       1.0  0.08430  0.68613  0.06419  1.0000
  C   C34       1.0  0.91569  0.31387  0.93581  1.0000
  C   C35       1.0  0.24306  0.61464  0.07402  1.0000
  C   C36       1.0  0.75694  0.38536  0.92598  1.0000
  C   C37       1.0  0.34180  0.67349  0.11513  1.0000
  C   C38       1.0  0.65820  0.32651  0.88487  1.0000
  C   C39       1.0  0.27452  0.80409  0.15236  1.0000
  C   C40       1.0  0.72548  0.19591  0.84764  1.0000
  C   C41       1.0  0.50661  0.60932  0.11797  1.0000
  C   C42       1.0  0.49339  0.39068  0.88203  1.0000
  C   C43       1.0  0.59583  0.67399  0.15505  1.0000
  C   C44       1.0  0.40417  0.32602  0.84495  1.0000
  C   C45       1.0  0.51895  0.80062  0.19373  1.0000
  C   C46       1.0  0.48105  0.19938  0.80627  1.0000
  C   C47       1.0  0.49144  0.82338  0.70966  1.0000
  C   C48       1.0  0.50856  0.17662  0.29034  1.0000
  C   C49       1.0  0.03007  0.62072  0.71488  1.0000
  C   C50       1.0  0.96993  0.37928  0.28512  1.0000
  N   N1        1.0  0.25794  0.90606  0.44083  1.0000
  N   N2        1.0  0.74206  0.09394  0.55917  1.0000
  N   N3        1.0  0.04148  0.00075  0.18280  1.0000
  N   N4        1.0  0.95852  0.99925  0.81720  1.0000
  N   N5        1.0  0.36391  0.86331  0.19210  1.0000
  N   N6        1.0  0.63609  0.13669  0.80790  1.0000
  O   O1        1.0  0.54561  0.92242  0.67802  1.0000
  O   O2        1.0  0.45439  0.07758  0.32199  1.0000
  O   O3        1.0  0.52183  0.73250  0.80259  1.0000
  O   O4        1.0  0.47817  0.26749  0.19741  1.0000
  O   O5        1.0  0.96606  0.75630  0.66603  1.0000
  O   O6        1.0  0.03394  0.24370  0.33397  1.0000
  O   O7        1.0  0.02291  0.56434  0.81546  1.0000
  O   O8        1.0  0.97709  0.43566  0.18454  1.0000
  O   O9        1.0  0.22336  0.25470  0.10810  1.0000
  O   O10       1.0  0.77664  0.74530  0.89190  1.0000
