data_image0
_chemical_formula_structural       Cd3H50C70N14Cl2O8
_chemical_formula_sum              "Cd3 H50 C70 N14 Cl2 O8"
_cell_length_a       9.52942
_cell_length_b       13.6273
_cell_length_c       15.712
_cell_angle_alpha    109.475
_cell_angle_beta     94.6272
_cell_angle_gamma    90.2567

_space_group_name_H-M_alt    "P 1"
_space_group_IT_number       1

loop_
  _space_group_symop_operation_xyz
  'x, y, z'

loop_
  _atom_site_type_symbol
  _atom_site_label
  _atom_site_symmetry_multiplicity
  _atom_site_fract_x
  _atom_site_fract_y
  _atom_site_fract_z
  _atom_site_occupancy
  Cd  Cd1       1.0  0.50000  0.50001  0.00001  1.0000
  Cd  Cd2       1.0  0.80786  0.58537  0.83812  1.0000
  Cd  Cd3       1.0  0.19214  0.41463  0.16187  1.0000
  H   H1        1.0  0.35288  0.04740  0.78349  1.0000
  H   H2        1.0  0.64713  0.95260  0.21651  1.0000
  H   H3        1.0  0.22617  0.20467  0.86630  1.0000
  H   H4        1.0  0.77384  0.79534  0.13370  1.0000
  H   H5        1.0  0.95467  0.16878  0.62350  1.0000
  H   H6        1.0  0.04533  0.83121  0.37651  1.0000
  H   H7        1.0  0.08999  0.01665  0.53947  1.0000
  H   H8        1.0  0.91001  0.98334  0.46054  1.0000
  H   H9        1.0  0.00360  0.25593  0.92895  1.0000
  H   H10       1.0  0.99640  0.74407  0.07105  1.0000
  H   H11       1.0  0.86637  0.44324  0.97395  1.0000
  H   H12       1.0  0.13363  0.55677  0.02605  1.0000
  H   H13       1.0  0.96522  0.36161  0.70260  1.0000
  H   H14       1.0  0.03479  0.63839  0.29739  1.0000
  H   H15       1.0  0.34257  0.04175  0.50856  1.0000
  H   H16       1.0  0.65742  0.95825  0.49144  1.0000
  H   H17       1.0  0.38440  0.97558  0.34733  1.0000
  H   H18       1.0  0.61560  0.02442  0.65267  1.0000
  H   H19       1.0  0.32995  0.66074  0.34584  1.0000
  H   H20       1.0  0.67004  0.33926  0.65416  1.0000
  H   H21       1.0  0.29275  0.72601  0.50731  1.0000
  H   H22       1.0  0.70724  0.27399  0.49270  1.0000
  H   H23       1.0  0.32681  0.90180  0.19539  1.0000
  H   H24       1.0  0.67320  0.09821  0.80461  1.0000
  H   H25       1.0  0.39500  0.76225  0.03155  1.0000
  H   H26       1.0  0.60501  0.23774  0.96845  1.0000
  H   H27       1.0  0.44729  0.61634  0.22939  1.0000
  H   H28       1.0  0.55270  0.38367  0.77062  1.0000
  H   H29       1.0  0.52548  0.84106  0.66660  1.0000
  H   H30       1.0  0.47451  0.15893  0.33339  1.0000
  H   H31       1.0  0.52968  0.71401  0.74923  1.0000
  H   H32       1.0  0.47031  0.28599  0.25076  1.0000
  H   H33       1.0  0.07751  0.72608  0.75294  1.0000
  H   H34       1.0  0.92249  0.27393  0.24706  1.0000
  H   H35       1.0  0.07447  0.85324  0.66953  1.0000
  H   H36       1.0  0.92553  0.14676  0.33047  1.0000
  H   H37       1.0  0.10865  0.55019  0.73996  1.0000
  H   H38       1.0  0.89135  0.44980  0.26004  1.0000
  H   H39       1.0  0.19963  0.43843  0.85398  1.0000
  H   H40       1.0  0.80038  0.56157  0.14603  1.0000
  H   H41       1.0  0.50065  0.67704  0.88323  1.0000
  H   H42       1.0  0.49936  0.32296  0.11676  1.0000
  H   H43       1.0  0.75293  0.97325  0.92988  1.0000
  H   H44       1.0  0.24706  0.02675  0.07013  1.0000
  H   H45       1.0  0.84919  0.15357  0.02295  1.0000
  H   H46       1.0  0.15080  0.84643  0.97706  1.0000
  H   H47       1.0  0.40030  0.47888  0.63456  1.0000
  H   H48       1.0  0.59972  0.52112  0.36543  1.0000
  H   H49       1.0  0.24391  0.45729  0.49194  1.0000
  H   H50       1.0  0.75610  0.54270  0.50804  1.0000
  C   C1        1.0  0.22851  0.02076  0.65610  1.0000
  C   C2        1.0  0.77149  0.97924  0.34391  1.0000
  C   C3        1.0  0.26639  0.07456  0.74837  1.0000
  C   C4        1.0  0.73361  0.92544  0.25163  1.0000
  C   C5        1.0  0.19388  0.16125  0.79532  1.0000
  C   C6        1.0  0.80612  0.83875  0.20469  1.0000
  C   C7        1.0  0.08104  0.19463  0.75029  1.0000
  C   C8        1.0  0.91897  0.80537  0.24971  1.0000
  C   C9        1.0  0.04444  0.14381  0.65787  1.0000
  C   C10       1.0  0.95556  0.85619  0.34213  1.0000
  C   C11       1.0  0.11914  0.05786  0.61101  1.0000
  C   C12       1.0  0.88085  0.94214  0.38900  1.0000
  C   C13       1.0  0.97515  0.30551  0.88940  1.0000
  C   C14       1.0  0.02485  0.69450  0.11060  1.0000
  C   C15       1.0  0.90782  0.39804  0.91098  1.0000
  C   C16       1.0  0.09219  0.60197  0.08902  1.0000
  C   C17       1.0  0.95447  0.35901  0.76997  1.0000
  C   C18       1.0  0.04553  0.64099  0.23002  1.0000
  C   C19       1.0  0.31310  0.88936  0.52054  1.0000
  C   C20       1.0  0.68690  0.11064  0.47946  1.0000
  C   C21       1.0  0.33739  0.95810  0.47282  1.0000
  C   C22       1.0  0.66261  0.04190  0.52718  1.0000
  C   C23       1.0  0.36060  0.92051  0.38141  1.0000
  C   C24       1.0  0.63939  0.07949  0.61859  1.0000
  C   C25       1.0  0.35899  0.81313  0.33485  1.0000
  C   C26       1.0  0.64100  0.18687  0.66515  1.0000
  C   C27       1.0  0.33375  0.74431  0.38141  1.0000
  C   C28       1.0  0.66624  0.25569  0.61859  1.0000
  C   C29       1.0  0.31154  0.78152  0.47282  1.0000
  C   C30       1.0  0.68845  0.21849  0.52718  1.0000
  C   C31       1.0  0.36478  0.82342  0.17823  1.0000
  C   C32       1.0  0.63522  0.17658  0.82177  1.0000
  C   C33       1.0  0.39722  0.75285  0.09746  1.0000
  C   C34       1.0  0.60278  0.24715  0.90255  1.0000
  C   C35       1.0  0.42560  0.67443  0.19704  1.0000
  C   C36       1.0  0.57438  0.32557  0.80296  1.0000
  C   C37       1.0  0.29960  0.85405  0.66227  1.0000
  C   C38       1.0  0.70040  0.14595  0.33773  1.0000
  C   C39       1.0  0.42755  0.81577  0.68551  1.0000
  C   C40       1.0  0.57245  0.18422  0.31449  1.0000
  C   C41       1.0  0.43004  0.74415  0.73140  1.0000
  C   C42       1.0  0.56995  0.25585  0.26859  1.0000
  C   C43       1.0  0.30313  0.71109  0.75382  1.0000
  C   C44       1.0  0.69686  0.28891  0.24618  1.0000
  C   C45       1.0  0.17467  0.75028  0.73234  1.0000
  C   C46       1.0  0.82533  0.24972  0.26766  1.0000
  C   C47       1.0  0.17357  0.82157  0.68637  1.0000
  C   C48       1.0  0.82643  0.17843  0.31363  1.0000
  C   C49       1.0  0.20206  0.55836  0.78615  1.0000
  C   C50       1.0  0.79794  0.44163  0.21386  1.0000
  C   C51       1.0  0.24793  0.50429  0.84215  1.0000
  C   C52       1.0  0.75208  0.49571  0.15786  1.0000
  C   C53       1.0  0.40681  0.62669  0.86076  1.0000
  C   C54       1.0  0.59319  0.37331  0.13924  1.0000
  C   C55       1.0  0.86110  0.98623  0.96073  1.0000
  C   C56       1.0  0.13889  0.01377  0.03928  1.0000
  C   C57       1.0  0.94679  0.89997  0.94801  1.0000
  C   C58       1.0  0.05320  0.10003  0.05199  1.0000
  C   C59       1.0  0.91392  0.08549  0.01233  1.0000
  C   C60       1.0  0.08607  0.91452  0.98768  1.0000
  C   C61       1.0  0.88844  0.79243  0.89530  1.0000
  C   C62       1.0  0.11156  0.20758  0.10471  1.0000
  C   C63       1.0  0.44278  0.48764  0.57507  1.0000
  C   C64       1.0  0.55724  0.51236  0.42492  1.0000
  C   C65       1.0  0.58714  0.51167  0.57905  1.0000
  C   C66       1.0  0.41288  0.48831  0.42093  1.0000
  C   C67       1.0  0.35615  0.47612  0.49653  1.0000
  C   C68       1.0  0.64386  0.52387  0.50345  1.0000
  C   C69       1.0  0.67910  0.52787  0.66484  1.0000
  C   C70       1.0  0.32091  0.47213  0.33514  1.0000
  N   N1        1.0  0.29536  0.92651  0.61363  1.0000
  N   N2        1.0  0.70464  0.07349  0.38637  1.0000
  N   N3        1.0  0.00464  0.28130  0.79976  1.0000
  N   N4        1.0  0.99537  0.71870  0.20024  1.0000
  N   N5        1.0  0.89623  0.43048  0.83627  1.0000
  N   N6        1.0  0.10377  0.56952  0.16373  1.0000
  N   N7        1.0  0.38286  0.77282  0.24167  1.0000
  N   N8        1.0  0.61713  0.22718  0.75833  1.0000
  N   N9        1.0  0.43421  0.66051  0.11007  1.0000
  N   N10       1.0  0.56578  0.33949  0.88993  1.0000
  N   N11       1.0  0.30403  0.63615  0.79861  1.0000
  N   N12       1.0  0.69596  0.36385  0.20139  1.0000
  N   N13       1.0  0.37507  0.54788  0.88823  1.0000
  N   N14       1.0  0.62494  0.45212  0.11177  1.0000
  Cl  Cl1       1.0  0.28821  0.37551  0.00654  1.0000
  Cl  Cl2       1.0  0.71179  0.62449  0.99345  1.0000
  O   O1        1.0  0.97146  0.71660  0.89198  1.0000
  O   O2        1.0  0.02853  0.28340  0.10802  1.0000
  O   O3        1.0  0.76328  0.77912  0.85920  1.0000
  O   O4        1.0  0.23672  0.22088  0.14080  1.0000
  O   O5        1.0  0.61631  0.52747  0.73460  1.0000
  O   O6        1.0  0.38370  0.47253  0.26538  1.0000
  O   O7        1.0  0.81099  0.54254  0.66750  1.0000
  O   O8        1.0  0.18902  0.45746  0.33248  1.0000
