data_image0
_chemical_formula_structural       Ag12P4H28C32S8N4O36F24
_chemical_formula_sum              "Ag12 P4 H28 C32 S8 N4 O36 F24"
_cell_length_a       9.3343
_cell_length_b       13.0732
_cell_length_c       16.244
_cell_angle_alpha    108.918
_cell_angle_beta     90
_cell_angle_gamma    90

_space_group_name_H-M_alt    "P 1"
_space_group_IT_number       1

loop_
  _space_group_symop_operation_xyz
  'x, y, z'

loop_
  _atom_site_type_symbol
  _atom_site_label
  _atom_site_symmetry_multiplicity
  _atom_site_fract_x
  _atom_site_fract_y
  _atom_site_fract_z
  _atom_site_occupancy
  Ag  Ag1       1.0  0.65502  0.46967  0.80903  1.0000
  Ag  Ag2       1.0  0.15502  0.53033  0.69097  1.0000
  Ag  Ag3       1.0  0.34498  0.53033  0.19097  1.0000
  Ag  Ag4       1.0  0.84498  0.46967  0.30903  1.0000
  Ag  Ag5       1.0  0.12767  0.56262  0.02163  1.0000
  Ag  Ag6       1.0  0.62767  0.43738  0.47837  1.0000
  Ag  Ag7       1.0  0.87233  0.43737  0.97837  1.0000
  Ag  Ag8       1.0  0.37233  0.56262  0.52163  1.0000
  Ag  Ag9       1.0  0.29561  0.49170  0.84196  1.0000
  Ag  Ag10      1.0  0.79561  0.50830  0.65804  1.0000
  Ag  Ag11      1.0  0.70439  0.50830  0.15804  1.0000
  Ag  Ag12      1.0  0.20438  0.49170  0.34196  1.0000
  P   P1        1.0  0.95514  0.59788  0.85973  1.0000
  P   P2        1.0  0.45515  0.40212  0.64027  1.0000
  P   P3        1.0  0.04485  0.40212  0.14027  1.0000
  P   P4        1.0  0.54485  0.59788  0.35972  1.0000
  H   H1        1.0  0.81480  0.84494  0.81478  1.0000
  H   H2        1.0  0.31479  0.15506  0.68522  1.0000
  H   H3        1.0  0.18521  0.15507  0.18522  1.0000
  H   H4        1.0  0.68521  0.84494  0.31478  1.0000
  H   H5        1.0  0.75815  0.72301  0.88951  1.0000
  H   H6        1.0  0.25815  0.27699  0.61049  1.0000
  H   H7        1.0  0.24185  0.27699  0.11049  1.0000
  H   H8        1.0  0.74185  0.72301  0.38951  1.0000
  H   H9        1.0  0.85816  0.73032  0.98546  1.0000
  H   H10       1.0  0.35816  0.26968  0.51454  1.0000
  H   H11       1.0  0.14184  0.26968  0.01454  1.0000
  H   H12       1.0  0.64184  0.73032  0.48546  1.0000
  H   H13       1.0  0.11459  0.81357  0.99966  1.0000
  H   H14       1.0  0.61459  0.18643  0.50034  1.0000
  H   H15       1.0  0.88541  0.18643  0.00034  1.0000
  H   H16       1.0  0.38541  0.81357  0.49966  1.0000
  H   H17       1.0  0.25584  0.96446  0.97614  1.0000
  H   H18       1.0  0.75584  0.03553  0.52386  1.0000
  H   H19       1.0  0.74416  0.03553  0.02386  1.0000
  H   H20       1.0  0.24416  0.96446  0.47614  1.0000
  H   H21       1.0  0.16276  0.05470  0.87038  1.0000
  H   H22       1.0  0.66275  0.94529  0.62962  1.0000
  H   H23       1.0  0.83725  0.94530  0.12963  1.0000
  H   H24       1.0  0.33725  0.05471  0.37037  1.0000
  H   H25       1.0  0.93197  0.98561  0.79257  1.0000
  H   H26       1.0  0.43196  0.01439  0.70743  1.0000
  H   H27       1.0  0.06804  0.01439  0.20744  1.0000
  H   H28       1.0  0.56804  0.98561  0.29256  1.0000
  C   C1        1.0  0.86614  0.72658  0.91700  1.0000
  C   C2        1.0  0.36614  0.27342  0.58300  1.0000
  C   C3        1.0  0.13386  0.27342  0.08300  1.0000
  C   C4        1.0  0.63386  0.72658  0.41700  1.0000
  C   C5        1.0  0.95091  0.81874  0.90890  1.0000
  C   C6        1.0  0.45091  0.18126  0.59110  1.0000
  C   C7        1.0  0.04909  0.18126  0.09110  1.0000
  C   C8        1.0  0.54909  0.81874  0.40890  1.0000
  C   C9        1.0  0.07822  0.85420  0.95468  1.0000
  C   C10       1.0  0.57822  0.14580  0.54532  1.0000
  C   C11       1.0  0.92178  0.14580  0.04532  1.0000
  C   C12       1.0  0.42178  0.85420  0.45468  1.0000
  C   C13       1.0  0.15578  0.93817  0.94124  1.0000
  C   C14       1.0  0.65578  0.06183  0.55876  1.0000
  C   C15       1.0  0.84422  0.06183  0.05876  1.0000
  C   C16       1.0  0.34422  0.93817  0.44124  1.0000
  C   C17       1.0  0.10579  0.98867  0.88286  1.0000
  C   C18       1.0  0.60578  0.01132  0.61714  1.0000
  C   C19       1.0  0.89421  0.01133  0.11714  1.0000
  C   C20       1.0  0.39421  0.98868  0.38286  1.0000
  C   C21       1.0  0.97958  0.95198  0.83905  1.0000
  C   C22       1.0  0.47957  0.04802  0.66095  1.0000
  C   C23       1.0  0.02043  0.04802  0.16095  1.0000
  C   C24       1.0  0.52043  0.95198  0.33905  1.0000
  C   C25       1.0  0.50118  0.80538  0.06651  1.0000
  C   C26       1.0  0.00118  0.19462  0.43349  1.0000
  C   C27       1.0  0.49882  0.19462  0.93349  1.0000
  C   C28       1.0  0.99882  0.80538  0.56651  1.0000
  C   C29       1.0  0.92521  0.18992  0.71750  1.0000
  C   C30       1.0  0.42521  0.81009  0.78251  1.0000
  C   C31       1.0  0.07479  0.81008  0.28250  1.0000
  C   C32       1.0  0.57479  0.18992  0.21749  1.0000
  S   S1        1.0  0.50523  0.65417  0.02873  1.0000
  S   S2        1.0  0.00523  0.34583  0.47127  1.0000
  S   S3        1.0  0.49477  0.34583  0.97126  1.0000
  S   S4        1.0  0.99477  0.65417  0.52874  1.0000
  S   S5        1.0  0.08314  0.24240  0.78952  1.0000
  S   S6        1.0  0.58314  0.75760  0.71048  1.0000
  S   S7        1.0  0.91686  0.75760  0.21048  1.0000
  S   S8        1.0  0.41686  0.24240  0.28952  1.0000
  N   N1        1.0  0.90741  0.86918  0.85241  1.0000
  N   N2        1.0  0.40741  0.13082  0.64759  1.0000
  N   N3        1.0  0.09260  0.13082  0.14759  1.0000
  N   N4        1.0  0.59259  0.86918  0.35241  1.0000
  O   O1        1.0  0.10455  0.60374  0.90160  1.0000
  O   O2        1.0  0.60455  0.39626  0.59840  1.0000
  O   O3        1.0  0.89545  0.39626  0.09840  1.0000
  O   O4        1.0  0.39545  0.60374  0.40160  1.0000
  O   O5        1.0  0.85927  0.50858  0.87348  1.0000
  O   O6        1.0  0.35927  0.49143  0.62652  1.0000
  O   O7        1.0  0.14073  0.49143  0.12652  1.0000
  O   O8        1.0  0.64074  0.50858  0.37348  1.0000
  O   O9        1.0  0.96351  0.59236  0.76361  1.0000
  O   O10       1.0  0.46351  0.40764  0.73639  1.0000
  O   O11       1.0  0.03649  0.40764  0.23639  1.0000
  O   O12       1.0  0.53649  0.59236  0.26361  1.0000
  O   O13       1.0  0.37887  0.62963  0.07258  1.0000
  O   O14       1.0  0.87887  0.37037  0.42742  1.0000
  O   O15       1.0  0.62113  0.37037  0.92742  1.0000
  O   O16       1.0  0.12113  0.62963  0.57258  1.0000
  O   O17       1.0  0.49234  0.62452  0.93405  1.0000
  O   O18       1.0  0.99234  0.37548  0.56595  1.0000
  O   O19       1.0  0.50766  0.37548  0.06595  1.0000
  O   O20       1.0  0.00766  0.62452  0.43405  1.0000
  O   O21       1.0  0.64245  0.62908  0.06057  1.0000
  O   O22       1.0  0.14245  0.37092  0.43943  1.0000
  O   O23       1.0  0.35755  0.37092  0.93943  1.0000
  O   O24       1.0  0.85755  0.62908  0.56057  1.0000
  O   O25       1.0  0.12716  0.33524  0.76456  1.0000
  O   O26       1.0  0.62717  0.66476  0.73544  1.0000
  O   O27       1.0  0.87283  0.66476  0.23544  1.0000
  O   O28       1.0  0.37283  0.33524  0.26456  1.0000
  O   O29       1.0  0.02690  0.26443  0.87725  1.0000
  O   O30       1.0  0.52690  0.73557  0.62275  1.0000
  O   O31       1.0  0.97310  0.73557  0.12275  1.0000
  O   O32       1.0  0.47310  0.26443  0.37725  1.0000
  O   O33       1.0  0.18308  0.15046  0.76189  1.0000
  O   O34       1.0  0.68308  0.84954  0.73811  1.0000
  O   O35       1.0  0.81692  0.84954  0.23811  1.0000
  O   O36       1.0  0.31692  0.15046  0.26189  1.0000
  F   F1        1.0  0.37738  0.84200  0.04190  1.0000
  F   F2        1.0  0.87737  0.15800  0.45811  1.0000
  F   F3        1.0  0.62262  0.15800  0.95810  1.0000
  F   F4        1.0  0.12262  0.84200  0.54190  1.0000
  F   F5        1.0  0.61208  0.84759  0.03356  1.0000
  F   F6        1.0  0.11207  0.15241  0.46644  1.0000
  F   F7        1.0  0.38792  0.15241  0.96644  1.0000
  F   F8        1.0  0.88792  0.84759  0.53356  1.0000
  F   F9        1.0  0.50897  0.84520  0.15443  1.0000
  F   F10       1.0  0.00896  0.15479  0.34557  1.0000
  F   F11       1.0  0.49103  0.15479  0.84556  1.0000
  F   F12       1.0  0.99104  0.84521  0.65444  1.0000
  F   F13       1.0  0.85684  0.11077  0.74040  1.0000
  F   F14       1.0  0.35684  0.88923  0.75960  1.0000
  F   F15       1.0  0.14316  0.88923  0.25960  1.0000
  F   F16       1.0  0.64316  0.11077  0.24039  1.0000
  F   F17       1.0  0.96810  0.14630  0.63336  1.0000
  F   F18       1.0  0.46810  0.85370  0.86665  1.0000
  F   F19       1.0  0.03190  0.85370  0.36665  1.0000
  F   F20       1.0  0.53190  0.14631  0.13335  1.0000
  F   F21       1.0  0.82854  0.26849  0.72202  1.0000
  F   F22       1.0  0.32854  0.73151  0.77798  1.0000
  F   F23       1.0  0.17146  0.73152  0.27798  1.0000
  F   F24       1.0  0.67146  0.26849  0.22202  1.0000
