data_image0
_chemical_formula_structural       Mn8H48C28O24
_chemical_formula_sum              "Mn8 H48 C28 O24"
_cell_length_a       8.03115
_cell_length_b       9.35128
_cell_length_c       13.462
_cell_angle_alpha    90
_cell_angle_beta     94.9294
_cell_angle_gamma    90

_space_group_name_H-M_alt    "P 1"
_space_group_IT_number       1

loop_
  _space_group_symop_operation_xyz
  'x, y, z'

loop_
  _atom_site_type_symbol
  _atom_site_label
  _atom_site_symmetry_multiplicity
  _atom_site_fract_x
  _atom_site_fract_y
  _atom_site_fract_z
  _atom_site_occupancy
  Mn  Mn1       1.0  0.05114  0.66203  0.97615  1.0000
  Mn  Mn2       1.0  0.44886  0.16203  0.02385  1.0000
  Mn  Mn3       1.0  0.94886  0.33797  0.02385  1.0000
  Mn  Mn4       1.0  0.55114  0.83797  0.97615  1.0000
  Mn  Mn5       1.0  0.11749  0.01587  0.90309  1.0000
  Mn  Mn6       1.0  0.38251  0.51587  0.09691  1.0000
  Mn  Mn7       1.0  0.88251  0.98413  0.09691  1.0000
  Mn  Mn8       1.0  0.61750  0.48413  0.90309  1.0000
  H   H1        1.0  0.09244  0.59562  0.29852  1.0000
  H   H2        1.0  0.40757  0.09561  0.70148  1.0000
  H   H3        1.0  0.90756  0.40438  0.70148  1.0000
  H   H4        1.0  0.59243  0.90438  0.29852  1.0000
  H   H5        1.0  0.30520  0.62938  0.29526  1.0000
  H   H6        1.0  0.19480  0.12938  0.70474  1.0000
  H   H7        1.0  0.69480  0.37062  0.70474  1.0000
  H   H8        1.0  0.80520  0.87062  0.29527  1.0000
  H   H9        1.0  0.08302  0.61493  0.47844  1.0000
  H   H10       1.0  0.41699  0.11492  0.52156  1.0000
  H   H11       1.0  0.91698  0.38508  0.52156  1.0000
  H   H12       1.0  0.58301  0.88507  0.47844  1.0000
  H   H13       1.0  0.30240  0.62442  0.48690  1.0000
  H   H14       1.0  0.19760  0.12442  0.51310  1.0000
  H   H15       1.0  0.69760  0.37558  0.51310  1.0000
  H   H16       1.0  0.80240  0.87558  0.48690  1.0000
  H   H17       1.0  0.09153  0.59709  0.65690  1.0000
  H   H18       1.0  0.40848  0.09709  0.34310  1.0000
  H   H19       1.0  0.90847  0.40291  0.34310  1.0000
  H   H20       1.0  0.59152  0.90291  0.65691  1.0000
  H   H21       1.0  0.30773  0.61840  0.67757  1.0000
  H   H22       1.0  0.19227  0.11840  0.32243  1.0000
  H   H23       1.0  0.69227  0.38160  0.32243  1.0000
  H   H24       1.0  0.80773  0.88160  0.67757  1.0000
  H   H25       1.0  0.29249  0.85251  0.58622  1.0000
  H   H26       1.0  0.20751  0.35250  0.41378  1.0000
  H   H27       1.0  0.70751  0.14749  0.41378  1.0000
  H   H28       1.0  0.79249  0.64749  0.58622  1.0000
  H   H29       1.0  0.07272  0.84547  0.57518  1.0000
  H   H30       1.0  0.42728  0.34547  0.42482  1.0000
  H   H31       1.0  0.92728  0.15454  0.42482  1.0000
  H   H32       1.0  0.57271  0.65453  0.57518  1.0000
  H   H33       1.0  0.06270  0.84328  0.38092  1.0000
  H   H34       1.0  0.43730  0.34328  0.61908  1.0000
  H   H35       1.0  0.93730  0.15672  0.61908  1.0000
  H   H36       1.0  0.56269  0.65672  0.38092  1.0000
  H   H37       1.0  0.28185  0.85674  0.38980  1.0000
  H   H38       1.0  0.21815  0.35674  0.61021  1.0000
  H   H39       1.0  0.71815  0.14326  0.61020  1.0000
  H   H40       1.0  0.78185  0.64326  0.38979  1.0000
  H   H41       1.0  0.78673  0.59068  0.06063  1.0000
  H   H42       1.0  0.71327  0.09068  0.93937  1.0000
  H   H43       1.0  0.21327  0.40932  0.93937  1.0000
  H   H44       1.0  0.28673  0.90932  0.06063  1.0000
  H   H45       1.0  0.85031  0.86045  0.91356  1.0000
  H   H46       1.0  0.64969  0.36045  0.08644  1.0000
  H   H47       1.0  0.14969  0.13955  0.08644  1.0000
  H   H48       1.0  0.35031  0.63955  0.91356  1.0000
  C   C1        1.0  0.18406  0.68362  0.29614  1.0000
  C   C2        1.0  0.31594  0.18361  0.70386  1.0000
  C   C3        1.0  0.81594  0.31638  0.70386  1.0000
  C   C4        1.0  0.68406  0.81639  0.29614  1.0000
  C   C5        1.0  0.18862  0.69113  0.48274  1.0000
  C   C6        1.0  0.31138  0.19112  0.51726  1.0000
  C   C7        1.0  0.81138  0.30888  0.51726  1.0000
  C   C8        1.0  0.68862  0.80888  0.48274  1.0000
  C   C9        1.0  0.16717  0.74766  0.76815  1.0000
  C   C10       1.0  0.33284  0.24767  0.23185  1.0000
  C   C11       1.0  0.83284  0.25234  0.23185  1.0000
  C   C12       1.0  0.66717  0.75233  0.76815  1.0000
  C   C13       1.0  0.18970  0.67935  0.66834  1.0000
  C   C14       1.0  0.31031  0.17934  0.33166  1.0000
  C   C15       1.0  0.81030  0.32066  0.33165  1.0000
  C   C16       1.0  0.68969  0.82065  0.66835  1.0000
  C   C17       1.0  0.18575  0.77819  0.57845  1.0000
  C   C18       1.0  0.31425  0.27819  0.42155  1.0000
  C   C19       1.0  0.81425  0.22181  0.42155  1.0000
  C   C20       1.0  0.68575  0.72181  0.57845  1.0000
  C   C21       1.0  0.17812  0.77936  0.38730  1.0000
  C   C22       1.0  0.32188  0.27935  0.61270  1.0000
  C   C23       1.0  0.82188  0.22065  0.61269  1.0000
  C   C24       1.0  0.67811  0.72065  0.38730  1.0000
  C   C25       1.0  0.14316  0.75618  0.19694  1.0000
  C   C26       1.0  0.35684  0.25617  0.80306  1.0000
  C   C27       1.0  0.85685  0.24382  0.80306  1.0000
  C   C28       1.0  0.64315  0.74382  0.19694  1.0000
  O   O1        1.0  0.83263  0.55086  0.00177  1.0000
  O   O2        1.0  0.66737  0.05087  0.99823  1.0000
  O   O3        1.0  0.16737  0.44913  0.99823  1.0000
  O   O4        1.0  0.33263  0.94913  0.00177  1.0000
  O   O5        1.0  0.19043  0.69232  0.11857  1.0000
  O   O6        1.0  0.30957  0.19232  0.88144  1.0000
  O   O7        1.0  0.80957  0.30768  0.88144  1.0000
  O   O8        1.0  0.69043  0.80768  0.11856  1.0000
  O   O9        1.0  0.94941  0.86493  0.96212  1.0000
  O   O10       1.0  0.55058  0.36492  0.03788  1.0000
  O   O11       1.0  0.05058  0.13508  0.03788  1.0000
  O   O12       1.0  0.44942  0.63508  0.96212  1.0000
  O   O13       1.0  0.15396  0.65764  0.83956  1.0000
  O   O14       1.0  0.34605  0.15764  0.16044  1.0000
  O   O15       1.0  0.84605  0.34236  0.16044  1.0000
  O   O16       1.0  0.65395  0.84236  0.83957  1.0000
  O   O17       1.0  0.06299  0.87219  0.19326  1.0000
  O   O18       1.0  0.43701  0.37218  0.80674  1.0000
  O   O19       1.0  0.93701  0.12781  0.80674  1.0000
  O   O20       1.0  0.56299  0.62782  0.19326  1.0000
  O   O21       1.0  0.16374  0.88205  0.77672  1.0000
  O   O22       1.0  0.33626  0.38204  0.22328  1.0000
  O   O23       1.0  0.83626  0.11796  0.22328  1.0000
  O   O24       1.0  0.66375  0.61796  0.77671  1.0000
