data_image0
_chemical_formula_structural       Mn4H12C8O12
_chemical_formula_sum              "Mn4 H12 C8 O12"
_cell_length_a       5.89777
_cell_length_b       7.41115
_cell_length_c       7.94645
_cell_angle_alpha    90.0005
_cell_angle_beta     92.0761
_cell_angle_gamma    90.0006

_space_group_name_H-M_alt    "P 1"
_space_group_IT_number       1

loop_
  _space_group_symop_operation_xyz
  'x, y, z'

loop_
  _atom_site_type_symbol
  _atom_site_label
  _atom_site_symmetry_multiplicity
  _atom_site_fract_x
  _atom_site_fract_y
  _atom_site_fract_z
  _atom_site_occupancy
  Mn  Mn1       1.0  0.24230  0.10154  0.47254  1.0000
  Mn  Mn2       1.0  0.25770  0.60154  0.52746  1.0000
  Mn  Mn3       1.0  0.75770  0.89846  0.52746  1.0000
  Mn  Mn4       1.0  0.74230  0.39846  0.47254  1.0000
  H   H1        1.0  0.92729  0.18787  0.69311  1.0000
  H   H2        1.0  0.57271  0.68787  0.30689  1.0000
  H   H3        1.0  0.07271  0.81213  0.30689  1.0000
  H   H4        1.0  0.42729  0.31213  0.69311  1.0000
  H   H5        1.0  0.07141  0.31228  0.93600  1.0000
  H   H6        1.0  0.42858  0.81228  0.06399  1.0000
  H   H7        1.0  0.92858  0.68771  0.06400  1.0000
  H   H8        1.0  0.57142  0.18772  0.93601  1.0000
  H   H9        1.0  0.25923  0.48778  0.99598  1.0000
  H   H10       1.0  0.24077  0.98778  0.00402  1.0000
  H   H11       1.0  0.74076  0.51221  0.00402  1.0000
  H   H12       1.0  0.75924  0.01222  0.99598  1.0000
  C   C1        1.0  0.09136  0.42931  0.01980  1.0000
  C   C2        1.0  0.40864  0.92932  0.98020  1.0000
  C   C3        1.0  0.90864  0.57069  0.98020  1.0000
  C   C4        1.0  0.59136  0.07068  0.01980  1.0000
  C   C5        1.0  0.09551  0.36366  0.19987  1.0000
  C   C6        1.0  0.40448  0.86363  0.80013  1.0000
  C   C7        1.0  0.90449  0.63634  0.80012  1.0000
  C   C8        1.0  0.59552  0.13636  0.19987  1.0000
  O   O1        1.0  0.91062  0.15900  0.57375  1.0000
  O   O2        1.0  0.58939  0.65900  0.42625  1.0000
  O   O3        1.0  0.08939  0.84100  0.42625  1.0000
  O   O4        1.0  0.41062  0.34100  0.57375  1.0000
  O   O5        1.0  0.13830  0.19844  0.22750  1.0000
  O   O6        1.0  0.36171  0.69846  0.77250  1.0000
  O   O7        1.0  0.86170  0.80156  0.77250  1.0000
  O   O8        1.0  0.63830  0.30153  0.22750  1.0000
  O   O9        1.0  0.05763  0.47893  0.31712  1.0000
  O   O10       1.0  0.44237  0.97893  0.68287  1.0000
  O   O11       1.0  0.94236  0.52107  0.68287  1.0000
  O   O12       1.0  0.55763  0.02106  0.31713  1.0000
