data_image0
_chemical_formula_structural       Mn8P8H40C20N4O48
_chemical_formula_sum              "Mn8 P8 H40 C20 N4 O48"
_cell_length_a       5.6801
_cell_length_b       14.8555
_cell_length_c       14.8621
_cell_angle_alpha    89.9842
_cell_angle_beta     90.0053
_cell_angle_gamma    90.0015

_space_group_name_H-M_alt    "P 1"
_space_group_IT_number       1

loop_
  _space_group_symop_operation_xyz
  'x, y, z'

loop_
  _atom_site_type_symbol
  _atom_site_label
  _atom_site_symmetry_multiplicity
  _atom_site_fract_x
  _atom_site_fract_y
  _atom_site_fract_z
  _atom_site_occupancy
  Mn  Mn1       1.0  0.01330  0.70311  0.66067  1.0000
  Mn  Mn2       1.0  0.01355  0.29686  0.33951  1.0000
  Mn  Mn3       1.0  0.51324  0.33940  0.70307  1.0000
  Mn  Mn4       1.0  0.51367  0.66068  0.29702  1.0000
  Mn  Mn5       1.0  0.36965  0.81730  0.80142  1.0000
  Mn  Mn6       1.0  0.36979  0.18262  0.19843  1.0000
  Mn  Mn7       1.0  0.86988  0.19838  0.81750  1.0000
  Mn  Mn8       1.0  0.87020  0.80159  0.18246  1.0000
  P   P1        1.0  0.50609  0.79467  0.57907  1.0000
  P   P2        1.0  0.50613  0.20539  0.42092  1.0000
  P   P3        1.0  0.00606  0.42081  0.79465  1.0000
  P   P4        1.0  0.00647  0.57918  0.20548  1.0000
  P   P5        1.0  0.86319  0.72642  0.87381  1.0000
  P   P6        1.0  0.86337  0.27355  0.12609  1.0000
  P   P7        1.0  0.36332  0.12603  0.72646  1.0000
  P   P8        1.0  0.36362  0.87396  0.27349  1.0000
  H   H1        1.0  0.43895  0.89479  0.42562  1.0000
  H   H2        1.0  0.43861  0.10524  0.57436  1.0000
  H   H3        1.0  0.93896  0.57425  0.89469  1.0000
  H   H4        1.0  0.93908  0.42568  0.10528  1.0000
  H   H5        1.0  0.81340  0.68708  0.46337  1.0000
  H   H6        1.0  0.81347  0.31293  0.53675  1.0000
  H   H7        1.0  0.31332  0.53678  0.68722  1.0000
  H   H8        1.0  0.31366  0.46329  0.31298  1.0000
  H   H9        1.0  0.70060  0.57979  0.07512  1.0000
  H   H10       1.0  0.70011  0.42017  0.92511  1.0000
  H   H11       1.0  0.19999  0.92519  0.58004  1.0000
  H   H12       1.0  0.20006  0.07494  0.41998  1.0000
  H   H13       1.0  0.55688  0.81624  0.00697  1.0000
  H   H14       1.0  0.55698  0.18369  0.99288  1.0000
  H   H15       1.0  0.05690  0.99274  0.81631  1.0000
  H   H16       1.0  0.05714  0.00720  0.18362  1.0000
  H   H17       1.0  0.51441  0.63441  0.55332  1.0000
  H   H18       1.0  0.51464  0.36566  0.44671  1.0000
  H   H19       1.0  0.01460  0.44670  0.63449  1.0000
  H   H20       1.0  0.01477  0.55331  0.36566  1.0000
  H   H21       1.0  0.85976  0.87741  0.92963  1.0000
  H   H22       1.0  0.85985  0.12257  0.07025  1.0000
  H   H23       1.0  0.35992  0.07009  0.87734  1.0000
  H   H24       1.0  0.36024  0.92987  0.12259  1.0000
  H   H25       1.0  0.57815  0.32856  0.97195  1.0000
  H   H26       1.0  0.57901  0.67153  0.02834  1.0000
  H   H27       1.0  0.07836  0.02796  0.32843  1.0000
  H   H28       1.0  0.07765  0.97217  0.67145  1.0000
  H   H29       1.0  0.42757  0.38656  0.89202  1.0000
  H   H30       1.0  0.42819  0.61353  0.10821  1.0000
  H   H31       1.0  0.92743  0.10784  0.38635  1.0000
  H   H32       1.0  0.92749  0.89202  0.61360  1.0000
  H   H33       1.0  0.53014  0.44374  0.07934  1.0000
  H   H34       1.0  0.53055  0.55636  0.92089  1.0000
  H   H35       1.0  0.03130  0.92060  0.44391  1.0000
  H   H36       1.0  0.02955  0.07936  0.55597  1.0000
  H   H37       1.0  0.25304  0.42674  0.02838  1.0000
  H   H38       1.0  0.25352  0.57360  0.97179  1.0000
  H   H39       1.0  0.75376  0.97111  0.42645  1.0000
  H   H40       1.0  0.75259  0.02824  0.57299  1.0000
  C   C1        1.0  0.48244  0.69199  0.50815  1.0000
  C   C2        1.0  0.48261  0.30808  0.49187  1.0000
  C   C3        1.0  0.98248  0.49185  0.69203  1.0000
  C   C4        1.0  0.98278  0.50815  0.30811  1.0000
  C   C5        1.0  0.23984  0.68088  0.46747  1.0000
  C   C6        1.0  0.24003  0.31921  0.53253  1.0000
  C   C7        1.0  0.73989  0.53253  0.68088  1.0000
  C   C8        1.0  0.74017  0.46745  0.31921  1.0000
  C   C9        1.0  0.88953  0.81234  0.96333  1.0000
  C   C10       1.0  0.88964  0.18764  0.03654  1.0000
  C   C11       1.0  0.38962  0.03638  0.81231  1.0000
  C   C12       1.0  0.38991  0.96359  0.18763  1.0000
  C   C13       1.0  0.13254  0.81469  0.00550  1.0000
  C   C14       1.0  0.13259  0.18525  0.99437  1.0000
  C   C15       1.0  0.63254  0.99418  0.81460  1.0000
  C   C16       1.0  0.63283  0.00580  0.18536  1.0000
  C   C17       1.0  0.43121  0.45128  0.01655  1.0000
  C   C18       1.0  0.43153  0.54891  0.98366  1.0000
  C   C19       1.0  0.93164  0.98328  0.45113  1.0000
  C   C20       1.0  0.93089  0.01646  0.54860  1.0000
  N   N1        1.0  0.54109  0.39214  0.94797  1.0000
  N   N2        1.0  0.54169  0.60794  0.05227  1.0000
  N   N3        1.0  0.04117  0.05195  0.39195  1.0000
  N   N4        1.0  0.04086  0.94803  0.60795  1.0000
  O   O1        1.0  0.42880  0.87494  0.52104  1.0000
  O   O2        1.0  0.42845  0.12516  0.47892  1.0000
  O   O3        1.0  0.92875  0.47884  0.87486  1.0000
  O   O4        1.0  0.92918  0.52114  0.12526  1.0000
  O   O5        1.0  0.76284  0.80022  0.61010  1.0000
  O   O6        1.0  0.76294  0.19973  0.39001  1.0000
  O   O7        1.0  0.26281  0.38977  0.80025  1.0000
  O   O8        1.0  0.26323  0.61020  0.19991  1.0000
  O   O9        1.0  0.33365  0.78251  0.65968  1.0000
  O   O10       1.0  0.33402  0.21763  0.34025  1.0000
  O   O11       1.0  0.83376  0.34017  0.78247  1.0000
  O   O12       1.0  0.83416  0.65983  0.21760  1.0000
  O   O13       1.0  0.65151  0.69614  0.43698  1.0000
  O   O14       1.0  0.65158  0.30390  0.56309  1.0000
  O   O15       1.0  0.15141  0.56312  0.69624  1.0000
  O   O16       1.0  0.15178  0.43692  0.30393  1.0000
  O   O17       1.0  0.21984  0.67954  0.38304  1.0000
  O   O18       1.0  0.22003  0.32063  0.61697  1.0000
  O   O19       1.0  0.71991  0.61700  0.67938  1.0000
  O   O20       1.0  0.72010  0.38299  0.32050  1.0000
  O   O21       1.0  0.06277  0.67222  0.52008  1.0000
  O   O22       1.0  0.06291  0.32779  0.47992  1.0000
  O   O23       1.0  0.56274  0.47990  0.67238  1.0000
  O   O24       1.0  0.56310  0.52008  0.32789  1.0000
  O   O25       1.0  0.03433  0.75294  0.79784  1.0000
  O   O26       1.0  0.03463  0.24717  0.20203  1.0000
  O   O27       1.0  0.53468  0.20195  0.75286  1.0000
  O   O28       1.0  0.53496  0.79804  0.24707  1.0000
  O   O29       1.0  0.60629  0.72054  0.84713  1.0000
  O   O30       1.0  0.60648  0.27937  0.15277  1.0000
  O   O31       1.0  0.10642  0.15278  0.72068  1.0000
  O   O32       1.0  0.10673  0.84722  0.27925  1.0000
  O   O33       1.0  0.94609  0.63903  0.92365  1.0000
  O   O34       1.0  0.94591  0.36098  0.07619  1.0000
  O   O35       1.0  0.44576  0.07618  0.63906  1.0000
  O   O36       1.0  0.44614  0.92380  0.36088  1.0000
  O   O37       1.0  0.71553  0.79594  0.03140  1.0000
  O   O38       1.0  0.71560  0.20404  0.96848  1.0000
  O   O39       1.0  0.21549  0.96834  0.79591  1.0000
  O   O40       1.0  0.21576  0.03162  0.20401  1.0000
  O   O41       1.0  0.30737  0.83559  0.95540  1.0000
  O   O42       1.0  0.30741  0.16429  0.04447  1.0000
  O   O43       1.0  0.80728  0.04422  0.83584  1.0000
  O   O44       1.0  0.80757  0.95577  0.16412  1.0000
  O   O45       1.0  0.15222  0.79638  0.08825  1.0000
  O   O46       1.0  0.15223  0.20359  0.91162  1.0000
  O   O47       1.0  0.65227  0.91149  0.79590  1.0000
  O   O48       1.0  0.65254  0.08849  0.20406  1.0000
