data_image0
_chemical_formula_structural       Zn2H28C30N12O8
_chemical_formula_sum              "Zn2 H28 C30 N12 O8"
_cell_length_a       10.4879
_cell_length_b       10.7405
_cell_length_c       11.5127
_cell_angle_alpha    68.4804
_cell_angle_beta     65.6654
_cell_angle_gamma    61.8718

_space_group_name_H-M_alt    "P 1"
_space_group_IT_number       1

loop_
  _space_group_symop_operation_xyz
  'x, y, z'

loop_
  _atom_site_type_symbol
  _atom_site_label
  _atom_site_symmetry_multiplicity
  _atom_site_fract_x
  _atom_site_fract_y
  _atom_site_fract_z
  _atom_site_occupancy
  Zn  Zn1       1.0  0.93999  0.21487  0.85181  1.0000
  Zn  Zn2       1.0  0.06001  0.78512  0.14819  1.0000
  H   H1        1.0  0.92845  0.14997  0.37142  1.0000
  H   H2        1.0  0.07155  0.85004  0.62858  1.0000
  H   H3        1.0  0.94839  0.31652  0.33580  1.0000
  H   H4        1.0  0.05162  0.68348  0.66420  1.0000
  H   H5        1.0  0.13007  0.11672  0.44880  1.0000
  H   H6        1.0  0.86993  0.88327  0.55120  1.0000
  H   H7        1.0  0.20326  0.01454  0.32828  1.0000
  H   H8        1.0  0.79674  0.98546  0.67172  1.0000
  H   H9        1.0  0.37544  0.12564  0.30246  1.0000
  H   H10       1.0  0.62456  0.87436  0.69754  1.0000
  H   H11       1.0  0.31189  0.19155  0.16239  1.0000
  H   H12       1.0  0.68811  0.80844  0.83761  1.0000
  H   H13       1.0  0.11344  0.37469  0.87668  1.0000
  H   H14       1.0  0.88657  0.62530  0.12332  1.0000
  H   H15       1.0  0.90831  0.09969  0.17893  1.0000
  H   H16       1.0  0.09169  0.90031  0.82107  1.0000
  H   H17       1.0  0.09220  0.58283  0.43178  1.0000
  H   H18       1.0  0.90780  0.41717  0.56822  1.0000
  H   H19       1.0  0.23637  0.45764  0.07842  1.0000
  H   H20       1.0  0.76364  0.54236  0.92158  1.0000
  H   H21       1.0  0.46238  0.23006  0.53784  1.0000
  H   H22       1.0  0.53762  0.76994  0.46216  1.0000
  H   H23       1.0  0.29648  0.90254  0.61615  1.0000
  H   H24       1.0  0.70352  0.09746  0.38385  1.0000
  H   H25       1.0  0.68257  0.94740  0.11283  1.0000
  H   H26       1.0  0.31743  0.05260  0.88717  1.0000
  H   H27       1.0  0.50941  0.16748  0.78205  1.0000
  H   H28       1.0  0.49058  0.83252  0.21795  1.0000
  C   C1        1.0  0.00414  0.20885  0.31269  1.0000
  C   C2        1.0  0.99586  0.79115  0.68731  1.0000
  C   C3        1.0  0.15520  0.12491  0.34417  1.0000
  C   C4        1.0  0.84480  0.87509  0.65583  1.0000
  C   C5        1.0  0.27591  0.19021  0.26649  1.0000
  C   C6        1.0  0.72409  0.80979  0.73351  1.0000
  C   C7        1.0  0.06880  0.31800  0.97353  1.0000
  C   C8        1.0  0.93120  0.68200  0.02647  1.0000
  C   C9        1.0  0.96342  0.17704  0.12414  1.0000
  C   C10       1.0  0.03658  0.82296  0.87585  1.0000
  C   C11       1.0  0.13730  0.51701  0.36123  1.0000
  C   C12       1.0  0.86270  0.48299  0.63877  1.0000
  C   C13       1.0  0.21023  0.45818  0.17955  1.0000
  C   C14       1.0  0.78978  0.54181  0.82045  1.0000
  C   C15       1.0  0.36546  0.07418  0.58628  1.0000
  C   C16       1.0  0.63454  0.92582  0.41372  1.0000
  C   C17       1.0  0.48054  0.12896  0.52058  1.0000
  C   C18       1.0  0.51946  0.87104  0.47941  1.0000
  C   C19       1.0  0.38639  0.94444  0.56496  1.0000
  C   C20       1.0  0.61361  0.05556  0.43504  1.0000
  C   C21       1.0  0.22251  0.15616  0.67707  1.0000
  C   C22       1.0  0.77749  0.84383  0.32294  1.0000
  C   C23       1.0  0.60773  0.06387  0.94131  1.0000
  C   C24       1.0  0.39226  0.93613  0.05869  1.0000
  C   C25       1.0  0.60214  0.96965  0.06426  1.0000
  C   C26       1.0  0.39785  0.03035  0.93575  1.0000
  C   C27       1.0  0.50437  0.09426  0.87760  1.0000
  C   C28       1.0  0.49563  0.90575  0.12240  1.0000
  C   C29       1.0  0.72697  0.12744  0.87617  1.0000
  C   C30       1.0  0.27302  0.87256  0.12383  1.0000
  N   N1        1.0  0.01547  0.23068  0.17629  1.0000
  N   N2        1.0  0.98453  0.76933  0.82371  1.0000
  N   N3        1.0  0.08223  0.32148  0.08143  1.0000
  N   N4        1.0  0.91777  0.67852  0.91857  1.0000
  N   N5        1.0  0.99547  0.23137  0.99520  1.0000
  N   N6        1.0  0.00453  0.76863  0.00480  1.0000
  N   N7        1.0  0.22416  0.33930  0.27580  1.0000
  N   N8        1.0  0.77584  0.66070  0.72420  1.0000
  N   N9        1.0  0.17754  0.37476  0.39279  1.0000
  N   N10       1.0  0.82246  0.62524  0.60721  1.0000
  N   N11       1.0  0.15485  0.57328  0.23071  1.0000
  N   N12       1.0  0.84515  0.42671  0.76929  1.0000
  O   O1        1.0  0.11790  0.10161  0.72960  1.0000
  O   O2        1.0  0.88210  0.89839  0.27040  1.0000
  O   O3        1.0  0.20941  0.26772  0.69914  1.0000
  O   O4        1.0  0.79059  0.73228  0.30086  1.0000
  O   O5        1.0  0.79052  0.12500  0.95377  1.0000
  O   O6        1.0  0.20947  0.87499  0.04623  1.0000
  O   O7        1.0  0.76200  0.17537  0.75525  1.0000
  O   O8        1.0  0.23800  0.82463  0.24475  1.0000
