data_image0
_chemical_formula_structural       Zn4H52C52N24Cl2O12
_chemical_formula_sum              "Zn4 H52 C52 N24 Cl2 O12"
_cell_length_a       10.2552
_cell_length_b       10.1983
_cell_length_c       17.38
_cell_angle_alpha    98.7587
_cell_angle_beta     93.3357
_cell_angle_gamma    111.127

_space_group_name_H-M_alt    "P 1"
_space_group_IT_number       1

loop_
  _space_group_symop_operation_xyz
  'x, y, z'

loop_
  _atom_site_type_symbol
  _atom_site_label
  _atom_site_symmetry_multiplicity
  _atom_site_fract_x
  _atom_site_fract_y
  _atom_site_fract_z
  _atom_site_occupancy
  Zn  Zn1       1.0  0.89021  0.47777  0.80024  1.0000
  Zn  Zn2       1.0  0.10978  0.52222  0.19976  1.0000
  Zn  Zn3       1.0  0.55433  0.11375  0.37455  1.0000
  Zn  Zn4       1.0  0.44567  0.88625  0.62545  1.0000
  H   H1        1.0  0.21255  0.05307  0.79087  1.0000
  H   H2        1.0  0.78745  0.94693  0.20913  1.0000
  H   H3        1.0  0.37312  0.05522  0.83566  1.0000
  H   H4        1.0  0.62688  0.94478  0.16433  1.0000
  H   H5        1.0  0.32457  0.25698  0.90789  1.0000
  H   H6        1.0  0.67542  0.74302  0.09211  1.0000
  H   H7        1.0  0.31704  0.13106  0.96849  1.0000
  H   H8        1.0  0.68296  0.86894  0.03151  1.0000
  H   H9        1.0  0.04818  0.02720  0.93654  1.0000
  H   H10       1.0  0.95182  0.97280  0.06346  1.0000
  H   H11       1.0  0.12356  0.20356  0.99287  1.0000
  H   H12       1.0  0.87644  0.79644  0.00713  1.0000
  H   H13       1.0  0.03653  0.79985  0.75187  1.0000
  H   H14       1.0  0.96347  0.20015  0.24813  1.0000
  H   H15       1.0  0.12808  0.64596  0.95290  1.0000
  H   H16       1.0  0.87192  0.35404  0.04710  1.0000
  H   H17       1.0  0.88392  0.16780  0.71421  1.0000
  H   H18       1.0  0.11608  0.83221  0.28579  1.0000
  H   H19       1.0  0.05835  0.39264  0.94408  1.0000
  H   H20       1.0  0.94166  0.60736  0.05592  1.0000
  H   H21       1.0  0.67072  0.41267  0.06128  1.0000
  H   H22       1.0  0.32928  0.58733  0.93872  1.0000
  H   H23       1.0  0.52819  0.56903  0.86909  1.0000
  H   H24       1.0  0.47181  0.43097  0.13091  1.0000
  H   H25       1.0  0.95983  0.31297  0.58191  1.0000
  H   H26       1.0  0.04018  0.68702  0.41809  1.0000
  H   H27       1.0  0.92557  0.70410  0.54107  1.0000
  H   H28       1.0  0.07443  0.29589  0.45893  1.0000
  H   H29       1.0  0.54982  0.49026  0.67802  1.0000
  H   H30       1.0  0.45018  0.50974  0.32198  1.0000
  H   H31       1.0  0.59702  0.34329  0.68876  1.0000
  H   H32       1.0  0.40299  0.65670  0.31124  1.0000
  H   H33       1.0  0.35118  0.19270  0.70263  1.0000
  H   H34       1.0  0.64883  0.80730  0.29737  1.0000
  H   H35       1.0  0.42521  0.34958  0.77534  1.0000
  H   H36       1.0  0.57479  0.65042  0.22466  1.0000
  H   H37       1.0  0.20932  0.30160  0.63238  1.0000
  H   H38       1.0  0.79068  0.69840  0.36762  1.0000
  H   H39       1.0  0.17627  0.30426  0.73162  1.0000
  H   H40       1.0  0.82373  0.69573  0.26838  1.0000
  H   H41       1.0  0.32875  0.29175  0.41433  1.0000
  H   H42       1.0  0.67125  0.70825  0.58567  1.0000
  H   H43       1.0  0.61360  0.19972  0.56235  1.0000
  H   H44       1.0  0.38640  0.80029  0.43765  1.0000
  H   H45       1.0  0.41385  0.81283  0.80538  1.0000
  H   H46       1.0  0.58615  0.18716  0.19462  1.0000
  H   H47       1.0  0.29210  0.53656  0.58525  1.0000
  H   H48       1.0  0.70790  0.46344  0.41474  1.0000
  H   H49       1.0  0.01472  0.01365  0.35884  1.0000
  H   H50       1.0  0.98527  0.98635  0.64117  1.0000
  H   H51       1.0  0.79850  0.03332  0.56193  1.0000
  H   H52       1.0  0.20150  0.96669  0.43808  1.0000
  C   C1        1.0  0.26420  0.04167  0.84500  1.0000
  C   C2        1.0  0.73579  0.95833  0.15499  1.0000
  C   C3        1.0  0.26324  0.14824  0.91664  1.0000
  C   C4        1.0  0.73676  0.85176  0.08336  1.0000
  C   C5        1.0  0.11646  0.13814  0.93531  1.0000
  C   C6        1.0  0.88354  0.86186  0.06469  1.0000
  C   C7        1.0  0.08197  0.79002  0.80777  1.0000
  C   C8        1.0  0.91803  0.20998  0.19223  1.0000
  C   C9        1.0  0.13120  0.71493  0.91041  1.0000
  C   C10       1.0  0.86880  0.28506  0.08958  1.0000
  C   C11       1.0  0.93816  0.19599  0.77328  1.0000
  C   C12       1.0  0.06184  0.80401  0.22672  1.0000
  C   C13       1.0  0.02331  0.31334  0.88978  1.0000
  C   C14       1.0  0.97670  0.68667  0.11022  1.0000
  C   C15       1.0  0.61181  0.48911  0.96043  1.0000
  C   C16       1.0  0.38820  0.51088  0.03957  1.0000
  C   C17       1.0  0.59588  0.45066  0.03437  1.0000
  C   C18       1.0  0.40412  0.54934  0.96563  1.0000
  C   C19       1.0  0.51544  0.53882  0.92642  1.0000
  C   C20       1.0  0.48456  0.46118  0.07358  1.0000
  C   C21       1.0  0.73188  0.47946  0.91817  1.0000
  C   C22       1.0  0.26812  0.52054  0.08183  1.0000
  C   C23       1.0  0.93567  0.50944  0.56841  1.0000
  C   C24       1.0  0.06433  0.49056  0.43158  1.0000
  C   C25       1.0  0.97807  0.39443  0.54563  1.0000
  C   C26       1.0  0.02193  0.60556  0.45437  1.0000
  C   C27       1.0  0.95780  0.61481  0.52222  1.0000
  C   C28       1.0  0.04220  0.38518  0.47777  1.0000
  C   C29       1.0  0.87569  0.52571  0.64446  1.0000
  C   C30       1.0  0.12431  0.47429  0.35554  1.0000
  C   C31       1.0  0.51020  0.37281  0.66818  1.0000
  C   C32       1.0  0.48980  0.62719  0.33182  1.0000
  C   C33       1.0  0.38526  0.30985  0.71275  1.0000
  C   C34       1.0  0.61474  0.69015  0.28725  1.0000
  C   C35       1.0  0.25650  0.34657  0.69339  1.0000
  C   C36       1.0  0.74350  0.65343  0.30661  1.0000
  C   C37       1.0  0.39221  0.28768  0.46574  1.0000
  C   C38       1.0  0.60779  0.71232  0.53426  1.0000
  C   C39       1.0  0.53715  0.23955  0.53964  1.0000
  C   C40       1.0  0.46285  0.76045  0.46036  1.0000
  C   C41       1.0  0.37414  0.71695  0.76034  1.0000
  C   C42       1.0  0.62586  0.28305  0.23966  1.0000
  C   C43       1.0  0.31267  0.58075  0.64750  1.0000
  C   C44       1.0  0.68734  0.41925  0.35250  1.0000
  C   C45       1.0  0.89587  0.02477  0.45567  1.0000
  C   C46       1.0  0.10412  0.97524  0.54434  1.0000
  C   C47       1.0  0.00912  0.00599  0.42056  1.0000
  C   C48       1.0  0.99087  0.99402  0.57945  1.0000
  C   C49       1.0  0.88721  0.01862  0.53541  1.0000
  C   C50       1.0  0.11278  0.98139  0.46460  1.0000
  C   C51       1.0  0.78740  0.05481  0.40767  1.0000
  C   C52       1.0  0.21259  0.94520  0.59234  1.0000
  N   N1        1.0  0.18890  0.89467  0.85508  1.0000
  N   N2        1.0  0.81110  0.10533  0.14492  1.0000
  N   N3        1.0  0.22183  0.84905  0.92084  1.0000
  N   N4        1.0  0.77817  0.15095  0.07916  1.0000
  N   N5        1.0  0.04301  0.67377  0.84143  1.0000
  N   N6        1.0  0.95699  0.32622  0.15857  1.0000
  N   N7        1.0  0.04447  0.18976  0.87932  1.0000
  N   N8        1.0  0.95553  0.81025  0.12069  1.0000
  N   N9        1.0  0.99064  0.11279  0.80536  1.0000
  N   N10       1.0  0.00936  0.88721  0.19464  1.0000
  N   N11       1.0  0.95595  0.32039  0.82317  1.0000
  N   N12       1.0  0.04405  0.67961  0.17683  1.0000
  N   N13       1.0  0.48067  0.32009  0.58348  1.0000
  N   N14       1.0  0.51934  0.67991  0.41652  1.0000
  N   N15       1.0  0.38790  0.35211  0.53727  1.0000
  N   N16       1.0  0.61210  0.64789  0.46273  1.0000
  N   N17       1.0  0.48337  0.21715  0.46442  1.0000
  N   N18       1.0  0.51663  0.78286  0.53558  1.0000
  N   N19       1.0  0.29252  0.50076  0.70348  1.0000
  N   N20       1.0  0.70748  0.49924  0.29652  1.0000
  N   N21       1.0  0.33128  0.58579  0.77608  1.0000
  N   N22       1.0  0.66872  0.41421  0.22392  1.0000
  N   N23       1.0  0.36468  0.71891  0.68178  1.0000
  N   N24       1.0  0.63532  0.28109  0.31822  1.0000
  Cl  Cl1       1.0  0.39891  0.92759  0.29292  1.0000
  Cl  Cl2       1.0  0.60109  0.07241  0.70708  1.0000
  O   O1        1.0  0.71587  0.47424  0.84328  1.0000
  O   O2        1.0  0.28413  0.52576  0.15672  1.0000
  O   O3        1.0  0.84097  0.47933  0.95553  1.0000
  O   O4        1.0  0.15903  0.52067  0.04447  1.0000
  O   O5        1.0  0.87733  0.43080  0.68665  1.0000
  O   O6        1.0  0.12266  0.56919  0.31335  1.0000
  O   O7        1.0  0.83365  0.62536  0.66418  1.0000
  O   O8        1.0  0.16635  0.37464  0.33581  1.0000
  O   O9        1.0  0.68851  0.07569  0.44521  1.0000
  O   O10       1.0  0.31149  0.92432  0.55479  1.0000
  O   O11       1.0  0.79466  0.05827  0.33624  1.0000
  O   O12       1.0  0.20533  0.94173  0.66377  1.0000
