data_image0
_chemical_formula_structural       NiH46C44N2O6
_chemical_formula_sum              "Ni1 H46 C44 N2 O6"
_cell_length_a       7.83408
_cell_length_b       10.7561
_cell_length_c       11.3867
_cell_angle_alpha    82.4997
_cell_angle_beta     81.9124
_cell_angle_gamma    70.6617

_space_group_name_H-M_alt    "P 1"
_space_group_IT_number       1

loop_
  _space_group_symop_operation_xyz
  'x, y, z'

loop_
  _atom_site_type_symbol
  _atom_site_label
  _atom_site_symmetry_multiplicity
  _atom_site_fract_x
  _atom_site_fract_y
  _atom_site_fract_z
  _atom_site_occupancy
  Ni  Ni1       1.0  0.00000  0.49999  0.00001  1.0000
  H   H1        1.0  0.53006  0.26783  0.13042  1.0000
  H   H2        1.0  0.46994  0.73217  0.86957  1.0000
  H   H3        1.0  0.48603  0.42094  0.18780  1.0000
  H   H4        1.0  0.51396  0.57906  0.81220  1.0000
  H   H5        1.0  0.76804  0.32894  0.29235  1.0000
  H   H6        1.0  0.23196  0.67105  0.70765  1.0000
  H   H7        1.0  0.71158  0.96354  0.82529  1.0000
  H   H8        1.0  0.28842  0.03644  0.17470  1.0000
  H   H9        1.0  0.64870  0.38137  0.47739  1.0000
  H   H10       1.0  0.35132  0.61862  0.52261  1.0000
  H   H11       1.0  0.45836  0.85097  0.16789  1.0000
  H   H12       1.0  0.54168  0.14903  0.83213  1.0000
  H   H13       1.0  0.92127  0.73671  0.82807  1.0000
  H   H14       1.0  0.07874  0.26327  0.17193  1.0000
  H   H15       1.0  0.68329  0.62810  0.15523  1.0000
  H   H16       1.0  0.31674  0.37189  0.84478  1.0000
  H   H17       1.0  0.74685  0.09143  0.09704  1.0000
  H   H18       1.0  0.25312  0.90857  0.90296  1.0000
  H   H19       1.0  0.25351  0.09906  0.50372  1.0000
  H   H20       1.0  0.74647  0.90095  0.49629  1.0000
  H   H21       1.0  0.96127  0.13501  0.41185  1.0000
  H   H22       1.0  0.03873  0.86499  0.58814  1.0000
  H   H23       1.0  0.45495  0.11892  0.31843  1.0000
  H   H24       1.0  0.54503  0.88108  0.68158  1.0000
  H   H25       1.0  0.24872  0.21954  0.67703  1.0000
  H   H26       1.0  0.75127  0.78046  0.32297  1.0000
  H   H27       1.0  0.18970  0.77542  0.23601  1.0000
  H   H28       1.0  0.81030  0.22458  0.76397  1.0000
  H   H29       1.0  0.45013  0.36053  0.66298  1.0000
  H   H30       1.0  0.54988  0.63946  0.33702  1.0000
  H   H31       1.0  0.18812  0.91080  0.39928  1.0000
  H   H32       1.0  0.81188  0.08919  0.60070  1.0000
  H   H33       1.0  0.97120  0.86769  0.08557  1.0000
  H   H34       1.0  0.02879  0.13231  0.91442  1.0000
  H   H35       1.0  0.81264  0.53067  0.53319  1.0000
  H   H36       1.0  0.18737  0.46937  0.46682  1.0000
  H   H37       1.0  0.72077  0.43380  0.64628  1.0000
  H   H38       1.0  0.27923  0.56624  0.35371  1.0000
  H   H39       1.0  0.94879  0.36722  0.58123  1.0000
  H   H40       1.0  0.05121  0.63280  0.41876  1.0000
  H   H41       1.0  0.03120  0.54238  0.66761  1.0000
  H   H42       1.0  0.96882  0.45762  0.33240  1.0000
  H   H43       1.0  0.80432  0.60321  0.73413  1.0000
  H   H44       1.0  0.19570  0.39681  0.26588  1.0000
  H   H45       1.0  0.85664  0.40251  0.85203  1.0000
  H   H46       1.0  0.14336  0.59750  0.14797  1.0000
  C   C1        1.0  0.71678  0.37451  0.06085  1.0000
  C   C2        1.0  0.28322  0.62548  0.93915  1.0000
  C   C3        1.0  0.56327  0.93176  0.99793  1.0000
  C   C4        1.0  0.43675  0.06823  0.00207  1.0000
  C   C5        1.0  0.56495  0.25270  0.38467  1.0000
  C   C6        1.0  0.43503  0.74728  0.61533  1.0000
  C   C7        1.0  0.83529  0.12849  0.25692  1.0000
  C   C8        1.0  0.16469  0.87151  0.74307  1.0000
  C   C9        1.0  0.59539  0.33023  0.16354  1.0000
  C   C10       1.0  0.40460  0.66977  0.83646  1.0000
  C   C11       1.0  0.69438  0.26363  0.27383  1.0000
  C   C12       1.0  0.30561  0.73637  0.72617  1.0000
  C   C13       1.0  0.69582  0.89416  0.90114  1.0000
  C   C14       1.0  0.30419  0.10583  0.09886  1.0000
  C   C15       1.0  0.56239  0.31892  0.48318  1.0000
  C   C16       1.0  0.43761  0.68107  0.51681  1.0000
  C   C17       1.0  0.55823  0.83241  0.09023  1.0000
  C   C18       1.0  0.44180  0.16759  0.90978  1.0000
  C   C19       1.0  0.81575  0.76617  0.90119  1.0000
  C   C20       1.0  0.18426  0.23382  0.09881  1.0000
  C   C21       1.0  0.68273  0.70643  0.08461  1.0000
  C   C22       1.0  0.31729  0.29356  0.91540  1.0000
  C   C23       1.0  0.84104  0.05233  0.16483  1.0000
  C   C24       1.0  0.15894  0.94767  0.83517  1.0000
  C   C25       1.0  0.33916  0.16194  0.49769  1.0000
  C   C26       1.0  0.66082  0.83806  0.50231  1.0000
  C   C27       1.0  0.96266  0.07584  0.34050  1.0000
  C   C28       1.0  0.03733  0.92416  0.65949  1.0000
  C   C29       1.0  0.45196  0.17368  0.39335  1.0000
  C   C30       1.0  0.54801  0.82632  0.60665  1.0000
  C   C31       1.0  0.33800  0.22810  0.59591  1.0000
  C   C32       1.0  0.66199  0.77189  0.40409  1.0000
  C   C33       1.0  0.09190  0.87401  0.24234  1.0000
  C   C34       1.0  0.90809  0.12599  0.75765  1.0000
  C   C35       1.0  0.45038  0.30678  0.58796  1.0000
  C   C36       1.0  0.54962  0.69321  0.41204  1.0000
  C   C37       1.0  0.08968  0.94985  0.33382  1.0000
  C   C38       1.0  0.91031  0.05015  0.66617  1.0000
  C   C39       1.0  0.96823  0.92598  0.15767  1.0000
  C   C40       1.0  0.03176  0.07402  0.84232  1.0000
  C   C41       1.0  0.84495  0.45785  0.61042  1.0000
  C   C42       1.0  0.15506  0.54218  0.38958  1.0000
  C   C43       1.0  0.91106  0.51309  0.70470  1.0000
  C   C44       1.0  0.08896  0.48692  0.29531  1.0000
  N   N1        1.0  0.81222  0.67281  0.99229  1.0000
  N   N2        1.0  0.18779  0.32717  0.00772  1.0000
  O   O1        1.0  0.82961  0.42312  0.09649  1.0000
  O   O2        1.0  0.17040  0.57687  0.90352  1.0000
  O   O3        1.0  0.69878  0.36533  0.95496  1.0000
  O   O4        1.0  0.30123  0.63467  0.04504  1.0000
  O   O5        1.0  0.96561  0.41816  0.80318  1.0000
  O   O6        1.0  0.03439  0.58185  0.19683  1.0000
