data_image0
_chemical_formula_structural       ZnH46C44N2O6
_chemical_formula_sum              "Zn1 H46 C44 N2 O6"
_cell_length_a       8.57048
_cell_length_b       10.7025
_cell_length_c       10.9935
_cell_angle_alpha    81.8038
_cell_angle_beta     69.5998
_cell_angle_gamma    78.4582

_space_group_name_H-M_alt    "P 1"
_space_group_IT_number       1

loop_
  _space_group_symop_operation_xyz
  'x, y, z'

loop_
  _atom_site_type_symbol
  _atom_site_label
  _atom_site_symmetry_multiplicity
  _atom_site_fract_x
  _atom_site_fract_y
  _atom_site_fract_z
  _atom_site_occupancy
  Zn  Zn1       1.0  0.00000  1.00000  0.50000  1.0000
  H   H1        1.0  0.50136  0.23774  0.41685  1.0000
  H   H2        1.0  0.49864  0.76226  0.58315  1.0000
  H   H3        1.0  0.56208  0.18418  0.26073  1.0000
  H   H4        1.0  0.43792  0.81582  0.73928  1.0000
  H   H5        1.0  0.74728  0.35075  0.35015  1.0000
  H   H6        1.0  0.25273  0.64925  0.64985  1.0000
  H   H7        1.0  0.60506  0.54560  0.40293  1.0000
  H   H8        1.0  0.39493  0.45441  0.59708  1.0000
  H   H9        1.0  0.37945  0.73114  0.39571  1.0000
  H   H10       1.0  0.62054  0.26887  0.60429  1.0000
  H   H11       1.0  0.21332  0.73668  0.24963  1.0000
  H   H12       1.0  0.78668  0.26332  0.75037  1.0000
  H   H13       1.0  0.27457  0.55740  0.10909  1.0000
  H   H14       1.0  0.72543  0.44259  0.89090  1.0000
  H   H15       1.0  0.49750  0.37276  0.11723  1.0000
  H   H16       1.0  0.50251  0.62724  0.88277  1.0000
  H   H17       1.0  0.73646  0.20540  0.05867  1.0000
  H   H18       1.0  0.26354  0.79459  0.94133  1.0000
  H   H19       1.0  0.98201  0.18502  0.85634  1.0000
  H   H20       1.0  0.01798  0.81498  0.14366  1.0000
  H   H21       1.0  0.23692  0.27747  0.83142  1.0000
  H   H22       1.0  0.76307  0.72254  0.16857  1.0000
  H   H23       1.0  0.24590  0.38768  0.01233  1.0000
  H   H24       1.0  0.75410  0.61232  0.98766  1.0000
  H   H25       1.0  0.99948  0.40908  0.21583  1.0000
  H   H26       1.0  0.00053  0.59092  0.78416  1.0000
  H   H27       1.0  0.98939  0.96968  0.78240  1.0000
  H   H28       1.0  0.01061  0.03033  0.21760  1.0000
  H   H29       1.0  0.78096  0.97659  0.00225  1.0000
  H   H30       1.0  0.21905  0.02342  0.99774  1.0000
  H   H31       1.0  0.39343  0.01848  0.82172  1.0000
  H   H32       1.0  0.60657  0.98152  0.17829  1.0000
  H   H33       1.0  0.61787  0.00574  0.61287  1.0000
  H   H34       1.0  0.38212  0.99425  0.38713  1.0000
  H   H35       1.0  0.18521  0.45132  0.47768  1.0000
  H   H36       1.0  0.81480  0.54868  0.52232  1.0000
  H   H37       1.0  0.25397  0.32227  0.57816  1.0000
  H   H38       1.0  0.74604  0.67773  0.42184  1.0000
  H   H39       1.0  0.04151  0.40123  0.63109  1.0000
  H   H40       1.0  0.95850  0.59877  0.36892  1.0000
  H   H41       1.0  0.98593  0.31429  0.45315  1.0000
  H   H42       1.0  0.01408  0.68571  0.54685  1.0000
  H   H43       1.0  0.20225  0.24792  0.38798  1.0000
  H   H44       1.0  0.79775  0.75208  0.61202  1.0000
  H   H45       1.0  0.15985  0.11582  0.59326  1.0000
  H   H46       1.0  0.84015  0.88417  0.40674  1.0000
  C   C1        1.0  0.72380  0.09923  0.37320  1.0000
  C   C2        1.0  0.27620  0.90077  0.62681  1.0000
  C   C3        1.0  0.61154  0.21290  0.33014  1.0000
  C   C4        1.0  0.38847  0.78710  0.66986  1.0000
  C   C5        1.0  0.69819  0.33126  0.27595  1.0000
  C   C6        1.0  0.30182  0.66874  0.72405  1.0000
  C   C7        1.0  0.56790  0.44654  0.26102  1.0000
  C   C8        1.0  0.43210  0.55346  0.73898  1.0000
  C   C9        1.0  0.53352  0.54924  0.33738  1.0000
  C   C10       1.0  0.46647  0.45076  0.66262  1.0000
  C   C11       1.0  0.40745  0.65338  0.33323  1.0000
  C   C12       1.0  0.59254  0.34662  0.66677  1.0000
  C   C13       1.0  0.31381  0.65658  0.25098  1.0000
  C   C14       1.0  0.68619  0.34342  0.74902  1.0000
  C   C15       1.0  0.34756  0.55517  0.17340  1.0000
  C   C16       1.0  0.65244  0.44482  0.82660  1.0000
  C   C17       1.0  0.47338  0.45104  0.17843  1.0000
  C   C18       1.0  0.52662  0.54896  0.82157  1.0000
  C   C19       1.0  0.84908  0.31036  0.15215  1.0000
  C   C20       1.0  0.15091  0.68964  0.84785  1.0000
  C   C21       1.0  0.84731  0.24605  0.05003  1.0000
  C   C22       1.0  0.15269  0.75395  0.94997  1.0000
  C   C23       1.0  0.98580  0.23421  0.93536  1.0000
  C   C24       1.0  0.01419  0.76579  0.06464  1.0000
  C   C25       1.0  0.12915  0.28575  0.92098  1.0000
  C   C26       1.0  0.87084  0.71425  0.07901  1.0000
  C   C27       1.0  0.13391  0.34778  0.02284  1.0000
  C   C28       1.0  0.86608  0.65223  0.97715  1.0000
  C   C29       1.0  0.99534  0.35970  0.13692  1.0000
  C   C30       1.0  0.00466  0.64030  0.86307  1.0000
  C   C31       1.0  0.85560  0.98003  0.79594  1.0000
  C   C32       1.0  0.14439  0.01998  0.20405  1.0000
  C   C33       1.0  0.73682  0.98477  0.91956  1.0000
  C   C34       1.0  0.26318  0.01524  0.08044  1.0000
  C   C35       1.0  0.56494  0.99789  0.93504  1.0000
  C   C36       1.0  0.43506  0.00211  0.06496  1.0000
  C   C37       1.0  0.52268  0.00651  0.82154  1.0000
  C   C38       1.0  0.47732  0.99348  0.17846  1.0000
  C   C39       1.0  0.64952  0.00028  0.70145  1.0000
  C   C40       1.0  0.35047  0.99972  0.29855  1.0000
  C   C41       1.0  0.14725  0.36819  0.54530  1.0000
  C   C42       1.0  0.85276  0.63181  0.45470  1.0000
  C   C43       1.0  0.09970  0.27390  0.47896  1.0000
  C   C44       1.0  0.90030  0.72611  0.52105  1.0000
  N   N1        1.0  0.81371  0.98734  0.68786  1.0000
  N   N2        1.0  0.18629  0.01266  0.31214  1.0000
  O   O1        1.0  0.71171  0.98727  0.35452  1.0000
  O   O2        1.0  0.28829  0.01273  0.64548  1.0000
  O   O3        1.0  0.82078  0.12521  0.42840  1.0000
  O   O4        1.0  0.17922  0.87479  0.57160  1.0000
  O   O5        1.0  0.06043  0.16124  0.56424  1.0000
  O   O6        1.0  0.93957  0.83876  0.43576  1.0000
