data_image0
_chemical_formula_structural       CoH46C44N2O6
_chemical_formula_sum              "Co1 H46 C44 N2 O6"
_cell_length_a       8.5046
_cell_length_b       10.8778
_cell_length_c       10.6984
_cell_angle_alpha    80.6501
_cell_angle_beta     68.6469
_cell_angle_gamma    77.5792

_space_group_name_H-M_alt    "P 1"
_space_group_IT_number       1

loop_
  _space_group_symop_operation_xyz
  'x, y, z'

loop_
  _atom_site_type_symbol
  _atom_site_label
  _atom_site_symmetry_multiplicity
  _atom_site_fract_x
  _atom_site_fract_y
  _atom_site_fract_z
  _atom_site_occupancy
  Co  Co1       1.0  0.00000  1.00000  1.00000  1.0000
  H   H1        1.0  0.43739  0.81210  0.22691  1.0000
  H   H2        1.0  0.56262  0.18790  0.77309  1.0000
  H   H3        1.0  0.49133  0.76336  0.06568  1.0000
  H   H4        1.0  0.50868  0.23664  0.93432  1.0000
  H   H5        1.0  0.24737  0.64875  0.14229  1.0000
  H   H6        1.0  0.75263  0.35125  0.85771  1.0000
  H   H7        1.0  0.38785  0.45254  0.09842  1.0000
  H   H8        1.0  0.61214  0.54746  0.90159  1.0000
  H   H9        1.0  0.61454  0.26781  0.11294  1.0000
  H   H10       1.0  0.38545  0.73219  0.88706  1.0000
  H   H11       1.0  0.78559  0.26785  0.25674  1.0000
  H   H12       1.0  0.21440  0.73215  0.74326  1.0000
  H   H13       1.0  0.72685  0.45071  0.39033  1.0000
  H   H14       1.0  0.27316  0.54929  0.60966  1.0000
  H   H15       1.0  0.50296  0.63424  0.37526  1.0000
  H   H16       1.0  0.49705  0.36576  0.62474  1.0000
  H   H17       1.0  0.25809  0.79378  0.43753  1.0000
  H   H18       1.0  0.74191  0.20622  0.56247  1.0000
  H   H19       1.0  0.00952  0.81521  0.64867  1.0000
  H   H20       1.0  0.99048  0.18479  0.35133  1.0000
  H   H21       1.0  0.75053  0.72548  0.68001  1.0000
  H   H22       1.0  0.24948  0.27452  0.31999  1.0000
  H   H23       1.0  0.74166  0.61474  0.49797  1.0000
  H   H24       1.0  0.25833  0.38526  0.50203  1.0000
  H   H25       1.0  0.99160  0.59201  0.28567  1.0000
  H   H26       1.0  0.00840  0.40800  0.71433  1.0000
  H   H27       1.0  0.99639  0.98343  0.27519  1.0000
  H   H28       1.0  0.00361  0.01658  0.72480  1.0000
  H   H29       1.0  0.78343  0.98644  0.50010  1.0000
  H   H30       1.0  0.21658  0.01356  0.49990  1.0000
  H   H31       1.0  0.39928  0.00712  0.31528  1.0000
  H   H32       1.0  0.60072  0.99286  0.68472  1.0000
  H   H33       1.0  0.62746  0.99409  0.10124  1.0000
  H   H34       1.0  0.37254  0.00589  0.89875  1.0000
  H   H35       1.0  0.80988  0.54890  0.03057  1.0000
  H   H36       1.0  0.19012  0.45110  0.96943  1.0000
  H   H37       1.0  0.96075  0.59326  0.87068  1.0000
  H   H38       1.0  0.03926  0.40674  0.12931  1.0000
  H   H39       1.0  0.74764  0.67731  0.92261  1.0000
  H   H40       1.0  0.25236  0.32269  0.07739  1.0000
  H   H41       1.0  0.79939  0.74880  0.11718  1.0000
  H   H42       1.0  0.20061  0.25120  0.88282  1.0000
  H   H43       1.0  0.01763  0.67759  0.05126  1.0000
  H   H44       1.0  0.98237  0.32240  0.94874  1.0000
  H   H45       1.0  0.84787  0.87853  0.90752  1.0000
  H   H46       1.0  0.15213  0.12147  0.09247  1.0000
  C   C1        1.0  0.26721  0.90224  0.12078  1.0000
  C   C2        1.0  0.73279  0.09776  0.87922  1.0000
  C   C3        1.0  0.38268  0.78641  0.15843  1.0000
  C   C4        1.0  0.61732  0.21359  0.84156  1.0000
  C   C5        1.0  0.29635  0.66943  0.21722  1.0000
  C   C6        1.0  0.70365  0.33057  0.78278  1.0000
  C   C7        1.0  0.42924  0.55605  0.23494  1.0000
  C   C8        1.0  0.57076  0.44395  0.76506  1.0000
  C   C9        1.0  0.46169  0.45124  0.16325  1.0000
  C   C10       1.0  0.53830  0.54877  0.83675  1.0000
  C   C11       1.0  0.58821  0.34774  0.17146  1.0000
  C   C12       1.0  0.41178  0.65226  0.82854  1.0000
  C   C13       1.0  0.68433  0.34741  0.25304  1.0000
  C   C14       1.0  0.31566  0.65259  0.74695  1.0000
  C   C15       1.0  0.65237  0.45100  0.32610  1.0000
  C   C16       1.0  0.34763  0.54901  0.67390  1.0000
  C   C17       1.0  0.52603  0.55446  0.31716  1.0000
  C   C18       1.0  0.47398  0.44554  0.68284  1.0000
  C   C19       1.0  0.14329  0.69040  0.34600  1.0000
  C   C20       1.0  0.85671  0.30960  0.65400  1.0000
  C   C21       1.0  0.14550  0.75417  0.44914  1.0000
  C   C22       1.0  0.85450  0.24584  0.55086  1.0000
  C   C23       1.0  0.00516  0.76673  0.56868  1.0000
  C   C24       1.0  0.99484  0.23327  0.43131  1.0000
  C   C25       1.0  0.85978  0.71644  0.58671  1.0000
  C   C26       1.0  0.14022  0.28356  0.41329  1.0000
  C   C27       1.0  0.85498  0.65431  0.48408  1.0000
  C   C28       1.0  0.14502  0.34570  0.51592  1.0000
  C   C29       1.0  0.99550  0.64162  0.36511  1.0000
  C   C30       1.0  0.00450  0.35839  0.63489  1.0000
  C   C31       1.0  0.86301  0.98734  0.28791  1.0000
  C   C32       1.0  0.13699  0.01266  0.71209  1.0000
  C   C33       1.0  0.74030  0.99051  0.41535  1.0000
  C   C34       1.0  0.25970  0.00948  0.58465  1.0000
  C   C35       1.0  0.56679  0.99778  0.43306  1.0000
  C   C36       1.0  0.43321  0.00221  0.56694  1.0000
  C   C37       1.0  0.52890  0.00007  0.31532  1.0000
  C   C38       1.0  0.47111  0.99992  0.68468  1.0000
  C   C39       1.0  0.65857  0.99468  0.19103  1.0000
  C   C40       1.0  0.34143  0.00531  0.80897  1.0000
  C   C41       1.0  0.85326  0.62920  0.95820  1.0000
  C   C42       1.0  0.14674  0.37079  0.04180  1.0000
  C   C43       1.0  0.90407  0.72075  0.02375  1.0000
  C   C44       1.0  0.09593  0.27925  0.97625  1.0000
  N   N1        1.0  0.82521  0.98985  0.17490  1.0000
  N   N2        1.0  0.17479  0.01015  0.82509  1.0000
  O   O1        1.0  0.16249  0.88046  0.06876  1.0000
  O   O2        1.0  0.83751  0.11953  0.93124  1.0000
  O   O3        1.0  0.28423  0.01027  0.13922  1.0000
  O   O4        1.0  0.71578  0.98973  0.86078  1.0000
  O   O5        1.0  0.94916  0.83027  0.93301  1.0000
  O   O6        1.0  0.05084  0.16972  0.06699  1.0000
