data_image0
_chemical_formula_structural       Zn4H20C16N12O8
_chemical_formula_sum              "Zn4 H20 C16 N12 O8"
_cell_length_a       8.19533
_cell_length_b       8.43677
_cell_length_c       9.27456
_cell_angle_alpha    90
_cell_angle_beta     90
_cell_angle_gamma    89.9999

_space_group_name_H-M_alt    "P 1"
_space_group_IT_number       1

loop_
  _space_group_symop_operation_xyz
  'x, y, z'

loop_
  _atom_site_type_symbol
  _atom_site_label
  _atom_site_symmetry_multiplicity
  _atom_site_fract_x
  _atom_site_fract_y
  _atom_site_fract_z
  _atom_site_occupancy
  Zn  Zn1       1.0  0.26878  0.11238  0.00000  1.0000
  Zn  Zn2       1.0  0.76878  0.88762  0.50000  1.0000
  Zn  Zn3       1.0  0.92583  0.48431  0.50000  1.0000
  Zn  Zn4       1.0  0.42583  0.51569  0.00000  1.0000
  H   H1        1.0  0.03802  0.55327  0.00000  1.0000
  H   H2        1.0  0.53802  0.44673  0.50000  1.0000
  H   H3        1.0  0.92759  0.70332  0.90494  1.0000
  H   H4        1.0  0.42759  0.29668  0.59506  1.0000
  H   H5        1.0  0.92759  0.70332  0.09506  1.0000
  H   H6        1.0  0.42759  0.29668  0.40494  1.0000
  H   H7        1.0  0.86916  0.19250  0.00000  1.0000
  H   H8        1.0  0.36916  0.80750  0.50000  1.0000
  H   H9        1.0  0.80595  0.01823  0.90561  1.0000
  H   H10       1.0  0.30595  0.98177  0.59439  1.0000
  H   H11       1.0  0.80595  0.01823  0.09439  1.0000
  H   H12       1.0  0.30595  0.98177  0.40561  1.0000
  H   H13       1.0  0.03211  0.15011  0.69623  1.0000
  H   H14       1.0  0.53211  0.84989  0.80377  1.0000
  H   H15       1.0  0.03211  0.15011  0.30377  1.0000
  H   H16       1.0  0.53211  0.84989  0.19623  1.0000
  H   H17       1.0  0.21716  0.61270  0.70923  1.0000
  H   H18       1.0  0.71716  0.38730  0.79077  1.0000
  H   H19       1.0  0.21716  0.61270  0.29077  1.0000
  H   H20       1.0  0.71716  0.38730  0.20923  1.0000
  C   C1        1.0  0.00291  0.67818  0.00000  1.0000
  C   C2        1.0  0.50291  0.32183  0.50000  1.0000
  C   C3        1.0  0.14927  0.78746  0.00000  1.0000
  C   C4        1.0  0.64927  0.21254  0.50000  1.0000
  C   C5        1.0  0.78306  0.09338  0.00000  1.0000
  C   C6        1.0  0.28306  0.90662  0.50000  1.0000
  C   C7        1.0  0.60910  0.15145  0.00000  1.0000
  C   C8        1.0  0.10910  0.84855  0.50000  1.0000
  C   C9        1.0  0.09975  0.25500  0.72850  1.0000
  C   C10       1.0  0.59975  0.74500  0.77150  1.0000
  C   C11       1.0  0.09975  0.25500  0.27150  1.0000
  C   C12       1.0  0.59975  0.74500  0.22850  1.0000
  C   C13       1.0  0.19498  0.48931  0.73432  1.0000
  C   C14       1.0  0.69498  0.51069  0.76568  1.0000
  C   C15       1.0  0.19498  0.48931  0.26568  1.0000
  C   C16       1.0  0.69498  0.51069  0.23432  1.0000
  N   N1        1.0  0.27210  0.41044  0.83790  1.0000
  N   N2        1.0  0.77210  0.58956  0.66210  1.0000
  N   N3        1.0  0.27210  0.41044  0.16210  1.0000
  N   N4        1.0  0.77210  0.58956  0.33790  1.0000
  N   N5        1.0  0.21096  0.25880  0.83449  1.0000
  N   N6        1.0  0.71096  0.74120  0.66551  1.0000
  N   N7        1.0  0.21096  0.25880  0.16551  1.0000
  N   N8        1.0  0.71096  0.74120  0.33449  1.0000
  N   N9        1.0  0.08593  0.39754  0.66338  1.0000
  N   N10       1.0  0.58593  0.60246  0.83662  1.0000
  N   N11       1.0  0.08593  0.39754  0.33662  1.0000
  N   N12       1.0  0.58593  0.60246  0.16338  1.0000
  O   O1        1.0  0.11335  0.93645  0.00000  1.0000
  O   O2        1.0  0.61335  0.06355  0.50000  1.0000
  O   O3        1.0  0.29407  0.73679  0.00000  1.0000
  O   O4        1.0  0.79407  0.26321  0.50000  1.0000
  O   O5        1.0  0.58179  0.29813  0.00000  1.0000
  O   O6        1.0  0.08179  0.70187  0.50000  1.0000
  O   O7        1.0  0.49771  0.04305  0.00000  1.0000
  O   O8        1.0  0.99771  0.95695  0.50000  1.0000
