data_image0
_chemical_formula_structural       Cd2H6C4N6Cl4
_chemical_formula_sum              "Cd2 H6 C4 N6 Cl4"
_cell_length_a       7.2004
_cell_length_b       7.15918
_cell_length_c       7.8414
_cell_angle_alpha    117.165
_cell_angle_beta     117.329
_cell_angle_gamma    89.9932

_space_group_name_H-M_alt    "P 1"
_space_group_IT_number       1

loop_
  _space_group_symop_operation_xyz
  'x, y, z'

loop_
  _atom_site_type_symbol
  _atom_site_label
  _atom_site_symmetry_multiplicity
  _atom_site_fract_x
  _atom_site_fract_y
  _atom_site_fract_z
  _atom_site_occupancy
  Cd  Cd1       1.0  0.00000  1.00000  0.50000  1.0000
  Cd  Cd2       1.0  0.50000  0.00000  0.50000  1.0000
  H   H1        1.0  0.18145  0.43134  0.36231  1.0000
  H   H2        1.0  0.81854  0.56865  0.63769  1.0000
  H   H3        1.0  0.35076  0.30702  0.11335  1.0000
  H   H4        1.0  0.76320  0.30690  0.11402  1.0000
  H   H5        1.0  0.23680  0.69311  0.88598  1.0000
  H   H6        1.0  0.64924  0.69297  0.88665  1.0000
  C   C1        1.0  0.17884  0.27748  0.05465  1.0000
  C   C2        1.0  0.87621  0.27744  0.05506  1.0000
  C   C3        1.0  0.12379  0.72256  0.94494  1.0000
  C   C4        1.0  0.82116  0.72251  0.94534  1.0000
  N   N1        1.0  0.01746  0.17221  0.84423  1.0000
  N   N2        1.0  0.82680  0.17222  0.84452  1.0000
  N   N3        1.0  0.17320  0.82778  0.15548  1.0000
  N   N4        1.0  0.98254  0.82779  0.15577  1.0000
  N   N5        1.0  0.09520  0.34509  0.19002  1.0000
  N   N6        1.0  0.90480  0.65491  0.80998  1.0000
  Cl  Cl1       1.0  0.67745  0.17464  0.35494  1.0000
  Cl  Cl2       1.0  0.67758  0.68033  0.35510  1.0000
  Cl  Cl3       1.0  0.32256  0.82537  0.64506  1.0000
  Cl  Cl4       1.0  0.32242  0.31967  0.64490  1.0000
