data_image0
_chemical_formula_structural       Cd6H40C24N22Cl6O4
_chemical_formula_sum              "Cd6 H40 C24 N22 Cl6 O4"
_cell_length_a       8.43612
_cell_length_b       8.43812
_cell_length_c       16.688
_cell_angle_alpha    90
_cell_angle_beta     90
_cell_angle_gamma    90.7821

_space_group_name_H-M_alt    "P 1"
_space_group_IT_number       1

loop_
  _space_group_symop_operation_xyz
  'x, y, z'

loop_
  _atom_site_type_symbol
  _atom_site_label
  _atom_site_symmetry_multiplicity
  _atom_site_fract_x
  _atom_site_fract_y
  _atom_site_fract_z
  _atom_site_occupancy
  Cd  Cd1       1.0  0.94014  0.05988  0.31627  1.0000
  Cd  Cd2       1.0  0.05986  0.94012  0.81627  1.0000
  Cd  Cd3       1.0  0.30419  0.69580  0.17755  1.0000
  Cd  Cd4       1.0  0.69581  0.30420  0.67755  1.0000
  Cd  Cd5       1.0  0.61742  0.38252  0.28218  1.0000
  Cd  Cd6       1.0  0.38258  0.61748  0.78218  1.0000
  H   H1        1.0  0.67234  0.76058  0.26205  1.0000
  H   H2        1.0  0.32767  0.23942  0.76205  1.0000
  H   H3        1.0  0.23950  0.32768  0.26204  1.0000
  H   H4        1.0  0.76050  0.67232  0.76204  1.0000
  H   H5        1.0  0.34636  0.10396  0.19027  1.0000
  H   H6        1.0  0.65365  0.89604  0.69027  1.0000
  H   H7        1.0  0.89599  0.65356  0.19029  1.0000
  H   H8        1.0  0.10401  0.34644  0.69029  1.0000
  H   H9        1.0  0.56370  0.43629  0.48921  1.0000
  H   H10       1.0  0.43629  0.56370  0.98921  1.0000
  H   H11       1.0  0.90816  0.09184  0.53276  1.0000
  H   H12       1.0  0.09184  0.90816  0.03276  1.0000
  H   H13       1.0  0.39405  0.16639  0.56777  1.0000
  H   H14       1.0  0.60595  0.83361  0.06778  1.0000
  H   H15       1.0  0.83357  0.60598  0.56778  1.0000
  H   H16       1.0  0.16642  0.39402  0.06778  1.0000
  H   H17       1.0  0.24718  0.01984  0.59249  1.0000
  H   H18       1.0  0.75282  0.98016  0.09249  1.0000
  H   H19       1.0  0.98018  0.75280  0.59249  1.0000
  H   H20       1.0  0.01982  0.24720  0.09249  1.0000
  H   H21       1.0  0.20451  0.16940  0.51981  1.0000
  H   H22       1.0  0.79549  0.83060  0.01981  1.0000
  H   H23       1.0  0.83057  0.79548  0.51982  1.0000
  H   H24       1.0  0.16943  0.20452  0.01982  1.0000
  H   H25       1.0  0.45190  0.80540  0.54595  1.0000
  H   H26       1.0  0.54810  0.19460  0.04595  1.0000
  H   H27       1.0  0.19461  0.54809  0.54594  1.0000
  H   H28       1.0  0.80539  0.45191  0.04594  1.0000
  H   H29       1.0  0.58935  0.95677  0.51524  1.0000
  H   H30       1.0  0.41064  0.04323  0.01525  1.0000
  H   H31       1.0  0.04318  0.41069  0.51524  1.0000
  H   H32       1.0  0.95682  0.58931  0.01523  1.0000
  H   H33       1.0  0.51305  0.81723  0.44366  1.0000
  H   H34       1.0  0.48694  0.18277  0.94366  1.0000
  H   H35       1.0  0.18277  0.48696  0.44365  1.0000
  H   H36       1.0  0.81723  0.51304  0.94365  1.0000
  H   H37       1.0  0.34040  0.91509  0.36308  1.0000
  H   H38       1.0  0.65959  0.08492  0.86309  1.0000
  H   H39       1.0  0.08491  0.65960  0.36308  1.0000
  H   H40       1.0  0.91510  0.34040  0.86308  1.0000
  C   C1        1.0  0.61770  0.87308  0.24916  1.0000
  C   C2        1.0  0.38230  0.12691  0.74916  1.0000
  C   C3        1.0  0.12695  0.38230  0.24916  1.0000
  C   C4        1.0  0.87305  0.61770  0.74916  1.0000
  C   C5        1.0  0.45214  0.04815  0.21324  1.0000
  C   C6        1.0  0.54787  0.95185  0.71324  1.0000
  C   C7        1.0  0.95183  0.54780  0.21325  1.0000
  C   C8        1.0  0.04817  0.45220  0.71325  1.0000
  C   C9        1.0  0.65331  0.34669  0.48091  1.0000
  C   C10       1.0  0.34669  0.65331  0.98091  1.0000
  C   C11       1.0  0.82821  0.17178  0.50251  1.0000
  C   C12       1.0  0.17179  0.82822  0.00251  1.0000
  C   C13       1.0  0.28985  0.99996  0.40620  1.0000
  C   C14       1.0  0.71015  0.00004  0.90620  1.0000
  C   C15       1.0  0.00004  0.71017  0.40621  1.0000
  C   C16       1.0  0.99996  0.28983  0.90620  1.0000
  C   C17       1.0  0.29673  0.09299  0.54381  1.0000
  C   C18       1.0  0.70327  0.90701  0.04381  1.0000
  C   C19       1.0  0.90700  0.70327  0.54381  1.0000
  C   C20       1.0  0.09300  0.29673  0.04381  1.0000
  C   C21       1.0  0.48439  0.88700  0.49704  1.0000
  C   C22       1.0  0.51560  0.11300  0.99705  1.0000
  C   C23       1.0  0.11298  0.51562  0.49704  1.0000
  C   C24       1.0  0.88702  0.48438  0.99703  1.0000
  N   N1        1.0  0.68388  0.01260  0.26643  1.0000
  N   N2        1.0  0.31612  0.98740  0.76643  1.0000
  N   N3        1.0  0.98742  0.31610  0.26642  1.0000
  N   N4        1.0  0.01258  0.68390  0.76642  1.0000
  N   N5        1.0  0.57720  0.12546  0.24350  1.0000
  N   N6        1.0  0.42280  0.87454  0.74350  1.0000
  N   N7        1.0  0.87451  0.42275  0.24350  1.0000
  N   N8        1.0  0.12549  0.57725  0.74350  1.0000
  N   N9        1.0  0.47224  0.88937  0.21592  1.0000
  N   N10       1.0  0.52777  0.11063  0.71592  1.0000
  N   N11       1.0  0.11064  0.52774  0.21593  1.0000
  N   N12       1.0  0.88936  0.47227  0.71593  1.0000
  N   N13       1.0  0.70265  0.29733  0.40938  1.0000
  N   N14       1.0  0.29735  0.70267  0.90938  1.0000
  N   N15       1.0  0.81526  0.18472  0.42337  1.0000
  N   N16       1.0  0.18474  0.81528  0.92337  1.0000
  N   N17       1.0  0.72889  0.27111  0.54134  1.0000
  N   N18       1.0  0.27111  0.72889  0.04134  1.0000
  N   N19       1.0  0.35414  0.99285  0.47937  1.0000
  N   N20       1.0  0.64586  0.00715  0.97937  1.0000
  N   N21       1.0  0.00714  0.64587  0.47937  1.0000
  N   N22       1.0  0.99287  0.35413  0.97937  1.0000
  Cl  Cl1       1.0  0.06975  0.93018  0.19179  1.0000
  Cl  Cl2       1.0  0.93025  0.06982  0.69179  1.0000
  Cl  Cl3       1.0  0.42766  0.57238  0.34517  1.0000
  Cl  Cl4       1.0  0.57234  0.42762  0.84518  1.0000
  Cl  Cl5       1.0  0.51917  0.48082  0.13960  1.0000
  Cl  Cl6       1.0  0.48084  0.51918  0.63960  1.0000
  O   O1        1.0  0.18179  0.09367  0.38724  1.0000
  O   O2        1.0  0.81821  0.90634  0.88725  1.0000
  O   O3        1.0  0.90637  0.81825  0.38726  1.0000
  O   O4        1.0  0.09364  0.18174  0.88726  1.0000
