data_image0
_chemical_formula_structural       Cd8H36C24N48Cl4
_chemical_formula_sum              "Cd8 H36 C24 N48 Cl4"
_cell_length_a       8.08541
_cell_length_b       10.0433
_cell_length_c       16.562
_cell_angle_alpha    90
_cell_angle_beta     90
_cell_angle_gamma    90

_space_group_name_H-M_alt    "P 1"
_space_group_IT_number       1

loop_
  _space_group_symop_operation_xyz
  'x, y, z'

loop_
  _atom_site_type_symbol
  _atom_site_label
  _atom_site_symmetry_multiplicity
  _atom_site_fract_x
  _atom_site_fract_y
  _atom_site_fract_z
  _atom_site_occupancy
  Cd  Cd1       1.0  0.10636  0.75000  0.77680  1.0000
  Cd  Cd2       1.0  0.60636  0.25000  0.72320  1.0000
  Cd  Cd3       1.0  0.39364  0.75000  0.27680  1.0000
  Cd  Cd4       1.0  0.89364  0.25000  0.22320  1.0000
  Cd  Cd5       1.0  0.05245  0.75000  0.54074  1.0000
  Cd  Cd6       1.0  0.55245  0.25000  0.95926  1.0000
  Cd  Cd7       1.0  0.44755  0.75000  0.04074  1.0000
  Cd  Cd8       1.0  0.94755  0.25000  0.45926  1.0000
  H   H1        1.0  0.85376  0.02660  0.79885  1.0000
  H   H2        1.0  0.35377  0.97340  0.70115  1.0000
  H   H3        1.0  0.64623  0.47340  0.29885  1.0000
  H   H4        1.0  0.14623  0.52660  0.20115  1.0000
  H   H5        1.0  0.14624  0.97340  0.20115  1.0000
  H   H6        1.0  0.64623  0.02660  0.29885  1.0000
  H   H7        1.0  0.35376  0.52660  0.70115  1.0000
  H   H8        1.0  0.85376  0.47340  0.79885  1.0000
  H   H9        1.0  0.06143  0.75000  0.98600  1.0000
  H   H10       1.0  0.56143  0.25000  0.51400  1.0000
  H   H11       1.0  0.43857  0.75000  0.48600  1.0000
  H   H12       1.0  0.93857  0.25000  0.01400  1.0000
  H   H13       1.0  0.69768  0.75000  0.75465  1.0000
  H   H14       1.0  0.19767  0.25000  0.74535  1.0000
  H   H15       1.0  0.80232  0.75000  0.25465  1.0000
  H   H16       1.0  0.30232  0.25000  0.24535  1.0000
  H   H17       1.0  0.81434  0.98575  0.48929  1.0000
  H   H18       1.0  0.31434  0.01425  0.01071  1.0000
  H   H19       1.0  0.68566  0.51425  0.98929  1.0000
  H   H20       1.0  0.18566  0.48575  0.51071  1.0000
  H   H21       1.0  0.18566  0.01425  0.51071  1.0000
  H   H22       1.0  0.68566  0.98575  0.98929  1.0000
  H   H23       1.0  0.31434  0.48575  0.01071  1.0000
  H   H24       1.0  0.81434  0.51425  0.48929  1.0000
  H   H25       1.0  0.67130  0.08566  0.52673  1.0000
  H   H26       1.0  0.17131  0.91434  0.97327  1.0000
  H   H27       1.0  0.82869  0.41434  0.02674  1.0000
  H   H28       1.0  0.32869  0.58566  0.47327  1.0000
  H   H29       1.0  0.32869  0.91434  0.47327  1.0000
  H   H30       1.0  0.82869  0.08566  0.02674  1.0000
  H   H31       1.0  0.17131  0.58566  0.97327  1.0000
  H   H32       1.0  0.67131  0.41434  0.52674  1.0000
  H   H33       1.0  0.51797  0.75000  0.81235  1.0000
  H   H34       1.0  0.01797  0.25000  0.68765  1.0000
  H   H35       1.0  0.98203  0.75000  0.31235  1.0000
  H   H36       1.0  0.48203  0.25000  0.18765  1.0000
  C   C1        1.0  0.83805  0.01952  0.60774  1.0000
  C   C2        1.0  0.33805  0.98048  0.89226  1.0000
  C   C3        1.0  0.66195  0.48048  0.10774  1.0000
  C   C4        1.0  0.16195  0.51952  0.39226  1.0000
  C   C5        1.0  0.16195  0.98048  0.39226  1.0000
  C   C6        1.0  0.66195  0.01952  0.10774  1.0000
  C   C7        1.0  0.33805  0.51952  0.89226  1.0000
  C   C8        1.0  0.83805  0.48048  0.60774  1.0000
  C   C9        1.0  0.86551  0.00657  0.73476  1.0000
  C   C10       1.0  0.36551  0.99343  0.76524  1.0000
  C   C11       1.0  0.63449  0.49343  0.23477  1.0000
  C   C12       1.0  0.13449  0.50657  0.26524  1.0000
  C   C13       1.0  0.13449  0.99343  0.26524  1.0000
  C   C14       1.0  0.63449  0.00657  0.23476  1.0000
  C   C15       1.0  0.36551  0.50657  0.76524  1.0000
  C   C16       1.0  0.86551  0.49343  0.73477  1.0000
  C   C17       1.0  0.93817  0.75000  0.96005  1.0000
  C   C18       1.0  0.43817  0.25000  0.53994  1.0000
  C   C19       1.0  0.56183  0.75000  0.46005  1.0000
  C   C20       1.0  0.06183  0.25000  0.03995  1.0000
  C   C21       1.0  0.73534  0.75000  0.87750  1.0000
  C   C22       1.0  0.23534  0.25000  0.62250  1.0000
  C   C23       1.0  0.76467  0.75000  0.37749  1.0000
  C   C24       1.0  0.26467  0.25000  0.12251  1.0000
  N   N1        1.0  0.96089  0.91219  0.70388  1.0000
  N   N2        1.0  0.46089  0.08781  0.79612  1.0000
  N   N3        1.0  0.53911  0.58781  0.20388  1.0000
  N   N4        1.0  0.03911  0.41219  0.29612  1.0000
  N   N5        1.0  0.03911  0.08781  0.29612  1.0000
  N   N6        1.0  0.53911  0.91219  0.20388  1.0000
  N   N7        1.0  0.46089  0.41219  0.79612  1.0000
  N   N8        1.0  0.96089  0.58781  0.70388  1.0000
  N   N9        1.0  0.94383  0.92007  0.62126  1.0000
  N   N10       1.0  0.44383  0.07993  0.87874  1.0000
  N   N11       1.0  0.55616  0.57993  0.12127  1.0000
  N   N12       1.0  0.05616  0.42007  0.37874  1.0000
  N   N13       1.0  0.05617  0.07993  0.37874  1.0000
  N   N14       1.0  0.55616  0.92007  0.12126  1.0000
  N   N15       1.0  0.44383  0.42007  0.87874  1.0000
  N   N16       1.0  0.94383  0.57993  0.62127  1.0000
  N   N17       1.0  0.78628  0.07871  0.67690  1.0000
  N   N18       1.0  0.28628  0.92129  0.82310  1.0000
  N   N19       1.0  0.71372  0.42129  0.17690  1.0000
  N   N20       1.0  0.21372  0.57871  0.32310  1.0000
  N   N21       1.0  0.21372  0.92129  0.32310  1.0000
  N   N22       1.0  0.71372  0.07871  0.17690  1.0000
  N   N23       1.0  0.28628  0.57871  0.82310  1.0000
  N   N24       1.0  0.78628  0.42129  0.67690  1.0000
  N   N25       1.0  0.79348  0.06069  0.53005  1.0000
  N   N26       1.0  0.29348  0.93931  0.96995  1.0000
  N   N27       1.0  0.70652  0.43931  0.03005  1.0000
  N   N28       1.0  0.20652  0.56069  0.46995  1.0000
  N   N29       1.0  0.20652  0.93931  0.46995  1.0000
  N   N30       1.0  0.70652  0.06069  0.03005  1.0000
  N   N31       1.0  0.29348  0.56069  0.96995  1.0000
  N   N32       1.0  0.79348  0.43931  0.53005  1.0000
  N   N33       1.0  0.80652  0.75000  0.00681  1.0000
  N   N34       1.0  0.30652  0.25000  0.49319  1.0000
  N   N35       1.0  0.69348  0.75000  0.50681  1.0000
  N   N36       1.0  0.19348  0.25000  0.99319  1.0000
  N   N37       1.0  0.67224  0.75000  0.95367  1.0000
  N   N38       1.0  0.17224  0.25000  0.54633  1.0000
  N   N39       1.0  0.82776  0.75000  0.45367  1.0000
  N   N40       1.0  0.32777  0.25000  0.04633  1.0000
  N   N41       1.0  0.90407  0.75000  0.87891  1.0000
  N   N42       1.0  0.40406  0.25000  0.62108  1.0000
  N   N43       1.0  0.59593  0.75000  0.37892  1.0000
  N   N44       1.0  0.09593  0.25000  0.12108  1.0000
  N   N45       1.0  0.64298  0.75000  0.80950  1.0000
  N   N46       1.0  0.14298  0.25000  0.69050  1.0000
  N   N47       1.0  0.85702  0.75000  0.30950  1.0000
  N   N48       1.0  0.35702  0.25000  0.19050  1.0000
  Cl  Cl1       1.0  0.31649  0.75000  0.63130  1.0000
  Cl  Cl2       1.0  0.81649  0.25000  0.86870  1.0000
  Cl  Cl3       1.0  0.18351  0.75000  0.13130  1.0000
  Cl  Cl4       1.0  0.68351  0.25000  0.36870  1.0000
