data_image0
_chemical_formula_structural       Dy4H32C24S6O28
_chemical_formula_sum              "Dy4 H32 C24 S6 O28"
_cell_length_a       7.91242
_cell_length_b       10.4976
_cell_length_c       14.1196
_cell_angle_alpha    71.0369
_cell_angle_beta     75.9395
_cell_angle_gamma    77.3756

_space_group_name_H-M_alt    "P 1"
_space_group_IT_number       1

loop_
  _space_group_symop_operation_xyz
  'x, y, z'

loop_
  _atom_site_type_symbol
  _atom_site_label
  _atom_site_symmetry_multiplicity
  _atom_site_fract_x
  _atom_site_fract_y
  _atom_site_fract_z
  _atom_site_occupancy
  Dy  Dy1       1.0  0.00763  0.80323  0.59684  1.0000
  Dy  Dy2       1.0  0.99237  0.19677  0.40316  1.0000
  Dy  Dy3       1.0  0.59072  0.59193  0.85885  1.0000
  Dy  Dy4       1.0  0.40928  0.40807  0.14115  1.0000
  H   H1        1.0  0.27334  0.41295  0.82133  1.0000
  H   H2        1.0  0.72666  0.58705  0.17867  1.0000
  H   H3        1.0  0.05634  0.45290  0.88874  1.0000
  H   H4        1.0  0.94365  0.54710  0.11125  1.0000
  H   H5        1.0  0.93508  0.32673  0.74522  1.0000
  H   H6        1.0  0.06493  0.67327  0.25478  1.0000
  H   H7        1.0  0.91410  0.36475  0.61547  1.0000
  H   H8        1.0  0.08591  0.63525  0.38453  1.0000
  H   H9        1.0  0.57949  0.97296  0.16907  1.0000
  H   H10       1.0  0.42051  0.02704  0.83093  1.0000
  H   H11       1.0  0.40373  0.87361  0.22363  1.0000
  H   H12       1.0  0.59627  0.12639  0.77637  1.0000
  H   H13       1.0  0.65269  0.56374  0.56217  1.0000
  H   H14       1.0  0.34731  0.43626  0.43783  1.0000
  H   H15       1.0  0.47645  0.46956  0.59073  1.0000
  H   H16       1.0  0.52355  0.53045  0.40927  1.0000
  H   H17       1.0  0.75504  0.01863  0.29222  1.0000
  H   H18       1.0  0.24495  0.98137  0.70778  1.0000
  H   H19       1.0  0.56550  0.04821  0.38329  1.0000
  H   H20       1.0  0.43450  0.95179  0.61671  1.0000
  H   H21       1.0  0.90580  0.09811  0.99322  1.0000
  H   H22       1.0  0.09420  0.90189  0.00678  1.0000
  H   H23       1.0  0.98759  0.15710  0.07468  1.0000
  H   H24       1.0  0.01241  0.84290  0.92532  1.0000
  H   H25       1.0  0.18987  0.73197  0.77070  1.0000
  H   H26       1.0  0.81013  0.26804  0.22930  1.0000
  H   H27       1.0  0.98622  0.72581  0.82435  1.0000
  H   H28       1.0  0.01379  0.27419  0.17565  1.0000
  H   H29       1.0  0.18636  0.89814  0.38849  1.0000
  H   H30       1.0  0.81364  0.10186  0.61151  1.0000
  H   H31       1.0  0.28524  0.76043  0.44751  1.0000
  H   H32       1.0  0.71476  0.23957  0.55249  1.0000
  C   C1        1.0  0.25606  0.38467  0.98054  1.0000
  C   C2        1.0  0.74394  0.61533  0.01946  1.0000
  C   C3        1.0  0.18060  0.38150  0.89297  1.0000
  C   C4        1.0  0.81940  0.61850  0.10702  1.0000
  C   C5        1.0  0.92136  0.53714  0.66453  1.0000
  C   C6        1.0  0.07865  0.46286  0.33547  1.0000
  C   C7        1.0  0.41650  0.63830  0.65266  1.0000
  C   C8        1.0  0.58350  0.36170  0.34734  1.0000
  C   C9        1.0  0.79386  0.30083  0.99532  1.0000
  C   C10       1.0  0.20613  0.69917  0.00469  1.0000
  C   C11       1.0  0.35633  0.06795  0.25588  1.0000
  C   C12       1.0  0.64367  0.93205  0.74411  1.0000
  C   C13       1.0  0.86979  0.39981  0.68381  1.0000
  C   C14       1.0  0.13022  0.60019  0.31619  1.0000
  C   C15       1.0  0.77830  0.91491  0.44676  1.0000
  C   C16       1.0  0.22170  0.08509  0.55324  1.0000
  C   C17       1.0  0.47815  0.94153  0.23661  1.0000
  C   C18       1.0  0.52186  0.05847  0.76338  1.0000
  C   C19       1.0  0.54595  0.52096  0.62261  1.0000
  C   C20       1.0  0.45405  0.47904  0.37739  1.0000
  C   C21       1.0  0.67118  0.96827  0.36317  1.0000
  C   C22       1.0  0.32882  0.03172  0.63683  1.0000
  C   C23       1.0  0.95134  0.18654  0.99948  1.0000
  C   C24       1.0  0.04865  0.81346  0.00052  1.0000
  S   S1        1.0  0.13984  0.21571  0.89767  1.0000
  S   S2        1.0  0.86015  0.78429  0.10233  1.0000
  S   S3        1.0  0.63669  0.39896  0.72947  1.0000
  S   S4        1.0  0.36331  0.60104  0.27053  1.0000
  S   S5        1.0  0.58034  0.83633  0.34412  1.0000
  S   S6        1.0  0.41966  0.16367  0.65588  1.0000
  O   O1        1.0  0.17137  0.35340  0.07133  1.0000
  O   O2        1.0  0.82862  0.64660  0.92867  1.0000
  O   O3        1.0  0.40743  0.42354  0.96190  1.0000
  O   O4        1.0  0.59257  0.57646  0.03810  1.0000
  O   O5        1.0  0.39595  0.18079  0.19865  1.0000
  O   O6        1.0  0.60405  0.81921  0.80134  1.0000
  O   O7        1.0  0.87442  0.99506  0.45297  1.0000
  O   O8        1.0  0.12559  0.00494  0.54702  1.0000
  O   O9        1.0  0.82919  0.62059  0.71456  1.0000
  O   O10       1.0  0.17082  0.37941  0.28544  1.0000
  O   O11       1.0  0.16778  0.80315  0.43180  1.0000
  O   O12       1.0  0.83222  0.19685  0.56820  1.0000
  O   O13       1.0  0.78119  0.39210  0.91116  1.0000
  O   O14       1.0  0.21881  0.60790  0.08884  1.0000
  O   O15       1.0  0.06584  0.76690  0.76107  1.0000
  O   O16       1.0  0.93416  0.23310  0.23893  1.0000
  O   O17       1.0  0.40897  0.65613  0.73908  1.0000
  O   O18       1.0  0.59103  0.34387  0.26093  1.0000
  O   O19       1.0  0.77536  0.79742  0.50913  1.0000
  O   O20       1.0  0.22464  0.20258  0.49087  1.0000
  O   O21       1.0  0.05549  0.57042  0.59803  1.0000
  O   O22       1.0  0.94452  0.42958  0.40196  1.0000
  O   O23       1.0  0.31834  0.71147  0.59105  1.0000
  O   O24       1.0  0.68166  0.28853  0.40895  1.0000
  O   O25       1.0  0.68709  0.29375  0.07877  1.0000
  O   O26       1.0  0.31291  0.70624  0.92124  1.0000
  O   O27       1.0  0.22262  0.05363  0.32904  1.0000
  O   O28       1.0  0.77738  0.94636  0.67096  1.0000
