data_image0
_chemical_formula_structural       Cu2H40C26N4O10
_chemical_formula_sum              "Cu2 H40 C26 N4 O10"
_cell_length_a       7.01262
_cell_length_b       7.19609
_cell_length_c       15.9458
_cell_angle_alpha    90.0081
_cell_angle_beta     89.9942
_cell_angle_gamma    95.0188

_space_group_name_H-M_alt    "P 1"
_space_group_IT_number       1

loop_
  _space_group_symop_operation_xyz
  'x, y, z'

loop_
  _atom_site_type_symbol
  _atom_site_label
  _atom_site_symmetry_multiplicity
  _atom_site_fract_x
  _atom_site_fract_y
  _atom_site_fract_z
  _atom_site_occupancy
  Cu  Cu1       1.0  0.56406  0.57378  0.88953  1.0000
  Cu  Cu2       1.0  0.43598  0.42619  0.38951  1.0000
  H   H1        1.0  0.54867  0.29144  0.97258  1.0000
  H   H2        1.0  0.45136  0.70855  0.47260  1.0000
  H   H3        1.0  0.22598  0.74834  0.96231  1.0000
  H   H4        1.0  0.77407  0.25169  0.46224  1.0000
  H   H5        1.0  0.37226  0.90258  0.91854  1.0000
  H   H6        1.0  0.62780  0.09743  0.41849  1.0000
  H   H7        1.0  0.46938  0.55193  0.21502  1.0000
  H   H8        1.0  0.53066  0.44802  0.71501  1.0000
  H   H9        1.0  0.28686  0.08158  0.05780  1.0000
  H   H10       1.0  0.71302  0.91840  0.55781  1.0000
  H   H11       1.0  0.22901  0.89383  0.18849  1.0000
  H   H12       1.0  0.77095  0.10615  0.68852  1.0000
  H   H13       1.0  0.29274  0.05020  0.32854  1.0000
  H   H14       1.0  0.70727  0.94978  0.82857  1.0000
  H   H15       1.0  0.28255  0.44833  0.01120  1.0000
  H   H16       1.0  0.71745  0.55159  0.51120  1.0000
  H   H17       1.0  0.42818  0.60795  0.07133  1.0000
  H   H18       1.0  0.57172  0.39200  0.57132  1.0000
  H   H19       1.0  0.74940  0.48300  0.10414  1.0000
  H   H20       1.0  0.25057  0.51709  0.60414  1.0000
  H   H21       1.0  0.02400  0.33723  0.05493  1.0000
  H   H22       1.0  0.97596  0.66285  0.55491  1.0000
  H   H23       1.0  0.89945  0.00843  0.07161  1.0000
  H   H24       1.0  0.10053  0.99169  0.57158  1.0000
  H   H25       1.0  0.66490  0.06099  0.04720  1.0000
  H   H26       1.0  0.33510  0.93910  0.54717  1.0000
  H   H27       1.0  0.77785  0.15430  0.14018  1.0000
  H   H28       1.0  0.22209  0.84587  0.64015  1.0000
  H   H29       1.0  0.99604  0.36136  0.90004  1.0000
  H   H30       1.0  0.00402  0.63859  0.40002  1.0000
  H   H31       1.0  0.78377  0.20606  0.90143  1.0000
  H   H32       1.0  0.21627  0.79388  0.40140  1.0000
  H   H33       1.0  0.00407  0.12287  0.92950  1.0000
  H   H34       1.0  0.99595  0.87709  0.42946  1.0000
  H   H35       1.0  0.17122  0.96913  0.80347  1.0000
  H   H36       1.0  0.82873  0.03090  0.30344  1.0000
  H   H37       1.0  0.31591  0.08482  0.72455  1.0000
  H   H38       1.0  0.68406  0.91514  0.22453  1.0000
  H   H39       1.0  0.10812  0.18595  0.75863  1.0000
  H   H40       1.0  0.89187  0.81405  0.25860  1.0000
  C   C1        1.0  0.41406  0.40709  0.20603  1.0000
  C   C2        1.0  0.58591  0.59286  0.70603  1.0000
  C   C3        1.0  0.38033  0.33457  0.12589  1.0000
  C   C4        1.0  0.61963  0.66537  0.62590  1.0000
  C   C5        1.0  0.31446  0.14556  0.11916  1.0000
  C   C6        1.0  0.68550  0.85441  0.61920  1.0000
  C   C7        1.0  0.28298  0.04041  0.19200  1.0000
  C   C8        1.0  0.71700  0.95957  0.69204  1.0000
  C   C9        1.0  0.31775  0.12532  0.26979  1.0000
  C   C10       1.0  0.68225  0.87464  0.76982  1.0000
  C   C11       1.0  0.41034  0.46182  0.05106  1.0000
  C   C12       1.0  0.58960  0.53813  0.55104  1.0000
  C   C13       1.0  0.76539  0.45860  0.03635  1.0000
  C   C14       1.0  0.23459  0.54149  0.53635  1.0000
  C   C15       1.0  0.87345  0.63487  0.99905  1.0000
  C   C16       1.0  0.12658  0.36518  0.49906  1.0000
  C   C17       1.0  0.88587  0.29045  0.02590  1.0000
  C   C18       1.0  0.11411  0.70952  0.52588  1.0000
  C   C19       1.0  0.80153  0.11934  0.07418  1.0000
  C   C20       1.0  0.19843  0.88071  0.57413  1.0000
  C   C21       1.0  0.92001  0.24413  0.93378  1.0000
  C   C22       1.0  0.08004  0.75582  0.43377  1.0000
  C   C23       1.0  0.34814  0.21471  0.84412  1.0000
  C   C24       1.0  0.65193  0.78532  0.34407  1.0000
  C   C25       1.0  0.22566  0.10643  0.77949  1.0000
  C   C26       1.0  0.77432  0.89358  0.27947  1.0000
  N   N1        1.0  0.38421  0.30589  0.27646  1.0000
  N   N2        1.0  0.61584  0.69408  0.77647  1.0000
  N   N3        1.0  0.57418  0.42486  0.99732  1.0000
  N   N4        1.0  0.42578  0.57516  0.49733  1.0000
  O   O1        1.0  0.79876  0.70999  0.93490  1.0000
  O   O2        1.0  0.20130  0.28995  0.43492  1.0000
  O   O3        1.0  0.03032  0.69439  0.03118  1.0000
  O   O4        1.0  0.96971  0.30560  0.53118  1.0000
  O   O5        1.0  0.34723  0.76666  0.93027  1.0000
  O   O6        1.0  0.65294  0.23340  0.43014  1.0000
  O   O7        1.0  0.36932  0.39210  0.83397  1.0000
  O   O8        1.0  0.63065  0.60796  0.33392  1.0000
  O   O9        1.0  0.42641  0.12761  0.90219  1.0000
  O   O10       1.0  0.57366  0.87232  0.40221  1.0000
