data_image0
_chemical_formula_structural       Gd4H32C24S6O28
_chemical_formula_sum              "Gd4 H32 C24 S6 O28"
_cell_length_a       7.95258
_cell_length_b       10.5478
_cell_length_c       14.2117
_cell_angle_alpha    71.0865
_cell_angle_beta     75.7449
_cell_angle_gamma    77.0901

_space_group_name_H-M_alt    "P 1"
_space_group_IT_number       1

loop_
  _space_group_symop_operation_xyz
  'x, y, z'

loop_
  _atom_site_type_symbol
  _atom_site_label
  _atom_site_symmetry_multiplicity
  _atom_site_fract_x
  _atom_site_fract_y
  _atom_site_fract_z
  _atom_site_occupancy
  Gd  Gd1       1.0  0.59059  0.59205  0.85844  1.0000
  Gd  Gd2       1.0  0.40941  0.40795  0.14156  1.0000
  Gd  Gd3       1.0  0.00741  0.80273  0.59675  1.0000
  Gd  Gd4       1.0  0.99260  0.19727  0.40325  1.0000
  H   H1        1.0  0.27113  0.41565  0.82275  1.0000
  H   H2        1.0  0.72887  0.58435  0.17725  1.0000
  H   H3        1.0  0.05509  0.45306  0.89142  1.0000
  H   H4        1.0  0.94491  0.54694  0.10859  1.0000
  H   H5        1.0  0.43386  0.95170  0.61594  1.0000
  H   H6        1.0  0.56614  0.04830  0.38406  1.0000
  H   H7        1.0  0.24430  0.98116  0.70654  1.0000
  H   H8        1.0  0.75569  0.01884  0.29346  1.0000
  H   H9        1.0  0.59111  0.12779  0.77525  1.0000
  H   H10       1.0  0.40889  0.87221  0.22475  1.0000
  H   H11       1.0  0.41730  0.02828  0.82938  1.0000
  H   H12       1.0  0.58270  0.97172  0.17062  1.0000
  H   H13       1.0  0.18924  0.89685  0.38769  1.0000
  H   H14       1.0  0.81076  0.10315  0.61231  1.0000
  H   H15       1.0  0.28775  0.75987  0.44678  1.0000
  H   H16       1.0  0.71225  0.24013  0.55322  1.0000
  H   H17       1.0  0.93465  0.32716  0.74636  1.0000
  H   H18       1.0  0.06535  0.67284  0.25364  1.0000
  H   H19       1.0  0.91637  0.36182  0.61720  1.0000
  H   H20       1.0  0.08363  0.63818  0.38280  1.0000
  H   H21       1.0  0.91089  0.09910  0.99132  1.0000
  H   H22       1.0  0.08911  0.90090  0.00868  1.0000
  H   H23       1.0  0.99024  0.15671  0.07356  1.0000
  H   H24       1.0  0.00976  0.84329  0.92645  1.0000
  H   H25       1.0  0.65680  0.56621  0.56369  1.0000
  H   H26       1.0  0.34319  0.43379  0.43631  1.0000
  H   H27       1.0  0.48507  0.47044  0.58857  1.0000
  H   H28       1.0  0.51493  0.52956  0.41144  1.0000
  H   H29       1.0  0.18914  0.73124  0.77079  1.0000
  H   H30       1.0  0.81085  0.26876  0.22921  1.0000
  H   H31       1.0  0.98634  0.72624  0.82488  1.0000
  H   H32       1.0  0.01366  0.27376  0.17512  1.0000
  C   C1        1.0  0.25611  0.38462  0.98106  1.0000
  C   C2        1.0  0.74389  0.61538  0.01894  1.0000
  C   C3        1.0  0.17990  0.38267  0.89423  1.0000
  C   C4        1.0  0.82010  0.61733  0.10578  1.0000
  C   C5        1.0  0.22199  0.08524  0.55298  1.0000
  C   C6        1.0  0.77801  0.91476  0.44702  1.0000
  C   C7        1.0  0.32812  0.03126  0.63619  1.0000
  C   C8        1.0  0.67188  0.96873  0.36381  1.0000
  C   C9        1.0  0.51848  0.05945  0.76237  1.0000
  C   C10       1.0  0.48151  0.94055  0.23763  1.0000
  C   C11       1.0  0.64157  0.93376  0.74328  1.0000
  C   C12       1.0  0.35843  0.06624  0.25672  1.0000
  C   C13       1.0  0.79620  0.30011  0.99511  1.0000
  C   C14       1.0  0.20380  0.69989  0.00488  1.0000
  C   C15       1.0  0.92338  0.53558  0.66374  1.0000
  C   C16       1.0  0.07662  0.46442  0.33626  1.0000
  C   C17       1.0  0.41671  0.63707  0.65244  1.0000
  C   C18       1.0  0.58329  0.36293  0.34757  1.0000
  C   C19       1.0  0.87144  0.39882  0.68426  1.0000
  C   C20       1.0  0.12856  0.60118  0.31574  1.0000
  C   C21       1.0  0.95453  0.18692  0.99873  1.0000
  C   C22       1.0  0.04547  0.81308  0.00127  1.0000
  C   C23       1.0  0.55000  0.52178  0.62226  1.0000
  C   C24       1.0  0.45000  0.47822  0.37774  1.0000
  S   S1        1.0  0.63860  0.40006  0.72899  1.0000
  S   S2        1.0  0.36140  0.59994  0.27101  1.0000
  S   S3        1.0  0.41755  0.16293  0.65499  1.0000
  S   S4        1.0  0.58245  0.83707  0.34501  1.0000
  S   S5        1.0  0.14219  0.21769  0.89749  1.0000
  S   S6        1.0  0.85782  0.78231  0.10252  1.0000
  O   O1        1.0  0.22595  0.20219  0.49126  1.0000
  O   O2        1.0  0.77405  0.79781  0.50874  1.0000
  O   O3        1.0  0.68980  0.29311  0.07822  1.0000
  O   O4        1.0  0.31020  0.70689  0.92178  1.0000
  O   O5        1.0  0.31896  0.70854  0.59088  1.0000
  O   O6        1.0  0.68104  0.29146  0.40912  1.0000
  O   O7        1.0  0.17271  0.35234  0.07158  1.0000
  O   O8        1.0  0.82729  0.64766  0.92842  1.0000
  O   O9        1.0  0.40656  0.42338  0.96205  1.0000
  O   O10       1.0  0.59344  0.57662  0.03795  1.0000
  O   O11       1.0  0.12587  0.00632  0.54648  1.0000
  O   O12       1.0  0.87413  0.99368  0.45352  1.0000
  O   O13       1.0  0.83195  0.61934  0.71355  1.0000
  O   O14       1.0  0.16806  0.38066  0.28645  1.0000
  O   O15       1.0  0.78255  0.39047  0.91148  1.0000
  O   O16       1.0  0.21745  0.60953  0.08852  1.0000
  O   O17       1.0  0.05638  0.56785  0.59693  1.0000
  O   O18       1.0  0.94362  0.43214  0.40307  1.0000
  O   O19       1.0  0.17094  0.80240  0.43089  1.0000
  O   O20       1.0  0.82906  0.19760  0.56911  1.0000
  O   O21       1.0  0.60252  0.82096  0.79908  1.0000
  O   O22       1.0  0.39748  0.17905  0.20092  1.0000
  O   O23       1.0  0.40667  0.65519  0.73851  1.0000
  O   O24       1.0  0.59333  0.34481  0.26149  1.0000
  O   O25       1.0  0.77612  0.94850  0.67136  1.0000
  O   O26       1.0  0.22388  0.05150  0.32863  1.0000
  O   O27       1.0  0.06535  0.76718  0.76194  1.0000
  O   O28       1.0  0.93465  0.23283  0.23806  1.0000
