data_image0
_chemical_formula_structural       Mg4H32C52N4O20
_chemical_formula_sum              "Mg4 H32 C52 N4 O20"
_cell_length_a       12.0974
_cell_length_b       12.4544
_cell_length_c       12.3649
_cell_angle_alpha    94.6888
_cell_angle_beta     112.041
_cell_angle_gamma    112.221

_space_group_name_H-M_alt    "P 1"
_space_group_IT_number       1

loop_
  _space_group_symop_operation_xyz
  'x, y, z'

loop_
  _atom_site_type_symbol
  _atom_site_label
  _atom_site_symmetry_multiplicity
  _atom_site_fract_x
  _atom_site_fract_y
  _atom_site_fract_z
  _atom_site_occupancy
  Mg  Mg1       1.0  0.74984  0.69572  0.30383  1.0000
  Mg  Mg2       1.0  0.25016  0.30428  0.69617  1.0000
  Mg  Mg3       1.0  0.50000  0.50000  0.00000  1.0000
  Mg  Mg4       1.0  0.00000  0.00000  0.50000  1.0000
  H   H1        1.0  0.59940  0.93074  0.89279  1.0000
  H   H2        1.0  0.90097  0.10614  0.06960  1.0000
  H   H3        1.0  0.40060  0.06926  0.10721  1.0000
  H   H4        1.0  0.09903  0.89386  0.93040  1.0000
  H   H5        1.0  0.64745  0.76340  0.96158  1.0000
  H   H6        1.0  0.85220  0.03724  0.23819  1.0000
  H   H7        1.0  0.35255  0.23660  0.03842  1.0000
  H   H8        1.0  0.14780  0.96276  0.76181  1.0000
  H   H9        1.0  0.44266  0.93492  0.15603  1.0000
  H   H10       1.0  0.05709  0.84497  0.06436  1.0000
  H   H11       1.0  0.55734  0.06508  0.84397  1.0000
  H   H12       1.0  0.94291  0.15503  0.93564  1.0000
  H   H13       1.0  0.02378  0.58698  0.33489  1.0000
  H   H14       1.0  0.47629  0.66568  0.41186  1.0000
  H   H15       1.0  0.97622  0.41302  0.66511  1.0000
  H   H16       1.0  0.52371  0.33432  0.58814  1.0000
  H   H17       1.0  0.74902  0.15251  0.27284  1.0000
  H   H18       1.0  0.75084  0.72647  0.84856  1.0000
  H   H19       1.0  0.25098  0.84749  0.72716  1.0000
  H   H20       1.0  0.24916  0.27353  0.15144  1.0000
  H   H21       1.0  0.65270  0.27183  0.14675  1.0000
  H   H22       1.0  0.84710  0.85305  0.72856  1.0000
  H   H23       1.0  0.34730  0.72817  0.85325  1.0000
  H   H24       1.0  0.15290  0.14695  0.27144  1.0000
  H   H25       1.0  0.12275  0.46686  0.45677  1.0000
  H   H26       1.0  0.37734  0.54337  0.53272  1.0000
  H   H27       1.0  0.87725  0.53314  0.54323  1.0000
  H   H28       1.0  0.62266  0.45663  0.46728  1.0000
  H   H29       1.0  0.50392  0.77088  0.21503  1.0000
  H   H30       1.0  0.99517  0.78560  0.22954  1.0000
  H   H31       1.0  0.49608  0.22912  0.78497  1.0000
  H   H32       1.0  0.00483  0.21440  0.77046  1.0000
  C   C1        1.0  0.57598  0.90106  0.96521  1.0000
  C   C2        1.0  0.92388  0.03412  0.09947  1.0000
  C   C3        1.0  0.42402  0.09894  0.03479  1.0000
  C   C4        1.0  0.07612  0.96588  0.90053  1.0000
  C   C5        1.0  0.60574  0.80954  0.00134  1.0000
  C   C6        1.0  0.89371  0.99786  0.19135  1.0000
  C   C7        1.0  0.39426  0.19047  0.99866  1.0000
  C   C8        1.0  0.10629  0.00214  0.80865  1.0000
  C   C9        1.0  0.00245  0.23449  0.45004  1.0000
  C   C10       1.0  0.49782  0.54955  0.76577  1.0000
  C   C11       1.0  0.99755  0.76551  0.54996  1.0000
  C   C12       1.0  0.50218  0.45045  0.23423  1.0000
  C   C13       1.0  0.51658  0.95148  0.01882  1.0000
  C   C14       1.0  0.98329  0.98103  0.04869  1.0000
  C   C15       1.0  0.48342  0.04852  0.98118  1.0000
  C   C16       1.0  0.01670  0.01897  0.95130  1.0000
  C   C17       1.0  0.94287  0.30224  0.37035  1.0000
  C   C18       1.0  0.55714  0.62947  0.69791  1.0000
  C   C19       1.0  0.05713  0.69776  0.62965  1.0000
  C   C20       1.0  0.44287  0.37053  0.30209  1.0000
  C   C21       1.0  0.76747  0.50820  0.16642  1.0000
  C   C22       1.0  0.73249  0.83384  0.49138  1.0000
  C   C23       1.0  0.23253  0.49180  0.83358  1.0000
  C   C24       1.0  0.26751  0.16616  0.50863  1.0000
  C   C25       1.0  0.83275  0.43543  0.23091  1.0000
  C   C26       1.0  0.66709  0.76929  0.56444  1.0000
  C   C27       1.0  0.16725  0.56457  0.76909  1.0000
  C   C28       1.0  0.33291  0.23071  0.43556  1.0000
  C   C29       1.0  0.48914  0.90254  0.10964  1.0000
  C   C30       1.0  0.01052  0.89062  0.09730  1.0000
  C   C31       1.0  0.51086  0.09746  0.89036  1.0000
  C   C32       1.0  0.98948  0.10938  0.90270  1.0000
  C   C33       1.0  0.75629  0.31270  0.21294  1.0000
  C   C34       1.0  0.74357  0.78695  0.68771  1.0000
  C   C35       1.0  0.24371  0.68730  0.78706  1.0000
  C   C36       1.0  0.25643  0.21305  0.31229  1.0000
  C   C37       1.0  0.51968  0.81083  0.14399  1.0000
  C   C38       1.0  0.97960  0.85617  0.18940  1.0000
  C   C39       1.0  0.48032  0.18917  0.85601  1.0000
  C   C40       1.0  0.02039  0.14383  0.81060  1.0000
  C   C41       1.0  0.81006  0.24665  0.28251  1.0000
  C   C42       1.0  0.68986  0.71716  0.75400  1.0000
  C   C43       1.0  0.18994  0.75335  0.71749  1.0000
  C   C44       1.0  0.31014  0.28284  0.24600  1.0000
  C   C45       1.0  0.02042  0.42467  0.38679  1.0000
  C   C46       1.0  0.47955  0.61331  0.57495  1.0000
  C   C47       1.0  0.97958  0.57533  0.61321  1.0000
  C   C48       1.0  0.52045  0.38669  0.42505  1.0000
  C   C49       1.0  0.96564  0.49082  0.31859  1.0000
  C   C50       1.0  0.53426  0.68176  0.50854  1.0000
  C   C51       1.0  0.03436  0.50918  0.68141  1.0000
  C   C52       1.0  0.46574  0.31825  0.49146  1.0000
  N   N1        1.0  0.57853  0.76638  0.09039  1.0000
  N   N2        1.0  0.92086  0.90934  0.23424  1.0000
  N   N3        1.0  0.42147  0.23362  0.90961  1.0000
  N   N4        1.0  0.07914  0.09066  0.76576  1.0000
  O   O1        1.0  0.60931  0.67970  0.12426  1.0000
  O   O2        1.0  0.89018  0.87538  0.32160  1.0000
  O   O3        1.0  0.39069  0.32030  0.87574  1.0000
  O   O4        1.0  0.10982  0.12462  0.67840  1.0000
  O   O5        1.0  0.82736  0.62185  0.21291  1.0000
  O   O6        1.0  0.67282  0.78737  0.37713  1.0000
  O   O7        1.0  0.17264  0.37815  0.78709  1.0000
  O   O8        1.0  0.32718  0.21263  0.62286  1.0000
  O   O9        1.0  0.11890  0.29558  0.53361  1.0000
  O   O10       1.0  0.38166  0.46585  0.70453  1.0000
  O   O11       1.0  0.88110  0.70442  0.46639  1.0000
  O   O12       1.0  0.61834  0.53415  0.29547  1.0000
  O   O13       1.0  0.93306  0.12144  0.42818  1.0000
  O   O14       1.0  0.56742  0.57150  0.87939  1.0000
  O   O15       1.0  0.06694  0.87856  0.57182  1.0000
  O   O16       1.0  0.43258  0.42850  0.12061  1.0000
  O   O17       1.0  0.65533  0.45309  0.07475  1.0000
  O   O18       1.0  0.84440  0.92543  0.54673  1.0000
  O   O19       1.0  0.34467  0.54691  0.92526  1.0000
  O   O20       1.0  0.15560  0.07457  0.45327  1.0000
