data_image0
_chemical_formula_structural       Co2H32C42N6O12
_chemical_formula_sum              "Co2 H32 C42 N6 O12"
_cell_length_a       10.6312
_cell_length_b       11.0215
_cell_length_c       11.2402
_cell_angle_alpha    77.4328
_cell_angle_beta     63.1988
_cell_angle_gamma    74.2621

_space_group_name_H-M_alt    "P 1"
_space_group_IT_number       1

loop_
  _space_group_symop_operation_xyz
  'x, y, z'

loop_
  _atom_site_type_symbol
  _atom_site_label
  _atom_site_symmetry_multiplicity
  _atom_site_fract_x
  _atom_site_fract_y
  _atom_site_fract_z
  _atom_site_occupancy
  Co  Co1       1.0  0.45991  0.45447  0.90967  1.0000
  Co  Co2       1.0  0.54010  0.54553  0.09034  1.0000
  H   H1        1.0  0.66636  0.84792  0.58867  1.0000
  H   H2        1.0  0.33364  0.15208  0.41133  1.0000
  H   H3        1.0  0.77819  0.01465  0.57278  1.0000
  H   H4        1.0  0.22181  0.98535  0.42721  1.0000
  H   H5        1.0  0.74209  0.16477  0.48360  1.0000
  H   H6        1.0  0.25791  0.83523  0.51640  1.0000
  H   H7        1.0  0.10843  0.73218  0.81203  1.0000
  H   H8        1.0  0.89157  0.26781  0.18798  1.0000
  H   H9        1.0  0.44889  0.14654  0.00152  1.0000
  H   H10       1.0  0.55111  0.85346  0.99847  1.0000
  H   H11       1.0  0.95624  0.94303  0.78579  1.0000
  H   H12       1.0  0.04376  0.05697  0.21422  1.0000
  H   H13       1.0  0.37191  0.90920  0.89179  1.0000
  H   H14       1.0  0.62809  0.09081  0.10821  1.0000
  H   H15       1.0  0.61225  0.34929  0.61901  1.0000
  H   H16       1.0  0.38775  0.65071  0.38099  1.0000
  H   H17       1.0  0.99075  0.13121  0.41129  1.0000
  H   H18       1.0  0.00925  0.86879  0.58871  1.0000
  H   H19       1.0  0.80809  0.11997  0.85181  1.0000
  H   H20       1.0  0.19192  0.88003  0.14819  1.0000
  H   H21       1.0  0.82708  0.28308  0.79882  1.0000
  H   H22       1.0  0.17293  0.71692  0.20118  1.0000
  H   H23       1.0  0.20050  0.46059  0.45641  1.0000
  H   H24       1.0  0.79949  0.53941  0.54360  1.0000
  H   H25       1.0  0.22335  0.12218  0.86023  1.0000
  H   H26       1.0  0.77665  0.87782  0.13977  1.0000
  H   H27       1.0  0.49988  0.23103  0.46130  1.0000
  H   H28       1.0  0.50012  0.76898  0.53870  1.0000
  H   H29       1.0  0.04292  0.34453  0.66005  1.0000
  H   H30       1.0  0.95708  0.65547  0.33995  1.0000
  H   H31       1.0  0.14859  0.25216  0.20612  1.0000
  H   H32       1.0  0.85140  0.74785  0.79388  1.0000
  C   C1        1.0  0.59397  0.91436  0.54905  1.0000
  C   C2        1.0  0.40603  0.08564  0.45095  1.0000
  C   C3        1.0  0.28912  0.42678  0.19788  1.0000
  C   C4        1.0  0.71088  0.57322  0.80212  1.0000
  C   C5        1.0  0.69256  0.09174  0.56188  1.0000
  C   C6        1.0  0.30744  0.90826  0.43811  1.0000
  C   C7        1.0  0.24752  0.80718  0.85616  1.0000
  C   C8        1.0  0.75248  0.19282  0.14385  1.0000
  C   C9        1.0  0.13247  0.81806  0.82323  1.0000
  C   C10       1.0  0.86753  0.18193  0.17678  1.0000
  C   C11       1.0  0.50077  0.16910  0.89353  1.0000
  C   C12       1.0  0.49923  0.83090  0.10647  1.0000
  C   C13       1.0  0.07965  0.04493  0.82450  1.0000
  C   C14       1.0  0.92035  0.95507  0.17550  1.0000
  C   C15       1.0  0.04738  0.93619  0.80835  1.0000
  C   C16       1.0  0.95263  0.06381  0.19165  1.0000
  C   C17       1.0  0.00649  0.23063  0.54764  1.0000
  C   C18       1.0  0.99350  0.76937  0.45237  1.0000
  C   C19       1.0  0.28027  0.91745  0.86920  1.0000
  C   C20       1.0  0.71974  0.08255  0.13080  1.0000
  C   C21       1.0  0.58175  0.27468  0.70101  1.0000
  C   C22       1.0  0.41825  0.72532  0.29898  1.0000
  C   C23       1.0  0.18506  0.36363  0.31858  1.0000
  C   C24       1.0  0.81494  0.63638  0.68143  1.0000
  C   C25       1.0  0.59379  0.04411  0.52832  1.0000
  C   C26       1.0  0.40620  0.95589  0.47169  1.0000
  C   C27       1.0  0.03611  0.20492  0.41957  1.0000
  C   C28       1.0  0.96388  0.79509  0.58044  1.0000
  C   C29       1.0  0.88156  0.18381  0.78582  1.0000
  C   C30       1.0  0.11844  0.81618  0.21418  1.0000
  C   C31       1.0  0.33077  0.68089  0.88294  1.0000
  C   C32       1.0  0.66923  0.31911  0.11707  1.0000
  C   C33       1.0  0.15304  0.38921  0.44697  1.0000
  C   C34       1.0  0.84695  0.61079  0.55304  1.0000
  C   C35       1.0  0.19851  0.03571  0.85160  1.0000
  C   C36       1.0  0.80149  0.96429  0.14840  1.0000
  C   C37       1.0  0.49955  0.12963  0.47917  1.0000
  C   C38       1.0  0.50044  0.87037  0.52083  1.0000
  C   C39       1.0  0.06399  0.32433  0.56161  1.0000
  C   C40       1.0  0.93601  0.67566  0.43839  1.0000
  C   C41       1.0  0.12382  0.27162  0.30617  1.0000
  C   C42       1.0  0.87617  0.72838  0.69383  1.0000
  N   N1        1.0  0.61594  0.15065  0.68681  1.0000
  N   N2        1.0  0.38406  0.84935  0.31319  1.0000
  N   N3        1.0  0.50864  0.28987  0.83132  1.0000
  N   N4        1.0  0.49137  0.71013  0.16868  1.0000
  N   N5        1.0  0.56509  0.08120  0.80863  1.0000
  N   N6        1.0  0.43492  0.91880  0.19137  1.0000
  O   O1        1.0  0.35171  0.50091  0.21582  1.0000
  O   O2        1.0  0.64829  0.49909  0.78418  1.0000
  O   O3        1.0  0.31256  0.40091  0.08358  1.0000
  O   O4        1.0  0.68744  0.59909  0.91642  1.0000
  O   O5        1.0  0.92194  0.15709  0.65303  1.0000
  O   O6        1.0  0.07806  0.84290  0.34697  1.0000
  O   O7        1.0  0.00053  0.16554  0.81696  1.0000
  O   O8        1.0  0.99947  0.83446  0.18304  1.0000
  O   O9        1.0  0.33803  0.58589  0.82876  1.0000
  O   O10       1.0  0.66197  0.41410  0.17125  1.0000
  O   O11       1.0  0.39212  0.66803  0.96071  1.0000
  O   O12       1.0  0.60788  0.33197  0.03929  1.0000
