data_image0
_chemical_formula_structural       Na2Fe4H36C36S6N2O22
_chemical_formula_sum              "Na2 Fe4 H36 C36 S6 N2 O22"
_cell_length_a       6.22048
_cell_length_b       12.6058
_cell_length_c       15.9669
_cell_angle_alpha    97.5805
_cell_angle_beta     96.4029
_cell_angle_gamma    95.8539

_space_group_name_H-M_alt    "P 1"
_space_group_IT_number       1

loop_
  _space_group_symop_operation_xyz
  'x, y, z'

loop_
  _atom_site_type_symbol
  _atom_site_label
  _atom_site_symmetry_multiplicity
  _atom_site_fract_x
  _atom_site_fract_y
  _atom_site_fract_z
  _atom_site_occupancy
  Na  Na1       1.0  0.78979  0.46338  0.41356  1.0000
  Na  Na2       1.0  0.21021  0.53662  0.58643  1.0000
  Fe  Fe1       1.0  0.02115  0.14053  0.85503  1.0000
  Fe  Fe2       1.0  0.97887  0.85947  0.14497  1.0000
  Fe  Fe3       1.0  0.20954  0.32615  0.85167  1.0000
  Fe  Fe4       1.0  0.79046  0.67385  0.14834  1.0000
  H   H1        1.0  0.43373  0.20215  0.67236  1.0000
  H   H2        1.0  0.56625  0.79786  0.32763  1.0000
  H   H3        1.0  0.41649  0.06330  0.68523  1.0000
  H   H4        1.0  0.58350  0.93670  0.31477  1.0000
  H   H5        1.0  0.87382  0.21114  0.60701  1.0000
  H   H6        1.0  0.12615  0.78886  0.39300  1.0000
  H   H7        1.0  0.12929  0.28440  0.64707  1.0000
  H   H8        1.0  0.87068  0.71560  0.35293  1.0000
  H   H9        1.0  0.69387  0.08445  0.59117  1.0000
  H   H10       1.0  0.30611  0.91554  0.40883  1.0000
  H   H11       1.0  0.76563  0.40395  0.57410  1.0000
  H   H12       1.0  0.23437  0.59605  0.42590  1.0000
  H   H13       1.0  0.73536  0.52766  0.58507  1.0000
  H   H14       1.0  0.26464  0.47233  0.41493  1.0000
  H   H15       1.0  0.48537  0.91049  0.53372  1.0000
  H   H16       1.0  0.51463  0.08951  0.46629  1.0000
  H   H17       1.0  0.05648  0.75138  0.58373  1.0000
  H   H18       1.0  0.94350  0.24862  0.41628  1.0000
  H   H19       1.0  0.26727  0.92284  0.64237  1.0000
  H   H20       1.0  0.73274  0.07716  0.35764  1.0000
  H   H21       1.0  0.55712  0.23553  0.28314  1.0000
  H   H22       1.0  0.44290  0.76449  0.71686  1.0000
  H   H23       1.0  0.54278  0.32126  0.20269  1.0000
  H   H24       1.0  0.45721  0.67875  0.79731  1.0000
  H   H25       1.0  0.81750  0.13376  0.21403  1.0000
  H   H26       1.0  0.18250  0.86625  0.78597  1.0000
  H   H27       1.0  0.65497  0.16288  0.12261  1.0000
  H   H28       1.0  0.34501  0.83712  0.87740  1.0000
  H   H29       1.0  0.90645  0.32251  0.11443  1.0000
  H   H30       1.0  0.09355  0.67748  0.88556  1.0000
  H   H31       1.0  0.09165  0.23090  0.14274  1.0000
  H   H32       1.0  0.90834  0.76909  0.85725  1.0000
  H   H33       1.0  0.09099  0.42733  0.24443  1.0000
  H   H34       1.0  0.90904  0.57267  0.75555  1.0000
  H   H35       1.0  0.14359  0.30981  0.29059  1.0000
  H   H36       1.0  0.85640  0.69018  0.70940  1.0000
  C   C1        1.0  0.86444  0.01741  0.80796  1.0000
  C   C2        1.0  0.13556  0.98260  0.19204  1.0000
  C   C3        1.0  0.16180  0.09027  0.94117  1.0000
  C   C4        1.0  0.83822  0.90971  0.05882  1.0000
  C   C5        1.0  0.83562  0.18698  0.92327  1.0000
  C   C6        1.0  0.16441  0.81302  0.07673  1.0000
  C   C7        1.0  0.36598  0.35255  0.95442  1.0000
  C   C8        1.0  0.63403  0.64746  0.04558  1.0000
  C   C9        1.0  0.03367  0.41990  0.88704  1.0000
  C   C10       1.0  0.96632  0.58011  0.11297  1.0000
  C   C11       1.0  0.36747  0.40921  0.79445  1.0000
  C   C12       1.0  0.63252  0.59080  0.20555  1.0000
  C   C13       1.0  0.33416  0.13589  0.69353  1.0000
  C   C14       1.0  0.66583  0.86411  0.30647  1.0000
  C   C15       1.0  0.01508  0.21556  0.65501  1.0000
  C   C16       1.0  0.98490  0.78445  0.34499  1.0000
  C   C17       1.0  0.00068  0.01980  0.62027  1.0000
  C   C18       1.0  0.99932  0.98021  0.37973  1.0000
  C   C19       1.0  0.77671  0.01257  0.59003  1.0000
  C   C20       1.0  0.22328  0.98743  0.40997  1.0000
  C   C21       1.0  0.65725  0.91410  0.55727  1.0000
  C   C22       1.0  0.34275  0.08590  0.44273  1.0000
  C   C23       1.0  0.75573  0.81932  0.55361  1.0000
  C   C24       1.0  0.24427  0.18068  0.44640  1.0000
  C   C25       1.0  0.97620  0.82428  0.58502  1.0000
  C   C26       1.0  0.02379  0.17572  0.41499  1.0000
  C   C27       1.0  0.09650  0.92274  0.61844  1.0000
  C   C28       1.0  0.90350  0.07726  0.38156  1.0000
  C   C29       1.0  0.65102  0.27502  0.23927  1.0000
  C   C30       1.0  0.34898  0.72499  0.76072  1.0000
  C   C31       1.0  0.76235  0.19895  0.18069  1.0000
  C   C32       1.0  0.23765  0.80105  0.81931  1.0000
  C   C33       1.0  0.95774  0.27388  0.16354  1.0000
  C   C34       1.0  0.04225  0.72612  0.83645  1.0000
  C   C35       1.0  0.02413  0.34468  0.24942  1.0000
  C   C36       1.0  0.97589  0.65531  0.75057  1.0000
  S   S1        1.0  0.35061  0.17066  0.81105  1.0000
  S   S2        1.0  0.64940  0.82935  0.18895  1.0000
  S   S3        1.0  0.91422  0.25034  0.75969  1.0000
  S   S4        1.0  0.08578  0.74967  0.24032  1.0000
  S   S5        1.0  0.59990  0.69582  0.50834  1.0000
  S   S6        1.0  0.40010  0.30417  0.49167  1.0000
  N   N1        1.0  0.12059  0.12033  0.64720  1.0000
  N   N2        1.0  0.87939  0.87967  0.35280  1.0000
  O   O1        1.0  0.74772  0.93888  0.78228  1.0000
  O   O2        1.0  0.25230  0.06114  0.21774  1.0000
  O   O3        1.0  0.25285  0.05772  0.99831  1.0000
  O   O4        1.0  0.74715  0.94223  0.00166  1.0000
  O   O5        1.0  0.72370  0.21460  0.97352  1.0000
  O   O6        1.0  0.27631  0.78539  0.02648  1.0000
  O   O7        1.0  0.45273  0.37694  0.02361  1.0000
  O   O8        1.0  0.54735  0.62309  0.97639  1.0000
  O   O9        1.0  0.91324  0.48035  0.90717  1.0000
  O   O10       1.0  0.08677  0.51965  0.09284  1.0000
  O   O11       1.0  0.47375  0.46156  0.75617  1.0000
  O   O12       1.0  0.52622  0.53843  0.24383  1.0000
  O   O13       1.0  0.39810  0.72500  0.46388  1.0000
  O   O14       1.0  0.60189  0.27499  0.53613  1.0000
  O   O15       1.0  0.73253  0.63943  0.45052  1.0000
  O   O16       1.0  0.26747  0.36057  0.54949  1.0000
  O   O17       1.0  0.55531  0.63444  0.57901  1.0000
  O   O18       1.0  0.44469  0.36557  0.42100  1.0000
  O   O19       1.0  0.82601  0.34931  0.29013  1.0000
  O   O20       1.0  0.17400  0.65070  0.70985  1.0000
  O   O21       1.0  0.84273  0.47644  0.57482  1.0000
  O   O22       1.0  0.15727  0.52356  0.42518  1.0000
