data_image0
_chemical_formula_structural       Ni6H54C42N6O30
_chemical_formula_sum              "Ni6 H54 C42 N6 O30"
_cell_length_a       7.94899
_cell_length_b       13.8369
_cell_length_c       13.823
_cell_angle_alpha    119.967
_cell_angle_beta     90
_cell_angle_gamma    90

_space_group_name_H-M_alt    "P 1"
_space_group_IT_number       1

loop_
  _space_group_symop_operation_xyz
  'x, y, z'

loop_
  _atom_site_type_symbol
  _atom_site_label
  _atom_site_symmetry_multiplicity
  _atom_site_fract_x
  _atom_site_fract_y
  _atom_site_fract_z
  _atom_site_occupancy
  Ni  Ni1       1.0  0.10059  0.21699  0.98641  1.0000
  Ni  Ni2       1.0  0.10050  0.01360  0.23060  1.0000
  Ni  Ni3       1.0  0.10054  0.76940  0.78304  1.0000
  Ni  Ni4       1.0  0.89941  0.78301  0.01359  1.0000
  Ni  Ni5       1.0  0.89950  0.98640  0.76940  1.0000
  Ni  Ni6       1.0  0.89946  0.23060  0.21696  1.0000
  H   H1        1.0  0.96611  0.42690  0.87388  1.0000
  H   H2        1.0  0.96612  0.12635  0.55322  1.0000
  H   H3        1.0  0.96611  0.44679  0.57293  1.0000
  H   H4        1.0  0.03389  0.57310  0.12612  1.0000
  H   H5        1.0  0.03388  0.87365  0.44678  1.0000
  H   H6        1.0  0.03389  0.55321  0.42707  1.0000
  H   H7        1.0  0.42880  0.33069  0.07446  1.0000
  H   H8        1.0  0.42881  0.92569  0.25635  1.0000
  H   H9        1.0  0.42892  0.74364  0.66929  1.0000
  H   H10       1.0  0.57120  0.66931  0.92554  1.0000
  H   H11       1.0  0.57119  0.07431  0.74365  1.0000
  H   H12       1.0  0.57108  0.25636  0.33071  1.0000
  H   H13       1.0  0.36732  0.04960  0.88352  1.0000
  H   H14       1.0  0.36731  0.11645  0.16612  1.0000
  H   H15       1.0  0.36732  0.83387  0.95033  1.0000
  H   H16       1.0  0.63268  0.95040  0.11648  1.0000
  H   H17       1.0  0.63269  0.88355  0.83388  1.0000
  H   H18       1.0  0.63268  0.16613  0.04967  1.0000
  H   H19       1.0  0.61942  0.41278  0.84847  1.0000
  H   H20       1.0  0.61943  0.15142  0.56431  1.0000
  H   H21       1.0  0.61938  0.43582  0.58718  1.0000
  H   H22       1.0  0.38058  0.58722  0.15153  1.0000
  H   H23       1.0  0.38057  0.84858  0.43569  1.0000
  H   H24       1.0  0.38062  0.56418  0.41282  1.0000
  H   H25       1.0  0.43709  0.32374  0.80968  1.0000
  H   H26       1.0  0.43712  0.19018  0.51395  1.0000
  H   H27       1.0  0.43707  0.48601  0.67629  1.0000
  H   H28       1.0  0.56291  0.67626  0.19032  1.0000
  H   H29       1.0  0.56288  0.80982  0.48605  1.0000
  H   H30       1.0  0.56293  0.51398  0.32371  1.0000
  H   H31       1.0  0.64368  0.26694  0.79439  1.0000
  H   H32       1.0  0.64367  0.20553  0.47242  1.0000
  H   H33       1.0  0.64367  0.52749  0.73314  1.0000
  H   H34       1.0  0.35632  0.73306  0.20561  1.0000
  H   H35       1.0  0.35633  0.79447  0.52758  1.0000
  H   H36       1.0  0.35633  0.47251  0.26686  1.0000
  H   H37       1.0  0.80753  0.38013  0.00587  1.0000
  H   H38       1.0  0.80756  0.99413  0.37423  1.0000
  H   H39       1.0  0.80755  0.62575  0.61992  1.0000
  H   H40       1.0  0.19247  0.61987  0.99413  1.0000
  H   H41       1.0  0.19244  0.00587  0.62578  1.0000
  H   H42       1.0  0.19245  0.37425  0.38008  1.0000
  H   H43       1.0  0.66157  0.42500  0.11811  1.0000
  H   H44       1.0  0.66154  0.88207  0.30700  1.0000
  H   H45       1.0  0.66159  0.69299  0.57494  1.0000
  H   H46       1.0  0.33843  0.57500  0.88189  1.0000
  H   H47       1.0  0.33846  0.11793  0.69300  1.0000
  H   H48       1.0  0.33841  0.30701  0.42506  1.0000
  H   H49       1.0  0.69241  0.50644  0.05126  1.0000
  H   H50       1.0  0.69245  0.94870  0.45527  1.0000
  H   H51       1.0  0.69248  0.54485  0.49346  1.0000
  H   H52       1.0  0.30759  0.49356  0.94874  1.0000
  H   H53       1.0  0.30754  0.05130  0.54473  1.0000
  H   H54       1.0  0.30752  0.45515  0.50654  1.0000
  C   C1        1.0  0.96654  0.26935  0.71957  1.0000
  C   C2        1.0  0.96661  0.28055  0.54979  1.0000
  C   C3        1.0  0.96657  0.45017  0.73070  1.0000
  C   C4        1.0  0.03346  0.73065  0.28043  1.0000
  C   C5        1.0  0.03339  0.71945  0.45021  1.0000
  C   C6        1.0  0.03343  0.54983  0.26930  1.0000
  C   C7        1.0  0.96757  0.38608  0.78316  1.0000
  C   C8        1.0  0.96760  0.21698  0.60304  1.0000
  C   C9        1.0  0.96759  0.39699  0.61384  1.0000
  C   C10       1.0  0.03243  0.61392  0.21684  1.0000
  C   C11       1.0  0.03240  0.78302  0.39696  1.0000
  C   C12       1.0  0.03241  0.60301  0.38616  1.0000
  C   C13       1.0  0.95571  0.20169  0.77721  1.0000
  C   C14       1.0  0.95574  0.22285  0.42448  1.0000
  C   C15       1.0  0.95573  0.57540  0.79830  1.0000
  C   C16       1.0  0.04429  0.79831  0.22279  1.0000
  C   C17       1.0  0.04425  0.77715  0.57552  1.0000
  C   C18       1.0  0.04427  0.42460  0.20170  1.0000
  C   C19       1.0  0.42739  0.31227  0.98727  1.0000
  C   C20       1.0  0.42738  0.01279  0.32503  1.0000
  C   C21       1.0  0.42740  0.67495  0.68775  1.0000
  C   C22       1.0  0.57261  0.68773  0.01273  1.0000
  C   C23       1.0  0.57262  0.98721  0.67497  1.0000
  C   C24       1.0  0.57260  0.32505  0.31225  1.0000
  C   C25       1.0  0.25316  0.99708  0.85276  1.0000
  C   C26       1.0  0.25317  0.14723  0.14433  1.0000
  C   C27       1.0  0.25317  0.85567  0.00292  1.0000
  C   C28       1.0  0.74684  0.00292  0.14724  1.0000
  C   C29       1.0  0.74683  0.85276  0.85567  1.0000
  C   C30       1.0  0.74683  0.14433  0.99708  1.0000
  C   C31       1.0  0.56337  0.33933  0.84629  1.0000
  C   C32       1.0  0.56341  0.15361  0.49297  1.0000
  C   C33       1.0  0.56334  0.50704  0.66069  1.0000
  C   C34       1.0  0.43663  0.66067  0.15371  1.0000
  C   C35       1.0  0.43659  0.84639  0.50703  1.0000
  C   C36       1.0  0.43666  0.49296  0.33931  1.0000
  C   C37       1.0  0.68619  0.42148  0.03834  1.0000
  C   C38       1.0  0.68622  0.96172  0.38321  1.0000
  C   C39       1.0  0.68622  0.61683  0.57849  1.0000
  C   C40       1.0  0.31381  0.57851  0.96166  1.0000
  C   C41       1.0  0.31379  0.03828  0.61679  1.0000
  C   C42       1.0  0.31378  0.38317  0.42151  1.0000
  N   N1        1.0  0.55186  0.35881  0.95970  1.0000
  N   N2        1.0  0.55192  0.04033  0.39911  1.0000
  N   N3        1.0  0.55184  0.60088  0.64120  1.0000
  N   N4        1.0  0.44814  0.64119  0.04030  1.0000
  N   N5        1.0  0.44808  0.95967  0.60089  1.0000
  N   N6        1.0  0.44816  0.39912  0.35880  1.0000
  O   O1        1.0  0.11422  0.04957  0.86603  1.0000
  O   O2        1.0  0.11419  0.13397  0.18356  1.0000
  O   O3        1.0  0.11421  0.81642  0.95042  1.0000
  O   O4        1.0  0.88578  0.95043  0.13397  1.0000
  O   O5        1.0  0.88581  0.86603  0.81644  1.0000
  O   O6        1.0  0.88579  0.18358  0.04958  1.0000
  O   O7        1.0  0.97640  0.25475  0.88230  1.0000
  O   O8        1.0  0.97643  0.11786  0.37262  1.0000
  O   O9        1.0  0.97650  0.62731  0.74512  1.0000
  O   O10       1.0  0.02360  0.74525  0.11770  1.0000
  O   O11       1.0  0.02357  0.88214  0.62738  1.0000
  O   O12       1.0  0.02350  0.37269  0.25488  1.0000
  O   O13       1.0  0.92176  0.09830  0.71604  1.0000
  O   O14       1.0  0.92168  0.28393  0.38209  1.0000
  O   O15       1.0  0.92169  0.61773  0.90180  1.0000
  O   O16       1.0  0.07824  0.90170  0.28396  1.0000
  O   O17       1.0  0.07832  0.71607  0.61791  1.0000
  O   O18       1.0  0.07831  0.38227  0.09820  1.0000
  O   O19       1.0  0.27100  0.89338  0.80928  1.0000
  O   O20       1.0  0.27105  0.19077  0.08406  1.0000
  O   O21       1.0  0.27099  0.91597  0.10669  1.0000
  O   O22       1.0  0.72900  0.10662  0.19072  1.0000
  O   O23       1.0  0.72896  0.80923  0.91594  1.0000
  O   O24       1.0  0.72901  0.08403  0.89331  1.0000
  O   O25       1.0  0.31622  0.25098  0.91977  1.0000
  O   O26       1.0  0.31611  0.08016  0.33114  1.0000
  O   O27       1.0  0.31613  0.66883  0.74909  1.0000
  O   O28       1.0  0.68377  0.74902  0.08023  1.0000
  O   O29       1.0  0.68389  0.91984  0.66886  1.0000
  O   O30       1.0  0.68387  0.33117  0.25091  1.0000
