data_image0
_chemical_formula_structural       Zn4H48C60N16O16
_chemical_formula_sum              "Zn4 H48 C60 N16 O16"
_cell_length_a       8.73783
_cell_length_b       14.7874
_cell_length_c       19.34
_cell_angle_alpha    90
_cell_angle_beta     90
_cell_angle_gamma    90

_space_group_name_H-M_alt    "P 1"
_space_group_IT_number       1

loop_
  _space_group_symop_operation_xyz
  'x, y, z'

loop_
  _atom_site_type_symbol
  _atom_site_label
  _atom_site_symmetry_multiplicity
  _atom_site_fract_x
  _atom_site_fract_y
  _atom_site_fract_z
  _atom_site_occupancy
  Zn  Zn1       1.0  0.63285  0.95533  0.07301  1.0000
  Zn  Zn2       1.0  0.86716  0.04467  0.57301  1.0000
  Zn  Zn3       1.0  0.13284  0.54467  0.92699  1.0000
  Zn  Zn4       1.0  0.36715  0.45533  0.42699  1.0000
  H   H1        1.0  0.28412  0.12696  0.50374  1.0000
  H   H2        1.0  0.21588  0.87304  0.00374  1.0000
  H   H3        1.0  0.78412  0.37304  0.49626  1.0000
  H   H4        1.0  0.71588  0.62696  0.99626  1.0000
  H   H5        1.0  0.85943  0.96982  0.31311  1.0000
  H   H6        1.0  0.64057  0.03018  0.81311  1.0000
  H   H7        1.0  0.35943  0.53017  0.68689  1.0000
  H   H8        1.0  0.14057  0.46982  0.18689  1.0000
  H   H9        1.0  0.24565  0.29379  0.50293  1.0000
  H   H10       1.0  0.25436  0.70621  0.00293  1.0000
  H   H11       1.0  0.74565  0.20621  0.49707  1.0000
  H   H12       1.0  0.75436  0.79379  0.99707  1.0000
  H   H13       1.0  0.15894  0.86781  0.41577  1.0000
  H   H14       1.0  0.34107  0.13219  0.91577  1.0000
  H   H15       1.0  0.65894  0.63219  0.58423  1.0000
  H   H16       1.0  0.84106  0.36781  0.08423  1.0000
  H   H17       1.0  0.22044  0.97471  0.38493  1.0000
  H   H18       1.0  0.27956  0.02529  0.88493  1.0000
  H   H19       1.0  0.72044  0.52529  0.61507  1.0000
  H   H20       1.0  0.77956  0.47471  0.11507  1.0000
  H   H21       1.0  0.85756  0.95797  0.18386  1.0000
  H   H22       1.0  0.64245  0.04203  0.68386  1.0000
  H   H23       1.0  0.35755  0.54202  0.81614  1.0000
  H   H24       1.0  0.14245  0.45797  0.31614  1.0000
  H   H25       1.0  0.64268  0.16725  0.35160  1.0000
  H   H26       1.0  0.85732  0.83276  0.85160  1.0000
  H   H27       1.0  0.14268  0.33276  0.64840  1.0000
  H   H28       1.0  0.35732  0.66724  0.14840  1.0000
  H   H29       1.0  0.58739  0.33059  0.35695  1.0000
  H   H30       1.0  0.91261  0.66941  0.85696  1.0000
  H   H31       1.0  0.08739  0.16941  0.64305  1.0000
  H   H32       1.0  0.41261  0.83059  0.14305  1.0000
  H   H33       1.0  0.39386  0.01664  0.17424  1.0000
  H   H34       1.0  0.10614  0.98336  0.67424  1.0000
  H   H35       1.0  0.89386  0.48336  0.82576  1.0000
  H   H36       1.0  0.60613  0.51664  0.32576  1.0000
  H   H37       1.0  0.37594  0.03304  0.30192  1.0000
  H   H38       1.0  0.12406  0.96696  0.80192  1.0000
  H   H39       1.0  0.87594  0.46696  0.69808  1.0000
  H   H40       1.0  0.62406  0.53304  0.19808  1.0000
  H   H41       1.0  0.72006  0.01125  0.41519  1.0000
  H   H42       1.0  0.77994  0.98875  0.91519  1.0000
  H   H43       1.0  0.22006  0.48875  0.58481  1.0000
  H   H44       1.0  0.27994  0.51125  0.08481  1.0000
  H   H45       1.0  0.29993  0.89426  0.52978  1.0000
  H   H46       1.0  0.20007  0.10574  0.02978  1.0000
  H   H47       1.0  0.79993  0.60574  0.47022  1.0000
  H   H48       1.0  0.70007  0.39426  0.97022  1.0000
  C   C1        1.0  0.31640  0.93483  0.48325  1.0000
  C   C2        1.0  0.18361  0.06517  0.98325  1.0000
  C   C3        1.0  0.81639  0.56517  0.51675  1.0000
  C   C4        1.0  0.68360  0.43483  0.01675  1.0000
  C   C5        1.0  0.61636  0.00010  0.31849  1.0000
  C   C6        1.0  0.88364  0.99989  0.81849  1.0000
  C   C7        1.0  0.11636  0.49989  0.68151  1.0000
  C   C8        1.0  0.38364  0.50011  0.18151  1.0000
  C   C9        1.0  0.44676  0.98249  0.48096  1.0000
  C   C10       1.0  0.05325  0.01751  0.98096  1.0000
  C   C11       1.0  0.94675  0.51752  0.51904  1.0000
  C   C12       1.0  0.55324  0.48248  0.01904  1.0000
  C   C13       1.0  0.46613  0.13171  0.42673  1.0000
  C   C14       1.0  0.03387  0.86829  0.92673  1.0000
  C   C15       1.0  0.96613  0.36829  0.57327  1.0000
  C   C16       1.0  0.53387  0.63170  0.07327  1.0000
  C   C17       1.0  0.35340  0.16969  0.47022  1.0000
  C   C18       1.0  0.14660  0.83031  0.97022  1.0000
  C   C19       1.0  0.85340  0.33031  0.52978  1.0000
  C   C20       1.0  0.64660  0.66969  0.02978  1.0000
  C   C21       1.0  0.75410  0.97851  0.28366  1.0000
  C   C22       1.0  0.74590  0.02149  0.78366  1.0000
  C   C23       1.0  0.25410  0.52148  0.71634  1.0000
  C   C24       1.0  0.24590  0.47851  0.21634  1.0000
  C   C25       1.0  0.33200  0.26233  0.47014  1.0000
  C   C26       1.0  0.16800  0.73767  0.97014  1.0000
  C   C27       1.0  0.83201  0.23767  0.52986  1.0000
  C   C28       1.0  0.66800  0.76233  0.02986  1.0000
  C   C29       1.0  0.18998  0.93701  0.43184  1.0000
  C   C30       1.0  0.31002  0.06299  0.93184  1.0000
  C   C31       1.0  0.68998  0.56299  0.56816  1.0000
  C   C32       1.0  0.81002  0.43701  0.06816  1.0000
  C   C33       1.0  0.04326  0.97902  0.46216  1.0000
  C   C34       1.0  0.45674  0.02098  0.96216  1.0000
  C   C35       1.0  0.54326  0.52098  0.53784  1.0000
  C   C36       1.0  0.95673  0.47902  0.03784  1.0000
  C   C37       1.0  0.75292  0.97165  0.21269  1.0000
  C   C38       1.0  0.74708  0.02835  0.71269  1.0000
  C   C39       1.0  0.25292  0.52835  0.78731  1.0000
  C   C40       1.0  0.24708  0.47165  0.28731  1.0000
  C   C41       1.0  0.55260  0.19173  0.38550  1.0000
  C   C42       1.0  0.94740  0.80827  0.88550  1.0000
  C   C43       1.0  0.05261  0.30827  0.61450  1.0000
  C   C44       1.0  0.44740  0.69173  0.11450  1.0000
  C   C45       1.0  0.52237  0.28330  0.38880  1.0000
  C   C46       1.0  0.97763  0.71670  0.88880  1.0000
  C   C47       1.0  0.02237  0.21670  0.61120  1.0000
  C   C48       1.0  0.47763  0.78330  0.11120  1.0000
  C   C49       1.0  0.49381  0.00523  0.20700  1.0000
  C   C50       1.0  0.00619  0.99477  0.70700  1.0000
  C   C51       1.0  0.99381  0.49477  0.79300  1.0000
  C   C52       1.0  0.50619  0.50523  0.29300  1.0000
  C   C53       1.0  0.48387  0.01411  0.27798  1.0000
  C   C54       1.0  0.01613  0.98589  0.77798  1.0000
  C   C55       1.0  0.98387  0.48590  0.72202  1.0000
  C   C56       1.0  0.51612  0.51410  0.22202  1.0000
  C   C57       1.0  0.56118  0.98238  0.53949  1.0000
  C   C58       1.0  0.93883  0.01762  0.03949  1.0000
  C   C59       1.0  0.06118  0.51762  0.46051  1.0000
  C   C60       1.0  0.43883  0.48238  0.96051  1.0000
  N   N1        1.0  0.61768  0.00914  0.38834  1.0000
  N   N2        1.0  0.88232  0.99086  0.88834  1.0000
  N   N3        1.0  0.11768  0.49086  0.61166  1.0000
  N   N4        1.0  0.38232  0.50913  0.11166  1.0000
  N   N5        1.0  0.48751  0.03928  0.42323  1.0000
  N   N6        1.0  0.01249  0.96072  0.92324  1.0000
  N   N7        1.0  0.98751  0.46072  0.57677  1.0000
  N   N8        1.0  0.51248  0.53928  0.07676  1.0000
  N   N9        1.0  0.41399  0.31949  0.43006  1.0000
  N   N10       1.0  0.08601  0.68051  0.93006  1.0000
  N   N11       1.0  0.91400  0.18050  0.56994  1.0000
  N   N12       1.0  0.58601  0.81949  0.06994  1.0000
  N   N13       1.0  0.62519  0.98400  0.17395  1.0000
  N   N14       1.0  0.87482  0.01600  0.67395  1.0000
  N   N15       1.0  0.12518  0.51599  0.82605  1.0000
  N   N16       1.0  0.37481  0.48400  0.32605  1.0000
  O   O1        1.0  0.03953  0.98262  0.52906  1.0000
  O   O2        1.0  0.46047  0.01738  0.02906  1.0000
  O   O3        1.0  0.53953  0.51738  0.47094  1.0000
  O   O4        1.0  0.96047  0.48262  0.97094  1.0000
  O   O5        1.0  0.94108  0.00593  0.42205  1.0000
  O   O6        1.0  0.55892  0.99407  0.92206  1.0000
  O   O7        1.0  0.44108  0.49407  0.57794  1.0000
  O   O8        1.0  0.05892  0.50593  0.07795  1.0000
  O   O9        1.0  0.54704  0.93215  0.59026  1.0000
  O   O10       1.0  0.95297  0.06785  0.09026  1.0000
  O   O11       1.0  0.04703  0.56785  0.40974  1.0000
  O   O12       1.0  0.45297  0.43216  0.90974  1.0000
  O   O13       1.0  0.67005  0.04160  0.52868  1.0000
  O   O14       1.0  0.82996  0.95840  0.02869  1.0000
  O   O15       1.0  0.17004  0.45840  0.47132  1.0000
  O   O16       1.0  0.32996  0.54160  0.97131  1.0000
