data_image0
_chemical_formula_structural       Cd4H44C60N16O16
_chemical_formula_sum              "Cd4 H44 C60 N16 O16"
_cell_length_a       10.0634
_cell_length_b       13.2411
_cell_length_c       17.9158
_cell_angle_alpha    78.193
_cell_angle_beta     73.6818
_cell_angle_gamma    67.6816

_space_group_name_H-M_alt    "P 1"
_space_group_IT_number       1

loop_
  _space_group_symop_operation_xyz
  'x, y, z'

loop_
  _atom_site_type_symbol
  _atom_site_label
  _atom_site_symmetry_multiplicity
  _atom_site_fract_x
  _atom_site_fract_y
  _atom_site_fract_z
  _atom_site_occupancy
  Cd  Cd1       1.0  0.42443  0.90024  0.93197  1.0000
  Cd  Cd2       1.0  0.25659  0.59975  0.56816  1.0000
  Cd  Cd3       1.0  0.57557  0.09975  0.06804  1.0000
  Cd  Cd4       1.0  0.74340  0.40026  0.43184  1.0000
  H   H1        1.0  0.67219  0.79330  0.77983  1.0000
  H   H2        1.0  0.24504  0.70666  0.72038  1.0000
  H   H3        1.0  0.32781  0.20669  0.22017  1.0000
  H   H4        1.0  0.75497  0.29335  0.27961  1.0000
  H   H5        1.0  0.74832  0.64425  0.69465  1.0000
  H   H6        1.0  0.08739  0.85617  0.80523  1.0000
  H   H7        1.0  0.25167  0.35574  0.30536  1.0000
  H   H8        1.0  0.91261  0.14383  0.19477  1.0000
  H   H9        1.0  0.38942  0.54300  0.84526  1.0000
  H   H10       1.0  0.77791  0.95705  0.65470  1.0000
  H   H11       1.0  0.61058  0.45699  0.15475  1.0000
  H   H12       1.0  0.22210  0.04297  0.34530  1.0000
  H   H13       1.0  0.32213  0.70202  0.91807  1.0000
  H   H14       1.0  0.94233  0.79798  0.58196  1.0000
  H   H15       1.0  0.67788  0.29797  0.08195  1.0000
  H   H16       1.0  0.05767  0.20205  0.41802  1.0000
  H   H17       1.0  0.37670  0.30819  0.80856  1.0000
  H   H18       1.0  0.49384  0.19188  0.69148  1.0000
  H   H19       1.0  0.62330  0.69180  0.19144  1.0000
  H   H20       1.0  0.50617  0.80813  0.30853  1.0000
  H   H21       1.0  0.38718  0.18645  0.93576  1.0000
  H   H22       1.0  0.50978  0.31327  0.56413  1.0000
  H   H23       1.0  0.61283  0.81354  0.06425  1.0000
  H   H24       1.0  0.49022  0.68673  0.43586  1.0000
  H   H25       1.0  0.74062  0.25557  0.96024  1.0000
  H   H26       1.0  0.95682  0.24429  0.53940  1.0000
  H   H27       1.0  0.25938  0.74442  0.03976  1.0000
  H   H28       1.0  0.04319  0.75571  0.46058  1.0000
  H   H29       1.0  0.74112  0.38377  0.83802  1.0000
  H   H30       1.0  0.96334  0.11617  0.66169  1.0000
  H   H31       1.0  0.25888  0.61622  0.16198  1.0000
  H   H32       1.0  0.03667  0.88385  0.33831  1.0000
  H   H33       1.0  0.01100  0.34877  0.64243  1.0000
  H   H34       1.0  0.00258  0.15130  0.85751  1.0000
  H   H35       1.0  0.98900  0.65124  0.35755  1.0000
  H   H36       1.0  0.99743  0.84870  0.14250  1.0000
  H   H37       1.0  0.90084  0.43370  0.71664  1.0000
  H   H38       1.0  0.05142  0.06642  0.78328  1.0000
  H   H39       1.0  0.09917  0.56629  0.28336  1.0000
  H   H40       1.0  0.94859  0.93359  0.21672  1.0000
  H   H41       1.0  0.86317  0.48755  0.54436  1.0000
  H   H42       1.0  0.89534  0.01250  0.95557  1.0000
  H   H43       1.0  0.13680  0.51247  0.45564  1.0000
  H   H44       1.0  0.10467  0.98749  0.04443  1.0000
  C   C1        1.0  0.61225  0.73619  0.79157  1.0000
  C   C2        1.0  0.13993  0.76389  0.70850  1.0000
  C   C3        1.0  0.38776  0.26380  0.20844  1.0000
  C   C4        1.0  0.86008  0.23612  0.29149  1.0000
  C   C5        1.0  0.65574  0.65212  0.74505  1.0000
  C   C6        1.0  0.05308  0.84819  0.75486  1.0000
  C   C7        1.0  0.34426  0.34785  0.25496  1.0000
  C   C8        1.0  0.94693  0.15182  0.24513  1.0000
  C   C9        1.0  0.57822  0.57805  0.76458  1.0000
  C   C10       1.0  0.92101  0.92217  0.73535  1.0000
  C   C11       1.0  0.42177  0.42195  0.23542  1.0000
  C   C12       1.0  0.07899  0.07785  0.26464  1.0000
  C   C13       1.0  0.45639  0.59537  0.82902  1.0000
  C   C14       1.0  0.88098  0.90473  0.67094  1.0000
  C   C15       1.0  0.54363  0.40461  0.17099  1.0000
  C   C16       1.0  0.11902  0.09528  0.32905  1.0000
  C   C17       1.0  0.41937  0.68378  0.87001  1.0000
  C   C18       1.0  0.97326  0.81626  0.63001  1.0000
  C   C19       1.0  0.58064  0.31620  0.13000  1.0000
  C   C20       1.0  0.02674  0.18377  0.36998  1.0000
  C   C21       1.0  0.55741  0.35727  0.81229  1.0000
  C   C22       1.0  0.72740  0.14277  0.68756  1.0000
  C   C23       1.0  0.44261  0.64269  0.18772  1.0000
  C   C24       1.0  0.27262  0.85723  0.31244  1.0000
  C   C25       1.0  0.45662  0.29992  0.84173  1.0000
  C   C26       1.0  0.59867  0.20003  0.65818  1.0000
  C   C27       1.0  0.54338  0.70007  0.15827  1.0000
  C   C28       1.0  0.40133  0.79998  0.34182  1.0000
  C   C29       1.0  0.46174  0.23323  0.91203  1.0000
  C   C30       1.0  0.60743  0.26653  0.58780  1.0000
  C   C31       1.0  0.53826  0.76676  0.08798  1.0000
  C   C32       1.0  0.39258  0.73347  0.41219  1.0000
  C   C33       1.0  0.65814  0.27288  0.92634  1.0000
  C   C34       1.0  0.85777  0.22697  0.57335  1.0000
  C   C35       1.0  0.34186  0.72712  0.07367  1.0000
  C   C36       1.0  0.14224  0.77303  0.42664  1.0000
  C   C37       1.0  0.65851  0.34394  0.85830  1.0000
  C   C38       1.0  0.86120  0.15598  0.64143  1.0000
  C   C39       1.0  0.34148  0.65605  0.14171  1.0000
  C   C40       1.0  0.13881  0.84404  0.35856  1.0000
  C   C41       1.0  0.56975  0.55105  0.58536  1.0000
  C   C42       1.0  0.70640  0.94888  0.91469  1.0000
  C   C43       1.0  0.43023  0.44894  0.41464  1.0000
  C   C44       1.0  0.29360  0.05112  0.08531  1.0000
  C   C45       1.0  0.68040  0.50621  0.63621  1.0000
  C   C46       1.0  0.82290  0.99384  0.86381  1.0000
  C   C47       1.0  0.31958  0.49379  0.36380  1.0000
  C   C48       1.0  0.17710  0.00615  0.13619  1.0000
  C   C49       1.0  0.82620  0.47723  0.60793  1.0000
  C   C50       1.0  0.91149  0.02288  0.89202  1.0000
  C   C51       1.0  0.17378  0.52278  0.39207  1.0000
  C   C52       1.0  0.08852  0.97711  0.10798  1.0000
  C   C53       1.0  0.94375  0.43461  0.65299  1.0000
  C   C54       1.0  0.03154  0.06549  0.84693  1.0000
  C   C55       1.0  0.05624  0.56540  0.34701  1.0000
  C   C56       1.0  0.96846  0.93451  0.15307  1.0000
  C   C57       1.0  0.05033  0.49944  0.62659  1.0000
  C   C58       1.0  0.17652  0.00054  0.87334  1.0000
  C   C59       1.0  0.94965  0.50057  0.37341  1.0000
  C   C60       1.0  0.82349  0.99945  0.12666  1.0000
  N   N1        1.0  0.49606  0.75281  0.85322  1.0000
  N   N2        1.0  0.10199  0.74714  0.64692  1.0000
  N   N3        1.0  0.50394  0.24718  0.14679  1.0000
  N   N4        1.0  0.89801  0.25288  0.35307  1.0000
  N   N5        1.0  0.61766  0.49234  0.71898  1.0000
  N   N6        1.0  0.82903  0.00775  0.78100  1.0000
  N   N7        1.0  0.38235  0.50763  0.28103  1.0000
  N   N8        1.0  0.17098  0.99224  0.21900  1.0000
  N   N9        1.0  0.56252  0.41099  0.73857  1.0000
  N   N10       1.0  0.71248  0.08932  0.76137  1.0000
  N   N11       1.0  0.43747  0.58903  0.26143  1.0000
  N   N12       1.0  0.28753  0.91072  0.23862  1.0000
  N   N13       1.0  0.56139  0.21852  0.95410  1.0000
  N   N14       1.0  0.73441  0.28124  0.54565  1.0000
  N   N15       1.0  0.43861  0.78147  0.04590  1.0000
  N   N16       1.0  0.26560  0.71876  0.45434  1.0000
  O   O1        1.0  0.43607  0.59147  0.62218  1.0000
  O   O2        1.0  0.64970  0.90859  0.87791  1.0000
  O   O3        1.0  0.56391  0.40853  0.37783  1.0000
  O   O4        1.0  0.35030  0.09141  0.12208  1.0000
  O   O5        1.0  0.61407  0.54741  0.51231  1.0000
  O   O6        1.0  0.67441  0.95224  0.98777  1.0000
  O   O7        1.0  0.38589  0.45259  0.48770  1.0000
  O   O8        1.0  0.32560  0.04775  0.01223  1.0000
  O   O9        1.0  0.16009  0.46872  0.65753  1.0000
  O   O10       1.0  0.28659  0.03121  0.84244  1.0000
  O   O11       1.0  0.83988  0.53131  0.34248  1.0000
  O   O12       1.0  0.71341  0.96879  0.15756  1.0000
  O   O13       1.0  0.02369  0.58037  0.57333  1.0000
  O   O14       1.0  0.17738  0.91961  0.92658  1.0000
  O   O15       1.0  0.97629  0.41965  0.42667  1.0000
  O   O16       1.0  0.82262  0.08039  0.07343  1.0000
