data_image0
_chemical_formula_structural       Cd2H26C30N2O10
_chemical_formula_sum              "Cd2 H26 C30 N2 O10"
_cell_length_a       7.64971
_cell_length_b       9.73133
_cell_length_c       11.6572
_cell_angle_alpha    113.953
_cell_angle_beta     107.37
_cell_angle_gamma    91.1248

_space_group_name_H-M_alt    "P 1"
_space_group_IT_number       1

loop_
  _space_group_symop_operation_xyz
  'x, y, z'

loop_
  _atom_site_type_symbol
  _atom_site_label
  _atom_site_symmetry_multiplicity
  _atom_site_fract_x
  _atom_site_fract_y
  _atom_site_fract_z
  _atom_site_occupancy
  Cd  Cd1       1.0  0.24163  0.48642  0.00621  1.0000
  Cd  Cd2       1.0  0.75837  0.51358  0.99380  1.0000
  H   H1        1.0  0.62287  0.29993  0.69284  1.0000
  H   H2        1.0  0.37714  0.70007  0.30716  1.0000
  H   H3        1.0  0.96136  0.94782  0.65632  1.0000
  H   H4        1.0  0.03864  0.05218  0.34369  1.0000
  H   H5        1.0  0.49798  0.58041  0.60428  1.0000
  H   H6        1.0  0.50202  0.41960  0.39573  1.0000
  H   H7        1.0  0.25878  0.56526  0.39703  1.0000
  H   H8        1.0  0.74123  0.43474  0.60297  1.0000
  H   H9        1.0  0.06854  0.46921  0.73573  1.0000
  H   H10       1.0  0.93146  0.53078  0.26427  1.0000
  H   H11       1.0  0.54738  0.78463  0.12171  1.0000
  H   H12       1.0  0.45262  0.21538  0.87830  1.0000
  H   H13       1.0  0.71199  0.00354  0.22014  1.0000
  H   H14       1.0  0.28801  0.99647  0.77985  1.0000
  H   H15       1.0  0.58944  0.13971  0.30905  1.0000
  H   H16       1.0  0.41056  0.86030  0.69094  1.0000
  H   H17       1.0  0.63427  0.15017  0.17127  1.0000
  H   H18       1.0  0.36572  0.84982  0.82871  1.0000
  H   H19       1.0  0.15783  0.95227  0.99576  1.0000
  H   H20       1.0  0.84217  0.04773  0.00424  1.0000
  H   H21       1.0  0.29953  0.13612  0.06850  1.0000
  H   H22       1.0  0.70046  0.86388  0.93150  1.0000
  H   H23       1.0  0.20454  0.07826  0.16712  1.0000
  H   H24       1.0  0.79547  0.92173  0.83288  1.0000
  H   H25       1.0  0.29581  0.23936  0.53779  1.0000
  H   H26       1.0  0.70420  0.76064  0.46221  1.0000
  C   C1        1.0  0.96358  0.24644  0.80357  1.0000
  C   C2        1.0  0.03642  0.75356  0.19643  1.0000
  C   C3        1.0  0.80608  0.13572  0.68707  1.0000
  C   C4        1.0  0.19392  0.86428  0.31293  1.0000
  C   C5        1.0  0.63879  0.18159  0.64249  1.0000
  C   C6        1.0  0.36121  0.81841  0.35751  1.0000
  C   C7        1.0  0.48825  0.07770  0.53315  1.0000
  C   C8        1.0  0.51175  0.92230  0.46686  1.0000
  C   C9        1.0  0.82838  0.98168  0.62079  1.0000
  C   C10       1.0  0.17162  0.01832  0.37920  1.0000
  C   C11       1.0  0.44370  0.51652  0.79536  1.0000
  C   C12       1.0  0.55630  0.48348  0.20465  1.0000
  C   C13       1.0  0.29706  0.52298  0.68086  1.0000
  C   C14       1.0  0.70293  0.47702  0.31914  1.0000
  C   C15       1.0  0.35066  0.55330  0.58574  1.0000
  C   C16       1.0  0.64934  0.44669  0.41426  1.0000
  C   C17       1.0  0.21915  0.54596  0.47237  1.0000
  C   C18       1.0  0.78085  0.45404  0.52763  1.0000
  C   C19       1.0  0.11107  0.49149  0.66285  1.0000
  C   C20       1.0  0.88893  0.50850  0.33715  1.0000
  C   C21       1.0  0.02732  0.51285  0.45093  1.0000
  C   C22       1.0  0.97268  0.48714  0.54907  1.0000
  C   C23       1.0  0.41513  0.82106  0.08469  1.0000
  C   C24       1.0  0.58487  0.17895  0.91532  1.0000
  C   C25       1.0  0.60082  0.07179  0.21063  1.0000
  C   C26       1.0  0.39918  0.92821  0.78936  1.0000
  C   C27       1.0  0.26236  0.03833  0.08541  1.0000
  C   C28       1.0  0.73764  0.96167  0.91459  1.0000
  C   C29       1.0  0.31468  0.12185  0.48667  1.0000
  C   C30       1.0  0.68532  0.87814  0.51332  1.0000
  N   N1        1.0  0.42672  0.97057  0.12053  1.0000
  N   N2        1.0  0.57328  0.02943  0.87947  1.0000
  O   O1        1.0  0.11151  0.20245  0.84813  1.0000
  O   O2        1.0  0.88850  0.79755  0.15188  1.0000
  O   O3        1.0  0.40456  0.43943  0.85344  1.0000
  O   O4        1.0  0.59544  0.56057  0.14656  1.0000
  O   O5        1.0  0.26637  0.72749  0.01426  1.0000
  O   O6        1.0  0.73362  0.27251  0.98575  1.0000
  O   O7        1.0  0.94421  0.38965  0.85383  1.0000
  O   O8        1.0  0.05579  0.61035  0.14617  1.0000
  O   O9        1.0  0.60917  0.58163  0.82768  1.0000
  O   O10       1.0  0.39083  0.41838  0.17233  1.0000
