data_image0
_chemical_formula_structural       Zn2H48C40N8O8
_chemical_formula_sum              "Zn2 H48 C40 N8 O8"
_cell_length_a       6.73514
_cell_length_b       9.65568
_cell_length_c       15.4529
_cell_angle_alpha    96.5808
_cell_angle_beta     92.33
_cell_angle_gamma    91.907

_space_group_name_H-M_alt    "P 1"
_space_group_IT_number       1

loop_
  _space_group_symop_operation_xyz
  'x, y, z'

loop_
  _atom_site_type_symbol
  _atom_site_label
  _atom_site_symmetry_multiplicity
  _atom_site_fract_x
  _atom_site_fract_y
  _atom_site_fract_z
  _atom_site_occupancy
  Zn  Zn1       1.0  0.85938  0.02129  0.25062  1.0000
  Zn  Zn2       1.0  0.14061  0.97872  0.74939  1.0000
  H   H1        1.0  0.84644  0.81436  0.07095  1.0000
  H   H2        1.0  0.15355  0.18565  0.92906  1.0000
  H   H3        1.0  0.16274  0.80627  0.95886  1.0000
  H   H4        1.0  0.83724  0.19372  0.04114  1.0000
  H   H5        1.0  0.33462  0.04868  0.19831  1.0000
  H   H6        1.0  0.66539  0.95133  0.80170  1.0000
  H   H7        1.0  0.56084  0.85366  0.01772  1.0000
  H   H8        1.0  0.43915  0.14633  0.98228  1.0000
  H   H9        1.0  0.59561  0.00784  0.09302  1.0000
  H   H10       1.0  0.40439  0.99216  0.90698  1.0000
  H   H11       1.0  0.64639  0.60621  0.09753  1.0000
  H   H12       1.0  0.35361  0.39380  0.90247  1.0000
  H   H13       1.0  0.44114  0.71393  0.11929  1.0000
  H   H14       1.0  0.55886  0.28608  0.88071  1.0000
  H   H15       1.0  0.33013  0.48559  0.03612  1.0000
  H   H16       1.0  0.66987  0.51441  0.96388  1.0000
  H   H17       1.0  0.09999  0.60437  0.14106  1.0000
  H   H18       1.0  0.90001  0.39564  0.85894  1.0000
  H   H19       1.0  0.06966  0.42024  0.13712  1.0000
  H   H20       1.0  0.93034  0.57977  0.86288  1.0000
  H   H21       1.0  0.08957  0.53469  0.29142  1.0000
  H   H22       1.0  0.91044  0.46532  0.70859  1.0000
  H   H23       1.0  0.40222  0.65722  0.35273  1.0000
  H   H24       1.0  0.59779  0.34278  0.64727  1.0000
  H   H25       1.0  0.29861  0.74232  0.26577  1.0000
  H   H26       1.0  0.70140  0.25769  0.73423  1.0000
  H   H27       1.0  0.69743  0.50045  0.32383  1.0000
  H   H28       1.0  0.30257  0.49955  0.67617  1.0000
  H   H29       1.0  0.79820  0.48080  0.21940  1.0000
  H   H30       1.0  0.20180  0.51920  0.78060  1.0000
  H   H31       1.0  0.60119  0.34348  0.09095  1.0000
  H   H32       1.0  0.39881  0.65653  0.90904  1.0000
  H   H33       1.0  0.36381  0.26687  0.10726  1.0000
  H   H34       1.0  0.63619  0.73313  0.89274  1.0000
  H   H35       1.0  0.35970  0.38891  0.34623  1.0000
  H   H36       1.0  0.64031  0.61110  0.65377  1.0000
  H   H37       1.0  0.22079  0.29536  0.25795  1.0000
  H   H38       1.0  0.77921  0.70464  0.74205  1.0000
  H   H39       1.0  0.17198  0.87863  0.36548  1.0000
  H   H40       1.0  0.82802  0.12137  0.63452  1.0000
  H   H41       1.0  0.94701  0.28187  0.40477  1.0000
  H   H42       1.0  0.05300  0.71813  0.59523  1.0000
  H   H43       1.0  0.21544  0.24789  0.54292  1.0000
  H   H44       1.0  0.78458  0.75210  0.45708  1.0000
  H   H45       1.0  0.36408  0.87381  0.51557  1.0000
  H   H46       1.0  0.63593  0.12618  0.48443  1.0000
  H   H47       1.0  0.39191  0.02994  0.58648  1.0000
  H   H48       1.0  0.60811  0.97005  0.41352  1.0000
  C   C1        1.0  0.99393  0.86314  0.08004  1.0000
  C   C2        1.0  0.00606  0.13685  0.91997  1.0000
  C   C3        1.0  0.14883  0.85602  0.02491  1.0000
  C   C4        1.0  0.85115  0.14399  0.97509  1.0000
  C   C5        1.0  0.24004  0.98783  0.14837  1.0000
  C   C6        1.0  0.75996  0.01218  0.85164  1.0000
  C   C7        1.0  0.50212  0.95629  0.03822  1.0000
  C   C8        1.0  0.49786  0.04370  0.96178  1.0000
  C   C9        1.0  0.70231  0.75613  0.26032  1.0000
  C   C10       1.0  0.29769  0.24387  0.73967  1.0000
  C   C11       1.0  0.56270  0.62876  0.23262  1.0000
  C   C12       1.0  0.43731  0.37124  0.76738  1.0000
  C   C13       1.0  0.50921  0.61725  0.13399  1.0000
  C   C14       1.0  0.49079  0.38276  0.86601  1.0000
  C   C15       1.0  0.36556  0.49189  0.10672  1.0000
  C   C16       1.0  0.63443  0.50811  0.89328  1.0000
  C   C17       1.0  0.17404  0.50982  0.15681  1.0000
  C   C18       1.0  0.82596  0.49019  0.84319  1.0000
  C   C19       1.0  0.22565  0.51983  0.25511  1.0000
  C   C20       1.0  0.77435  0.48018  0.74489  1.0000
  C   C21       1.0  0.36805  0.64632  0.28173  1.0000
  C   C22       1.0  0.63195  0.35368  0.71827  1.0000
  C   C23       1.0  0.62320  0.23696  0.24911  1.0000
  C   C24       1.0  0.37680  0.76304  0.75089  1.0000
  C   C25       1.0  0.51618  0.36603  0.22597  1.0000
  C   C26       1.0  0.48382  0.63398  0.77403  1.0000
  C   C27       1.0  0.65900  0.49386  0.25354  1.0000
  C   C28       1.0  0.34100  0.50614  0.74645  1.0000
  C   C29       1.0  0.46497  0.35812  0.12730  1.0000
  C   C30       1.0  0.53503  0.64189  0.87270  1.0000
  C   C31       1.0  0.32425  0.38580  0.27596  1.0000
  C   C32       1.0  0.67575  0.61421  0.72404  1.0000
  C   C33       1.0  0.15183  0.98546  0.39261  1.0000
  C   C34       1.0  0.84817  0.01454  0.60739  1.0000
  C   C35       1.0  0.03793  0.19484  0.41633  1.0000
  C   C36       1.0  0.96207  0.80515  0.58367  1.0000
  C   C37       1.0  0.17254  0.18074  0.48352  1.0000
  C   C38       1.0  0.82749  0.81926  0.51648  1.0000
  C   C39       1.0  0.39736  0.98624  0.51793  1.0000
  C   C40       1.0  0.60265  0.01374  0.48206  1.0000
  N   N1        1.0  0.05174  0.94654  0.15631  1.0000
  N   N2        1.0  0.94825  0.05347  0.84369  1.0000
  N   N3        1.0  0.30366  0.93571  0.06933  1.0000
  N   N4        1.0  0.69632  0.06429  0.93067  1.0000
  N   N5        1.0  0.02652  0.07216  0.36009  1.0000
  N   N6        1.0  0.97348  0.92783  0.63991  1.0000
  N   N7        1.0  0.24284  0.04745  0.46741  1.0000
  N   N8        1.0  0.75717  0.95254  0.53258  1.0000
  O   O1        1.0  0.85194  0.74842  0.30997  1.0000
  O   O2        1.0  0.14806  0.25158  0.69003  1.0000
  O   O3        1.0  0.65083  0.87045  0.22942  1.0000
  O   O4        1.0  0.34917  0.12955  0.77058  1.0000
  O   O5        1.0  0.75155  0.18472  0.19441  1.0000
  O   O6        1.0  0.24844  0.81527  0.80557  1.0000
  O   O7        1.0  0.59100  0.18637  0.31864  1.0000
  O   O8        1.0  0.40900  0.81363  0.68135  1.0000
