data_image0
_chemical_formula_structural       V2Mo2H16C20N4O10
_chemical_formula_sum              "V2 Mo2 H16 C20 N4 O10"
_cell_length_a       6.79763
_cell_length_b       9.59042
_cell_length_c       9.59032
_cell_angle_alpha    71.0428
_cell_angle_beta     80.1753
_cell_angle_gamma    80.1754

_space_group_name_H-M_alt    "P 1"
_space_group_IT_number       1

loop_
  _space_group_symop_operation_xyz
  'x, y, z'

loop_
  _atom_site_type_symbol
  _atom_site_label
  _atom_site_symmetry_multiplicity
  _atom_site_fract_x
  _atom_site_fract_y
  _atom_site_fract_z
  _atom_site_occupancy
  V   V1        1.0  0.33568  0.75267  0.42218  1.0000
  V   V2        1.0  0.83568  0.42218  0.75267  1.0000
  Mo  Mo1       1.0  0.37681  0.38723  0.63749  1.0000
  Mo  Mo2       1.0  0.87681  0.63749  0.38723  1.0000
  H   H1        1.0  0.40214  0.55717  0.19532  1.0000
  H   H2        1.0  0.90214  0.19532  0.55717  1.0000
  H   H3        1.0  0.43052  0.59822  0.91830  1.0000
  H   H4        1.0  0.93051  0.91831  0.59822  1.0000
  H   H5        1.0  0.40157  0.85778  0.74952  1.0000
  H   H6        1.0  0.90156  0.74953  0.85778  1.0000
  H   H7        1.0  0.34194  0.06784  0.85631  1.0000
  H   H8        1.0  0.84193  0.85631  0.06784  1.0000
  H   H9        1.0  0.26808  0.22745  0.96638  1.0000
  H   H10       1.0  0.76808  0.96638  0.22745  1.0000
  H   H11       1.0  0.20283  0.40773  0.11058  1.0000
  H   H12       1.0  0.70284  0.11058  0.40774  1.0000
  H   H13       1.0  0.20999  0.31053  0.38696  1.0000
  H   H14       1.0  0.70999  0.38695  0.31054  1.0000
  H   H15       1.0  0.27610  0.03690  0.50646  1.0000
  H   H16       1.0  0.77610  0.50645  0.03690  1.0000
  C   C1        1.0  0.38948  0.66820  0.11561  1.0000
  C   C2        1.0  0.88947  0.11561  0.66820  1.0000
  C   C3        1.0  0.40457  0.69148  0.96322  1.0000
  C   C4        1.0  0.90457  0.96322  0.69148  1.0000
  C   C5        1.0  0.38898  0.83722  0.86896  1.0000
  C   C6        1.0  0.88897  0.86896  0.83722  1.0000
  C   C7        1.0  0.35465  0.95400  0.92960  1.0000
  C   C8        1.0  0.85464  0.92961  0.95400  1.0000
  C   C9        1.0  0.33945  0.92198  0.08378  1.0000
  C   C10       1.0  0.83945  0.08379  0.92198  1.0000
  C   C11       1.0  0.30306  0.03580  0.16037  1.0000
  C   C12       1.0  0.80306  0.16037  0.03580  1.0000
  C   C13       1.0  0.27031  0.18801  0.08597  1.0000
  C   C14       1.0  0.77031  0.08597  0.18802  1.0000
  C   C15       1.0  0.23418  0.28915  0.16607  1.0000
  C   C16       1.0  0.73418  0.16607  0.28916  1.0000
  C   C17       1.0  0.23571  0.23570  0.31961  1.0000
  C   C18       1.0  0.73570  0.31961  0.23571  1.0000
  C   C19       1.0  0.27100  0.08355  0.38732  1.0000
  C   C20       1.0  0.77099  0.38732  0.08355  1.0000
  N   N1        1.0  0.35914  0.78035  0.17446  1.0000
  N   N2        1.0  0.85914  0.17446  0.78035  1.0000
  N   N3        1.0  0.30130  0.98443  0.31062  1.0000
  N   N4        1.0  0.80130  0.31062  0.98444  1.0000
  O   O1        1.0  0.30978  0.77724  0.58331  1.0000
  O   O2        1.0  0.80979  0.58331  0.77724  1.0000
  O   O3        1.0  0.37121  0.53461  0.46215  1.0000
  O   O4        1.0  0.87121  0.46215  0.53461  1.0000
  O   O5        1.0  0.13239  0.37848  0.74398  1.0000
  O   O6        1.0  0.63238  0.74398  0.37849  1.0000
  O   O7        1.0  0.45195  0.22105  0.59895  1.0000
  O   O8        1.0  0.95193  0.59896  0.22104  1.0000
  O   O9        1.0  0.54779  0.41129  0.74897  1.0000
  O   O10       1.0  0.04779  0.74896  0.41129  1.0000
