data_image0
_chemical_formula_structural       Cd2H38C34S2N10O10
_chemical_formula_sum              "Cd2 H38 C34 S2 N10 O10"
_cell_length_a       8.64112
_cell_length_b       8.93143
_cell_length_c       13.1769
_cell_angle_alpha    105.966
_cell_angle_beta     91.9759
_cell_angle_gamma    100.486

_space_group_name_H-M_alt    "P 1"
_space_group_IT_number       1

loop_
  _space_group_symop_operation_xyz
  'x, y, z'

loop_
  _atom_site_type_symbol
  _atom_site_label
  _atom_site_symmetry_multiplicity
  _atom_site_fract_x
  _atom_site_fract_y
  _atom_site_fract_z
  _atom_site_occupancy
  Cd  Cd1       1.0  0.68548  0.52905  0.30899  1.0000
  Cd  Cd2       1.0  0.31452  0.47095  0.69101  1.0000
  H   H1        1.0  0.99640  0.35690  0.36794  1.0000
  H   H2        1.0  0.00360  0.64310  0.63206  1.0000
  H   H3        1.0  0.09695  0.09225  0.05857  1.0000
  H   H4        1.0  0.90305  0.90775  0.94143  1.0000
  H   H5        1.0  0.37549  0.13200  0.12355  1.0000
  H   H6        1.0  0.62450  0.86800  0.87644  1.0000
  H   H7        1.0  0.86128  0.89744  0.26896  1.0000
  H   H8        1.0  0.13872  0.10256  0.73104  1.0000
  H   H9        1.0  0.14639  0.07022  0.37704  1.0000
  H   H10       1.0  0.85362  0.92979  0.62296  1.0000
  H   H11       1.0  0.05356  0.62571  0.44074  1.0000
  H   H12       1.0  0.94644  0.37429  0.55926  1.0000
  H   H13       1.0  0.25898  0.00028  0.57157  1.0000
  H   H14       1.0  0.74102  0.99971  0.42843  1.0000
  H   H15       1.0  0.29079  0.80305  0.53015  1.0000
  H   H16       1.0  0.70921  0.19695  0.46985  1.0000
  H   H17       1.0  0.41181  0.05950  0.42104  1.0000
  H   H18       1.0  0.58819  0.94050  0.57896  1.0000
  H   H19       1.0  0.46103  0.86874  0.39357  1.0000
  H   H20       1.0  0.53896  0.13126  0.60644  1.0000
  H   H21       1.0  0.69727  0.73158  0.11634  1.0000
  H   H22       1.0  0.30273  0.26842  0.88366  1.0000
  H   H23       1.0  0.30139  0.54537  0.25578  1.0000
  H   H24       1.0  0.69861  0.45463  0.74422  1.0000
  H   H25       1.0  0.42372  0.78768  0.02738  1.0000
  H   H26       1.0  0.57628  0.21231  0.97262  1.0000
  H   H27       1.0  0.13755  0.76140  0.08353  1.0000
  H   H28       1.0  0.86245  0.23860  0.91647  1.0000
  H   H29       1.0  0.08642  0.65437  0.17773  1.0000
  H   H30       1.0  0.91358  0.34563  0.82227  1.0000
  H   H31       1.0  0.09946  0.40019  0.04233  1.0000
  H   H32       1.0  0.90054  0.59981  0.95767  1.0000
  H   H33       1.0  0.15720  0.50713  0.94923  1.0000
  H   H34       1.0  0.84280  0.49287  0.05077  1.0000
  H   H35       1.0  0.56768  0.20671  0.28068  1.0000
  H   H36       1.0  0.43232  0.79329  0.71932  1.0000
  H   H37       1.0  0.51592  0.30819  0.40064  1.0000
  H   H38       1.0  0.48408  0.69181  0.59936  1.0000
  C   C1        1.0  0.27971  0.40476  0.46889  1.0000
  C   C2        1.0  0.72029  0.59524  0.53111  1.0000
  C   C3        1.0  0.23708  0.33032  0.35224  1.0000
  C   C4        1.0  0.76292  0.66969  0.64776  1.0000
  C   C5        1.0  0.07955  0.31012  0.31334  1.0000
  C   C6        1.0  0.92045  0.68988  0.68666  1.0000
  C   C7        1.0  0.02816  0.22451  0.20841  1.0000
  C   C8        1.0  0.97184  0.77549  0.79159  1.0000
  C   C9        1.0  0.13542  0.16120  0.14024  1.0000
  C   C10       1.0  0.86458  0.83881  0.85976  1.0000
  C   C11       1.0  0.29310  0.18281  0.17726  1.0000
  C   C12       1.0  0.70689  0.81719  0.82274  1.0000
  C   C13       1.0  0.34615  0.26546  0.28318  1.0000
  C   C14       1.0  0.65385  0.73454  0.71682  1.0000
  C   C15       1.0  0.94264  0.86383  0.31926  1.0000
  C   C16       1.0  0.05736  0.13617  0.68074  1.0000
  C   C17       1.0  0.08376  0.95201  0.37271  1.0000
  C   C18       1.0  0.91624  0.04799  0.62729  1.0000
  C   C19       1.0  0.03606  0.71950  0.40639  1.0000
  C   C20       1.0  0.96394  0.28051  0.59361  1.0000
  C   C21       1.0  0.28139  0.90687  0.50295  1.0000
  C   C22       1.0  0.71861  0.09313  0.49705  1.0000
  C   C23       1.0  0.43150  0.96614  0.45673  1.0000
  C   C24       1.0  0.56850  0.03387  0.54327  1.0000
  C   C25       1.0  0.57542  0.70011  0.13240  1.0000
  C   C26       1.0  0.42458  0.29989  0.86760  1.0000
  C   C27       1.0  0.37534  0.60362  0.20732  1.0000
  C   C28       1.0  0.62466  0.39638  0.79268  1.0000
  C   C29       1.0  0.44241  0.72953  0.08760  1.0000
  C   C30       1.0  0.55759  0.27047  0.91240  1.0000
  C   C31       1.0  0.14989  0.65516  0.10707  1.0000
  C   C32       1.0  0.85011  0.34484  0.89293  1.0000
  C   C33       1.0  0.08632  0.50498  0.01668  1.0000
  C   C34       1.0  0.91368  0.49502  0.98332  1.0000
  S   S1        1.0  0.82412  0.19224  0.16431  1.0000
  S   S2        1.0  0.17588  0.80776  0.83569  1.0000
  N   N1        1.0  0.50523  0.29004  0.32002  1.0000
  N   N2        1.0  0.49477  0.70996  0.67998  1.0000
  N   N3        1.0  0.91391  0.71858  0.34094  1.0000
  N   N4        1.0  0.08609  0.28142  0.65906  1.0000
  N   N5        1.0  0.14124  0.85892  0.42705  1.0000
  N   N6        1.0  0.85876  0.14108  0.57296  1.0000
  N   N7        1.0  0.53221  0.62130  0.20717  1.0000
  N   N8        1.0  0.46779  0.37870  0.79283  1.0000
  N   N9        1.0  0.31738  0.66813  0.13632  1.0000
  N   N10       1.0  0.68262  0.33187  0.86368  1.0000
  O   O1        1.0  0.20716  0.50994  0.51911  1.0000
  O   O2        1.0  0.79284  0.49006  0.48089  1.0000
  O   O3        1.0  0.38202  0.35099  0.51454  1.0000
  O   O4        1.0  0.61798  0.64901  0.48546  1.0000
  O   O5        1.0  0.79000  0.35414  0.17793  1.0000
  O   O6        1.0  0.20999  0.64586  0.82207  1.0000
  O   O7        1.0  0.73664  0.11174  0.23476  1.0000
  O   O8        1.0  0.26336  0.88826  0.76524  1.0000
  O   O9        1.0  0.80476  0.09994  0.05297  1.0000
  O   O10       1.0  0.19524  0.90006  0.94703  1.0000
