data_image0
_chemical_formula_structural       Cd8H36C32N30Cl2O8
_chemical_formula_sum              "Cd8 H36 C32 N30 Cl2 O8"
_cell_length_a       6.79677
_cell_length_b       11.6739
_cell_length_c       17.056
_cell_angle_alpha    90
_cell_angle_beta     90
_cell_angle_gamma    94.7295

_space_group_name_H-M_alt    "P 1"
_space_group_IT_number       1

loop_
  _space_group_symop_operation_xyz
  'x, y, z'

loop_
  _atom_site_type_symbol
  _atom_site_label
  _atom_site_symmetry_multiplicity
  _atom_site_fract_x
  _atom_site_fract_y
  _atom_site_fract_z
  _atom_site_occupancy
  Cd  Cd1       1.0  0.61618  0.13996  0.42201  1.0000
  Cd  Cd2       1.0  0.38382  0.86005  0.92201  1.0000
  Cd  Cd3       1.0  0.38382  0.86005  0.57799  1.0000
  Cd  Cd4       1.0  0.61618  0.13995  0.07799  1.0000
  Cd  Cd5       1.0  0.63435  0.63647  0.25000  1.0000
  Cd  Cd6       1.0  0.36565  0.36353  0.75000  1.0000
  Cd  Cd7       1.0  0.41579  0.33565  0.25000  1.0000
  Cd  Cd8       1.0  0.58422  0.66435  0.75000  1.0000
  H   H1        1.0  0.16741  0.76350  0.25000  1.0000
  H   H2        1.0  0.83259  0.23650  0.75000  1.0000
  H   H3        1.0  0.93003  0.59496  0.55275  1.0000
  H   H4        1.0  0.06997  0.40504  0.05275  1.0000
  H   H5        1.0  0.06997  0.40504  0.44725  1.0000
  H   H6        1.0  0.93003  0.59496  0.94725  1.0000
  H   H7        1.0  0.83324  0.45030  0.55363  1.0000
  H   H8        1.0  0.16676  0.54970  0.05363  1.0000
  H   H9        1.0  0.16676  0.54970  0.44637  1.0000
  H   H10       1.0  0.83324  0.45030  0.94637  1.0000
  H   H11       1.0  0.63222  0.58620  0.47638  1.0000
  H   H12       1.0  0.36778  0.41380  0.97638  1.0000
  H   H13       1.0  0.36778  0.41380  0.52362  1.0000
  H   H14       1.0  0.63222  0.58620  0.02362  1.0000
  H   H15       1.0  0.82853  0.60960  0.41007  1.0000
  H   H16       1.0  0.17147  0.39040  0.91006  1.0000
  H   H17       1.0  0.17147  0.39040  0.58994  1.0000
  H   H18       1.0  0.82853  0.60960  0.08993  1.0000
  H   H19       1.0  0.63036  0.31227  0.58327  1.0000
  H   H20       1.0  0.36964  0.68772  0.08327  1.0000
  H   H21       1.0  0.36964  0.68773  0.41673  1.0000
  H   H22       1.0  0.63036  0.31228  0.91673  1.0000
  H   H23       1.0  0.93492  0.28460  0.31872  1.0000
  H   H24       1.0  0.06508  0.71540  0.81872  1.0000
  H   H25       1.0  0.06508  0.71541  0.68128  1.0000
  H   H26       1.0  0.93492  0.28460  0.18128  1.0000
  H   H27       1.0  0.20638  0.07412  0.68328  1.0000
  H   H28       1.0  0.79362  0.92588  0.18327  1.0000
  H   H29       1.0  0.79362  0.92588  0.31673  1.0000
  H   H30       1.0  0.20637  0.07412  0.81673  1.0000
  H   H31       1.0  0.90129  0.42731  0.25000  1.0000
  H   H32       1.0  0.09871  0.57269  0.75000  1.0000
  H   H33       1.0  0.12914  0.05192  0.48261  1.0000
  H   H34       1.0  0.87086  0.94808  0.98261  1.0000
  H   H35       1.0  0.87086  0.94808  0.51738  1.0000
  H   H36       1.0  0.12914  0.05192  0.01738  1.0000
  C   C1        1.0  0.14438  0.67033  0.25000  1.0000
  C   C2        1.0  0.85562  0.32967  0.75000  1.0000
  C   C3        1.0  0.90226  0.51843  0.51563  1.0000
  C   C4        1.0  0.09774  0.48157  0.01563  1.0000
  C   C5        1.0  0.09774  0.48157  0.48437  1.0000
  C   C6        1.0  0.90226  0.51843  0.98437  1.0000
  C   C7        1.0  0.75853  0.54572  0.45090  1.0000
  C   C8        1.0  0.24146  0.45428  0.95090  1.0000
  C   C9        1.0  0.24146  0.45428  0.54910  1.0000
  C   C10       1.0  0.75853  0.54572  0.04910  1.0000
  C   C11       1.0  0.53891  0.23435  0.59698  1.0000
  C   C12       1.0  0.46108  0.76565  0.09698  1.0000
  C   C13       1.0  0.46108  0.76565  0.40302  1.0000
  C   C14       1.0  0.53892  0.23435  0.90302  1.0000
  C   C15       1.0  0.02906  0.23475  0.35380  1.0000
  C   C16       1.0  0.97094  0.76525  0.85380  1.0000
  C   C17       1.0  0.97094  0.76526  0.64620  1.0000
  C   C18       1.0  0.02906  0.23475  0.14620  1.0000
  C   C19       1.0  0.32288  0.11488  0.64694  1.0000
  C   C20       1.0  0.67712  0.88511  0.14693  1.0000
  C   C21       1.0  0.67712  0.88512  0.35307  1.0000
  C   C22       1.0  0.32288  0.11489  0.85307  1.0000
  C   C23       1.0  0.67156  0.44264  0.40365  1.0000
  C   C24       1.0  0.32845  0.55736  0.90365  1.0000
  C   C25       1.0  0.32844  0.55736  0.59635  1.0000
  C   C26       1.0  0.67156  0.44264  0.09635  1.0000
  C   C27       1.0  0.01283  0.49898  0.25000  1.0000
  C   C28       1.0  0.98717  0.50102  0.75000  1.0000
  C   C29       1.0  0.12359  0.11552  0.43654  1.0000
  C   C30       1.0  0.87641  0.88448  0.93654  1.0000
  C   C31       1.0  0.87641  0.88448  0.56346  1.0000
  C   C32       1.0  0.12359  0.11552  0.06346  1.0000
  N   N1        1.0  0.54940  0.13655  0.55740  1.0000
  N   N2        1.0  0.45060  0.86345  0.05740  1.0000
  N   N3        1.0  0.45060  0.86345  0.44260  1.0000
  N   N4        1.0  0.54940  0.13655  0.94261  1.0000
  N   N5        1.0  0.95761  0.15762  0.40810  1.0000
  N   N6        1.0  0.04239  0.84238  0.90810  1.0000
  N   N7        1.0  0.04239  0.84238  0.59190  1.0000
  N   N8        1.0  0.95761  0.15762  0.09190  1.0000
  N   N9        1.0  0.20655  0.49078  0.25000  1.0000
  N   N10       1.0  0.79345  0.50922  0.75000  1.0000
  N   N11       1.0  0.28584  0.16335  0.40156  1.0000
  N   N12       1.0  0.71416  0.83665  0.90156  1.0000
  N   N13       1.0  0.71416  0.83665  0.59844  1.0000
  N   N14       1.0  0.28584  0.16335  0.09844  1.0000
  N   N15       1.0  0.29167  0.60138  0.25000  1.0000
  N   N16       1.0  0.70833  0.39862  0.75000  1.0000
  N   N17       1.0  0.96568  0.60957  0.25000  1.0000
  N   N18       1.0  0.03432  0.39043  0.75000  1.0000
  N   N19       1.0  0.22448  0.24046  0.34830  1.0000
  N   N20       1.0  0.77552  0.75954  0.84830  1.0000
  N   N21       1.0  0.77552  0.75955  0.65170  1.0000
  N   N22       1.0  0.22448  0.24046  0.15170  1.0000
  N   N23       1.0  0.40867  0.05919  0.58984  1.0000
  N   N24       1.0  0.59132  0.94080  0.08984  1.0000
  N   N25       1.0  0.59132  0.94081  0.41016  1.0000
  N   N26       1.0  0.40867  0.05920  0.91016  1.0000
  N   N27       1.0  0.39913  0.22517  0.65370  1.0000
  N   N28       1.0  0.60086  0.77482  0.15370  1.0000
  N   N29       1.0  0.60086  0.77483  0.34630  1.0000
  N   N30       1.0  0.39913  0.22518  0.84630  1.0000
  Cl  Cl1       1.0  0.62849  0.15678  0.25000  1.0000
  Cl  Cl2       1.0  0.37151  0.84322  0.75000  1.0000
  O   O1        1.0  0.60676  0.46297  0.33434  1.0000
  O   O2        1.0  0.39324  0.53703  0.83434  1.0000
  O   O3        1.0  0.39324  0.53703  0.66566  1.0000
  O   O4        1.0  0.60676  0.46297  0.16566  1.0000
  O   O5        1.0  0.66346  0.34454  0.43498  1.0000
  O   O6        1.0  0.33654  0.65546  0.93498  1.0000
  O   O7        1.0  0.33654  0.65546  0.56503  1.0000
  O   O8        1.0  0.66346  0.34454  0.06503  1.0000
