data_image0
_chemical_formula_structural       Mn4V4H16C4N4O14
_chemical_formula_sum              "Mn4 V4 H16 C4 N4 O14"
_cell_length_a       4.98721
_cell_length_b       6.11559
_cell_length_c       14.2842
_cell_angle_alpha    90.0001
_cell_angle_beta     90
_cell_angle_gamma    89.9999

_space_group_name_H-M_alt    "P 1"
_space_group_IT_number       1

loop_
  _space_group_symop_operation_xyz
  'x, y, z'

loop_
  _atom_site_type_symbol
  _atom_site_label
  _atom_site_symmetry_multiplicity
  _atom_site_fract_x
  _atom_site_fract_y
  _atom_site_fract_z
  _atom_site_occupancy
  Mn  Mn1       1.0  0.10705  0.00000  0.26737  1.0000
  Mn  Mn2       1.0  0.89295  0.00000  0.73263  1.0000
  Mn  Mn3       1.0  0.60705  0.50000  0.23263  1.0000
  Mn  Mn4       1.0  0.39295  0.50000  0.76737  1.0000
  V   V1        1.0  0.55848  0.00000  0.12412  1.0000
  V   V2        1.0  0.44151  1.00000  0.87588  1.0000
  V   V3        1.0  0.05848  0.50000  0.37588  1.0000
  V   V4        1.0  0.94151  0.50000  0.62412  1.0000
  H   H1        1.0  0.54518  0.13364  0.35527  1.0000
  H   H2        1.0  0.45482  0.13363  0.64473  1.0000
  H   H3        1.0  0.04518  0.36636  0.14473  1.0000
  H   H4        1.0  0.95482  0.36637  0.85527  1.0000
  H   H5        1.0  0.45481  0.86636  0.64473  1.0000
  H   H6        1.0  0.54518  0.86637  0.35527  1.0000
  H   H7        1.0  0.95482  0.63364  0.85527  1.0000
  H   H8        1.0  0.04518  0.63363  0.14473  1.0000
  H   H9        1.0  0.25103  0.14486  0.48892  1.0000
  H   H10       1.0  0.74897  0.14486  0.51108  1.0000
  H   H11       1.0  0.75103  0.35514  0.01108  1.0000
  H   H12       1.0  0.24897  0.35514  0.98892  1.0000
  H   H13       1.0  0.74896  0.85514  0.51108  1.0000
  H   H14       1.0  0.25103  0.85514  0.48892  1.0000
  H   H15       1.0  0.24897  0.64486  0.98892  1.0000
  H   H16       1.0  0.75103  0.64486  0.01108  1.0000
  C   C1        1.0  0.37118  0.00000  0.47119  1.0000
  C   C2        1.0  0.62882  0.99999  0.52881  1.0000
  C   C3        1.0  0.87118  0.49999  0.02881  1.0000
  C   C4        1.0  0.12882  0.50001  0.97119  1.0000
  N   N1        1.0  0.42729  1.00000  0.37002  1.0000
  N   N2        1.0  0.57271  0.00001  0.62998  1.0000
  N   N3        1.0  0.92729  0.50001  0.12998  1.0000
  N   N4        1.0  0.07271  0.49999  0.87002  1.0000
  O   O1        1.0  0.41762  0.22447  0.17865  1.0000
  O   O2        1.0  0.58238  0.22447  0.82135  1.0000
  O   O3        1.0  0.91762  0.27553  0.32135  1.0000
  O   O4        1.0  0.08238  0.27553  0.67865  1.0000
  O   O5        1.0  0.58238  0.77553  0.82135  1.0000
  O   O6        1.0  0.41762  0.77553  0.17865  1.0000
  O   O7        1.0  0.08238  0.72447  0.67865  1.0000
  O   O8        1.0  0.91762  0.72447  0.32135  1.0000
  O   O9        1.0  0.89178  1.00000  0.14711  1.0000
  O   O10       1.0  0.10822  1.00000  0.85289  1.0000
  O   O11       1.0  0.39178  0.50000  0.35289  1.0000
  O   O12       1.0  0.60822  0.50000  0.64711  1.0000
  O   O13       1.0  0.50000  1.00000  1.00000  1.0000
  O   O14       1.0  1.00000  0.50000  0.50000  1.0000
