data_image0
_chemical_formula_structural       Cu2H16C24N4Cl2O8
_chemical_formula_sum              "Cu2 H16 C24 N4 Cl2 O8"
_cell_length_a       3.62274
_cell_length_b       9.92046
_cell_length_c       16.5308
_cell_angle_alpha    89.9979
_cell_angle_beta     92.5524
_cell_angle_gamma    90.0029

_space_group_name_H-M_alt    "P 1"
_space_group_IT_number       1

loop_
  _space_group_symop_operation_xyz
  'x, y, z'

loop_
  _atom_site_type_symbol
  _atom_site_label
  _atom_site_symmetry_multiplicity
  _atom_site_fract_x
  _atom_site_fract_y
  _atom_site_fract_z
  _atom_site_occupancy
  Cu  Cu1       1.0  0.86492  0.02775  0.27624  1.0000
  Cu  Cu2       1.0  0.36492  0.97226  0.77624  1.0000
  H   H1        1.0  0.51237  0.28805  0.25448  1.0000
  H   H2        1.0  0.01233  0.71195  0.75447  1.0000
  H   H3        1.0  0.70996  0.38612  0.63402  1.0000
  H   H4        1.0  0.20991  0.61388  0.13403  1.0000
  H   H5        1.0  0.58543  0.74907  0.21092  1.0000
  H   H6        1.0  0.08547  0.25094  0.71091  1.0000
  H   H7        1.0  0.81499  0.47976  0.41298  1.0000
  H   H8        1.0  0.31489  0.52023  0.91297  1.0000
  H   H9        1.0  0.03448  0.67455  0.49259  1.0000
  H   H10       1.0  0.53439  0.32543  0.99259  1.0000
  H   H11       1.0  0.30833  0.84114  0.54414  1.0000
  H   H12       1.0  0.80829  0.15885  0.04414  1.0000
  H   H13       1.0  0.51251  0.05489  0.60787  1.0000
  H   H14       1.0  0.01245  0.94510  0.10788  1.0000
  H   H15       1.0  0.08947  0.26397  0.39422  1.0000
  H   H16       1.0  0.58950  0.73604  0.89422  1.0000
  C   C1        1.0  0.68847  0.72817  0.27247  1.0000
  C   C2        1.0  0.18849  0.27184  0.77246  1.0000
  C   C3        1.0  0.68401  0.59773  0.30464  1.0000
  C   C4        1.0  0.18398  0.40227  0.80464  1.0000
  C   C5        1.0  0.81501  0.57873  0.38500  1.0000
  C   C6        1.0  0.31495  0.42126  0.88500  1.0000
  C   C7        1.0  0.94082  0.68911  0.42971  1.0000
  C   C8        1.0  0.44079  0.31088  0.92971  1.0000
  C   C9        1.0  0.94717  0.81614  0.39290  1.0000
  C   C10       1.0  0.44717  0.18386  0.89289  1.0000
  C   C11       1.0  0.08278  0.93828  0.43506  1.0000
  C   C12       1.0  0.58274  0.06173  0.93506  1.0000
  C   C13       1.0  0.25888  0.93572  0.51214  1.0000
  C   C14       1.0  0.75881  0.06427  0.01214  1.0000
  C   C15       1.0  0.37391  0.05581  0.54814  1.0000
  C   C16       1.0  0.87385  0.94418  0.04815  1.0000
  C   C17       1.0  0.31298  0.17686  0.50609  1.0000
  C   C18       1.0  0.81297  0.82314  0.00609  1.0000
  C   C19       1.0  0.13876  0.17190  0.42904  1.0000
  C   C20       1.0  0.63876  0.82811  0.92904  1.0000
  C   C21       1.0  0.54584  0.48264  0.25446  1.0000
  C   C22       1.0  0.04579  0.51736  0.75445  1.0000
  C   C23       1.0  0.42570  0.30975  0.54093  1.0000
  C   C24       1.0  0.92569  0.69024  0.04092  1.0000
  N   N1        1.0  0.82518  0.83414  0.31427  1.0000
  N   N2        1.0  0.32518  0.16587  0.81426  1.0000
  N   N3        1.0  0.02466  0.05636  0.39416  1.0000
  N   N4        1.0  0.52468  0.94365  0.89416  1.0000
  Cl  Cl1       1.0  0.35702  0.11025  0.20550  1.0000
  Cl  Cl2       1.0  0.85701  0.88976  0.70550  1.0000
  O   O1        1.0  0.38250  0.49225  0.18729  1.0000
  O   O2        1.0  0.88249  0.50775  0.68728  1.0000
  O   O3        1.0  0.61352  0.36395  0.28973  1.0000
  O   O4        1.0  0.11348  0.63604  0.78972  1.0000
  O   O5        1.0  0.34288  0.41820  0.50918  1.0000
  O   O6        1.0  0.84286  0.58180  0.00918  1.0000
  O   O7        1.0  0.62684  0.29626  0.61045  1.0000
  O   O8        1.0  0.12675  0.70374  0.11046  1.0000
