data_image0
_chemical_formula_structural       Cu4H14C18N6Cl4
_chemical_formula_sum              "Cu4 H14 C18 N6 Cl4"
_cell_length_a       8.32264
_cell_length_b       8.2201
_cell_length_c       8.36725
_cell_angle_alpha    76.403
_cell_angle_beta     73.2447
_cell_angle_gamma    75.9911

_space_group_name_H-M_alt    "P 1"
_space_group_IT_number       1

loop_
  _space_group_symop_operation_xyz
  'x, y, z'

loop_
  _atom_site_type_symbol
  _atom_site_label
  _atom_site_symmetry_multiplicity
  _atom_site_fract_x
  _atom_site_fract_y
  _atom_site_fract_z
  _atom_site_occupancy
  Cu  Cu1       1.0  0.86078  0.27647  0.28184  1.0000
  Cu  Cu2       1.0  0.13921  0.72354  0.71818  1.0000
  Cu  Cu3       1.0  0.87319  0.07747  0.92379  1.0000
  Cu  Cu4       1.0  0.12681  0.92253  0.07621  1.0000
  H   H1        1.0  0.63249  0.04482  0.55957  1.0000
  H   H2        1.0  0.36750  0.95519  0.44041  1.0000
  H   H3        1.0  0.42568  0.08011  0.83639  1.0000
  H   H4        1.0  0.57431  0.91987  0.16360  1.0000
  H   H5        1.0  0.38402  0.35070  0.94682  1.0000
  H   H6        1.0  0.61598  0.64930  0.05318  1.0000
  H   H7        1.0  0.54768  0.57524  0.77249  1.0000
  H   H8        1.0  0.45232  0.42475  0.22752  1.0000
  H   H9        1.0  0.04036  0.59345  0.08272  1.0000
  H   H10       1.0  0.95965  0.40655  0.91728  1.0000
  H   H11       1.0  0.91691  0.92018  0.42833  1.0000
  H   H12       1.0  0.08309  0.07981  0.57167  1.0000
  H   H13       1.0  0.73916  0.72430  0.64252  1.0000
  H   H14       1.0  0.26085  0.27569  0.35748  1.0000
  C   C1        1.0  0.61332  0.15954  0.61182  1.0000
  C   C2        1.0  0.38667  0.84046  0.38818  1.0000
  C   C3        1.0  0.49716  0.18036  0.76626  1.0000
  C   C4        1.0  0.50284  0.81963  0.23374  1.0000
  C   C5        1.0  0.47516  0.33039  0.82721  1.0000
  C   C6        1.0  0.52485  0.66960  0.17279  1.0000
  C   C7        1.0  0.56874  0.45434  0.73075  1.0000
  C   C8        1.0  0.43126  0.54565  0.26926  1.0000
  C   C9        1.0  0.68468  0.42388  0.57763  1.0000
  C   C10       1.0  0.31532  0.57613  0.42238  1.0000
  C   C11       1.0  0.78634  0.54866  0.46775  1.0000
  C   C12       1.0  0.21365  0.45134  0.53226  1.0000
  C   C13       1.0  0.96885  0.62312  0.20714  1.0000
  C   C14       1.0  0.03115  0.37690  0.79286  1.0000
  C   C15       1.0  0.90098  0.80307  0.39981  1.0000
  C   C16       1.0  0.09901  0.19693  0.60018  1.0000
  C   C17       1.0  0.80098  0.69502  0.51631  1.0000
  C   C18       1.0  0.19903  0.30498  0.48369  1.0000
  N   N1        1.0  0.70889  0.27583  0.51961  1.0000
  N   N2        1.0  0.29112  0.72417  0.48039  1.0000
  N   N3        1.0  0.87141  0.51423  0.30974  1.0000
  N   N4        1.0  0.12858  0.48576  0.69025  1.0000
  N   N5        1.0  0.98585  0.76757  0.24379  1.0000
  N   N6        1.0  0.01415  0.23244  0.75620  1.0000
  Cl  Cl1       1.0  0.70095  0.17953  0.15178  1.0000
  Cl  Cl2       1.0  0.29907  0.82047  0.84823  1.0000
  Cl  Cl3       1.0  0.13561  0.16008  0.15974  1.0000
  Cl  Cl4       1.0  0.86438  0.83993  0.84027  1.0000
