data_image0
_chemical_formula_structural       Cu4H14C18I4N6
_chemical_formula_sum              "Cu4 H14 C18 I4 N6"
_cell_length_a       7.37045
_cell_length_b       9.26958
_cell_length_c       9.76441
_cell_angle_alpha    92.4987
_cell_angle_beta     98.3587
_cell_angle_gamma    114.206

_space_group_name_H-M_alt    "P 1"
_space_group_IT_number       1

loop_
  _space_group_symop_operation_xyz
  'x, y, z'

loop_
  _atom_site_type_symbol
  _atom_site_label
  _atom_site_symmetry_multiplicity
  _atom_site_fract_x
  _atom_site_fract_y
  _atom_site_fract_z
  _atom_site_occupancy
  Cu  Cu1       1.0  0.90904  0.69947  0.19930  1.0000
  Cu  Cu2       1.0  0.09097  0.30053  0.80070  1.0000
  Cu  Cu3       1.0  0.90424  0.09057  0.97979  1.0000
  Cu  Cu4       1.0  0.09576  0.90943  0.02021  1.0000
  H   H1        1.0  0.82191  0.89050  0.43646  1.0000
  H   H2        1.0  0.17810  0.10951  0.56355  1.0000
  H   H3        1.0  0.73711  0.84000  0.67303  1.0000
  H   H4        1.0  0.26290  0.16000  0.32698  1.0000
  H   H5        1.0  0.67623  0.57167  0.75294  1.0000
  H   H6        1.0  0.32378  0.42833  0.24706  1.0000
  H   H7        1.0  0.70303  0.36771  0.59307  1.0000
  H   H8        1.0  0.29697  0.63228  0.40692  1.0000
  H   H9        1.0  0.71421  0.20352  0.44744  1.0000
  H   H10       1.0  0.28578  0.79648  0.55256  1.0000
  H   H11       1.0  0.76698  0.03614  0.26147  1.0000
  H   H12       1.0  0.23301  0.96386  0.73853  1.0000
  H   H13       1.0  0.87912  0.39658  0.00693  1.0000
  H   H14       1.0  0.12088  0.60342  0.99307  1.0000
  C   C1        1.0  0.79399  0.77564  0.47438  1.0000
  C   C2        1.0  0.20601  0.22436  0.52563  1.0000
  C   C3        1.0  0.74679  0.74674  0.60636  1.0000
  C   C4        1.0  0.25322  0.25326  0.39364  1.0000
  C   C5        1.0  0.71296  0.59779  0.64994  1.0000
  C   C6        1.0  0.28704  0.40221  0.35006  1.0000
  C   C7        1.0  0.72735  0.48418  0.56018  1.0000
  C   C8        1.0  0.27265  0.51582  0.43982  1.0000
  C   C9        1.0  0.77413  0.52142  0.42850  1.0000
  C   C10       1.0  0.22587  0.47858  0.57150  1.0000
  C   C11       1.0  0.78855  0.40657  0.32688  1.0000
  C   C12       1.0  0.21145  0.59343  0.67312  1.0000
  C   C13       1.0  0.75608  0.25095  0.35075  1.0000
  C   C14       1.0  0.24391  0.74906  0.64924  1.0000
  C   C15       1.0  0.78454  0.15717  0.24874  1.0000
  C   C16       1.0  0.21545  0.84283  0.75126  1.0000
  C   C17       1.0  0.85097  0.35809  0.10866  1.0000
  C   C18       1.0  0.14902  0.64191  0.89133  1.0000
  I   I1        1.0  0.70122  0.78492  0.01321  1.0000
  I   I2        1.0  0.29877  0.21508  0.98679  1.0000
  I   I3        1.0  0.29427  0.87346  0.25743  1.0000
  I   I4        1.0  0.70573  0.12654  0.74256  1.0000
  N   N1        1.0  0.80836  0.66663  0.38651  1.0000
  N   N2        1.0  0.19164  0.33337  0.61349  1.0000
  N   N3        1.0  0.83648  0.45946  0.20301  1.0000
  N   N4        1.0  0.16352  0.54055  0.79699  1.0000
  N   N5        1.0  0.83430  0.21074  0.12710  1.0000
  N   N6        1.0  0.16569  0.78926  0.87290  1.0000
