data_image0
_chemical_formula_structural       Co4H32C36N8O8
_chemical_formula_sum              "Co4 H32 C36 N8 O8"
_cell_length_a       9.02265
_cell_length_b       9.47295
_cell_length_c       10.6978
_cell_angle_alpha    90.0004
_cell_angle_beta     98.4751
_cell_angle_gamma    89.9999

_space_group_name_H-M_alt    "P 1"
_space_group_IT_number       1

loop_
  _space_group_symop_operation_xyz
  'x, y, z'

loop_
  _atom_site_type_symbol
  _atom_site_label
  _atom_site_symmetry_multiplicity
  _atom_site_fract_x
  _atom_site_fract_y
  _atom_site_fract_z
  _atom_site_occupancy
  Co  Co1       1.0  0.13933  0.77454  0.84955  1.0000
  Co  Co2       1.0  0.36066  0.27454  0.15044  1.0000
  Co  Co3       1.0  0.86067  0.22546  0.15045  1.0000
  Co  Co4       1.0  0.63933  0.72546  0.84956  1.0000
  H   H1        1.0  0.28936  0.47595  0.91543  1.0000
  H   H2        1.0  0.21064  0.97595  0.08456  1.0000
  H   H3        1.0  0.71064  0.52404  0.08457  1.0000
  H   H4        1.0  0.78937  0.02405  0.91544  1.0000
  H   H5        1.0  0.18278  0.42928  0.36224  1.0000
  H   H6        1.0  0.31722  0.92928  0.63776  1.0000
  H   H7        1.0  0.81721  0.57073  0.63777  1.0000
  H   H8        1.0  0.68278  0.07072  0.36224  1.0000
  H   H9        1.0  0.01749  0.60690  0.44370  1.0000
  H   H10       1.0  0.48251  0.10690  0.55630  1.0000
  H   H11       1.0  0.98251  0.39310  0.55630  1.0000
  H   H12       1.0  0.51749  0.89309  0.44370  1.0000
  H   H13       1.0  0.90847  0.80477  0.30881  1.0000
  H   H14       1.0  0.59153  0.30477  0.69119  1.0000
  H   H15       1.0  0.09153  0.19523  0.69119  1.0000
  H   H16       1.0  0.40848  0.69522  0.30881  1.0000
  H   H17       1.0  0.96692  0.83571  0.09016  1.0000
  H   H18       1.0  0.53309  0.33571  0.90985  1.0000
  H   H19       1.0  0.03309  0.16429  0.90985  1.0000
  H   H20       1.0  0.46692  0.66429  0.09015  1.0000
  H   H21       1.0  0.51325  0.64208  0.59020  1.0000
  H   H22       1.0  0.98676  0.14207  0.40980  1.0000
  H   H23       1.0  0.48675  0.35792  0.40980  1.0000
  H   H24       1.0  0.01324  0.85793  0.59020  1.0000
  H   H25       1.0  0.32598  0.61754  0.50731  1.0000
  H   H26       1.0  0.17403  0.11753  0.49269  1.0000
  H   H27       1.0  0.67403  0.38246  0.49269  1.0000
  H   H28       1.0  0.82597  0.88247  0.50731  1.0000
  H   H29       1.0  0.41292  0.48410  0.61047  1.0000
  H   H30       1.0  0.08709  0.98409  0.38952  1.0000
  H   H31       1.0  0.58709  0.51591  0.38953  1.0000
  H   H32       1.0  0.91291  0.01591  0.61047  1.0000
  C   C1        1.0  0.23778  0.51600  0.99382  1.0000
  C   C2        1.0  0.26222  0.01600  0.00618  1.0000
  C   C3        1.0  0.76222  0.48400  0.00619  1.0000
  C   C4        1.0  0.73778  0.98399  0.99382  1.0000
  C   C5        1.0  0.16640  0.53224  0.17911  1.0000
  C   C6        1.0  0.33359  0.03224  0.82089  1.0000
  C   C7        1.0  0.83360  0.46776  0.82089  1.0000
  C   C8        1.0  0.66640  0.96776  0.17911  1.0000
  C   C9        1.0  0.13609  0.51668  0.30291  1.0000
  C   C10       1.0  0.36391  0.01668  0.69709  1.0000
  C   C11       1.0  0.86391  0.48332  0.69710  1.0000
  C   C12       1.0  0.63608  0.98332  0.30291  1.0000
  C   C13       1.0  0.04368  0.61685  0.34780  1.0000
  C   C14       1.0  0.45632  0.11685  0.65220  1.0000
  C   C15       1.0  0.95633  0.38315  0.65220  1.0000
  C   C16       1.0  0.54368  0.88315  0.34780  1.0000
  C   C17       1.0  0.98343  0.73055  0.27179  1.0000
  C   C18       1.0  0.51657  0.23055  0.72820  1.0000
  C   C19       1.0  0.01657  0.26945  0.72821  1.0000
  C   C20       1.0  0.48344  0.76944  0.27179  1.0000
  C   C21       1.0  0.01522  0.74863  0.14913  1.0000
  C   C22       1.0  0.48478  0.24863  0.85087  1.0000
  C   C23       1.0  0.98478  0.25136  0.85087  1.0000
  C   C24       1.0  0.51522  0.75136  0.14913  1.0000
  C   C25       1.0  0.10730  0.64825  0.10334  1.0000
  C   C26       1.0  0.39270  0.14825  0.89666  1.0000
  C   C27       1.0  0.89270  0.35175  0.89667  1.0000
  C   C28       1.0  0.60730  0.85175  0.10334  1.0000
  C   C29       1.0  0.33972  0.66041  0.70611  1.0000
  C   C30       1.0  0.16028  0.16041  0.29389  1.0000
  C   C31       1.0  0.66028  0.33959  0.29389  1.0000
  C   C32       1.0  0.83972  0.83959  0.70611  1.0000
  C   C33       1.0  0.40161  0.59881  0.59552  1.0000
  C   C34       1.0  0.09839  0.09880  0.40448  1.0000
  C   C35       1.0  0.59839  0.40120  0.40448  1.0000
  C   C36       1.0  0.90161  0.90120  0.59552  1.0000
  N   N1        1.0  0.15595  0.63554  0.98633  1.0000
  N   N2        1.0  0.34405  0.13554  0.01367  1.0000
  N   N3        1.0  0.84405  0.36446  0.01367  1.0000
  N   N4        1.0  0.65595  0.86447  0.98633  1.0000
  N   N5        1.0  0.24926  0.44994  0.10661  1.0000
  N   N6        1.0  0.25074  0.94994  0.89339  1.0000
  N   N7        1.0  0.75074  0.55006  0.89339  1.0000
  N   N8        1.0  0.74926  0.05006  0.10661  1.0000
  O   O1        1.0  0.19911  0.68506  0.69630  1.0000
  O   O2        1.0  0.30089  0.18506  0.30370  1.0000
  O   O3        1.0  0.80089  0.31494  0.30370  1.0000
  O   O4        1.0  0.69911  0.81494  0.69630  1.0000
  O   O5        1.0  0.42524  0.68539  0.81015  1.0000
  O   O6        1.0  0.07476  0.18539  0.18985  1.0000
  O   O7        1.0  0.57476  0.31461  0.18985  1.0000
  O   O8        1.0  0.92524  0.81461  0.81014  1.0000
