data_image0
_chemical_formula_structural       Cu4H14C18Br4N6
_chemical_formula_sum              "Cu4 H14 C18 Br4 N6"
_cell_length_a       8.70504
_cell_length_b       8.31783
_cell_length_c       8.54316
_cell_angle_alpha    73.2645
_cell_angle_beta     73.1561
_cell_angle_gamma    74.2446

_space_group_name_H-M_alt    "P 1"
_space_group_IT_number       1

loop_
  _space_group_symop_operation_xyz
  'x, y, z'

loop_
  _atom_site_type_symbol
  _atom_site_label
  _atom_site_symmetry_multiplicity
  _atom_site_fract_x
  _atom_site_fract_y
  _atom_site_fract_z
  _atom_site_occupancy
  Cu  Cu1       1.0  0.64108  0.21869  0.71511  1.0000
  Cu  Cu2       1.0  0.35890  0.78132  0.28487  1.0000
  Cu  Cu3       1.0  0.38329  0.58263  0.91383  1.0000
  Cu  Cu4       1.0  0.61669  0.41738  0.08617  1.0000
  H   H1        1.0  0.46489  0.90483  0.90740  1.0000
  H   H2        1.0  0.53512  0.09518  0.09259  1.0000
  H   H3        1.0  0.76253  0.79014  0.35990  1.0000
  H   H4        1.0  0.23749  0.20985  0.64010  1.0000
  H   H5        1.0  0.59021  0.59189  0.56913  1.0000
  H   H6        1.0  0.40980  0.40810  0.43088  1.0000
  H   H7        1.0  0.86988  0.44966  0.44904  1.0000
  H   H8        1.0  0.13011  0.55034  0.55096  1.0000
  H   H9        1.0  0.07492  0.41933  0.18101  1.0000
  H   H10       1.0  0.92507  0.58067  0.81899  1.0000
  H   H11       1.0  0.10978  0.15975  0.06856  1.0000
  H   H12       1.0  0.89023  0.84026  0.93144  1.0000
  H   H13       1.0  0.94389  0.94005  0.23280  1.0000
  H   H14       1.0  0.05614  0.05995  0.76720  1.0000
  C   C1        1.0  0.53557  0.87812  0.78609  1.0000
  C   C2        1.0  0.46444  0.12189  0.21391  1.0000
  C   C3        1.0  0.71407  0.95781  0.53127  1.0000
  C   C4        1.0  0.28592  0.04219  0.46873  1.0000
  C   C5        1.0  0.70092  0.81570  0.48339  1.0000
  C   C6        1.0  0.29909  0.18429  0.51661  1.0000
  C   C7        1.0  0.60443  0.70614  0.59732  1.0000
  C   C8        1.0  0.39557  0.29386  0.40268  1.0000
  C   C9        1.0  0.88786  0.33925  0.39643  1.0000
  C   C10       1.0  0.11214  0.66074  0.60358  1.0000
  C   C11       1.0  0.00279  0.32108  0.24714  1.0000
  C   C12       1.0  0.99721  0.67891  0.75287  1.0000
  C   C13       1.0  0.02125  0.17747  0.18509  1.0000
  C   C14       1.0  0.97874  0.82254  0.81490  1.0000
  C   C15       1.0  0.92647  0.05605  0.27610  1.0000
  C   C16       1.0  0.07354  0.94395  0.72390  1.0000
  C   C17       1.0  0.81393  0.08235  0.42535  1.0000
  C   C18       1.0  0.18607  0.91766  0.57465  1.0000
  Br  Br1       1.0  0.79981  0.30609  0.85789  1.0000
  Br  Br2       1.0  0.20017  0.69390  0.14212  1.0000
  Br  Br3       1.0  0.36025  0.33919  0.83657  1.0000
  Br  Br4       1.0  0.63974  0.66081  0.16342  1.0000
  N   N1        1.0  0.52069  0.73709  0.74993  1.0000
  N   N2        1.0  0.47932  0.26291  0.25007  1.0000
  N   N3        1.0  0.63044  0.98692  0.68595  1.0000
  N   N4        1.0  0.36956  0.01308  0.31405  1.0000
  N   N5        1.0  0.79228  0.22534  0.48344  1.0000
  N   N6        1.0  0.20770  0.77467  0.51656  1.0000
