data_image0
_chemical_formula_structural       Cu2H38C24N4Cl2O6
_chemical_formula_sum              "Cu2 H38 C24 N4 Cl2 O6"
_cell_length_a       7.15003
_cell_length_b       9.78118
_cell_length_c       9.26764
_cell_angle_alpha    90.0003
_cell_angle_beta     93.8941
_cell_angle_gamma    89.9988

_space_group_name_H-M_alt    "P 1"
_space_group_IT_number       1

loop_
  _space_group_symop_operation_xyz
  'x, y, z'

loop_
  _atom_site_type_symbol
  _atom_site_label
  _atom_site_symmetry_multiplicity
  _atom_site_fract_x
  _atom_site_fract_y
  _atom_site_fract_z
  _atom_site_occupancy
  Cu  Cu1       1.0  0.82658  0.87056  0.50498  1.0000
  Cu  Cu2       1.0  0.17339  0.37056  0.49504  1.0000
  H   H1        1.0  0.84384  0.15252  0.41595  1.0000
  H   H2        1.0  0.15618  0.65251  0.58403  1.0000
  H   H3        1.0  0.50381  0.77926  0.47562  1.0000
  H   H4        1.0  0.49617  0.27924  0.52439  1.0000
  H   H5        1.0  0.54109  0.95909  0.02198  1.0000
  H   H6        1.0  0.45890  0.45909  0.97802  1.0000
  H   H7        1.0  0.55840  0.11531  0.12015  1.0000
  H   H8        1.0  0.44158  0.61531  0.87985  1.0000
  H   H9        1.0  0.24934  0.09574  0.19796  1.0000
  H   H10       1.0  0.75063  0.59575  0.80203  1.0000
  H   H11       1.0  0.13122  0.86863  0.28294  1.0000
  H   H12       1.0  0.86879  0.36862  0.71706  1.0000
  H   H13       1.0  0.37466  0.70308  0.09676  1.0000
  H   H14       1.0  0.62536  0.20308  0.90325  1.0000
  H   H15       1.0  0.31735  0.66429  0.27103  1.0000
  H   H16       1.0  0.68267  0.16428  0.72901  1.0000
  H   H17       1.0  0.96199  0.07211  0.95886  1.0000
  H   H18       1.0  0.03802  0.57212  0.04112  1.0000
  H   H19       1.0  0.93426  0.03513  0.14373  1.0000
  H   H20       1.0  0.06572  0.53514  0.85626  1.0000
  H   H21       1.0  0.86005  0.91591  0.00448  1.0000
  H   H22       1.0  0.13996  0.41592  0.99551  1.0000
  H   H23       1.0  0.15379  0.91373  0.81867  1.0000
  H   H24       1.0  0.84621  0.41372  0.18133  1.0000
  H   H25       1.0  0.14299  0.75497  0.90396  1.0000
  H   H26       1.0  0.85702  0.25497  0.09602  1.0000
  H   H27       1.0  0.36041  0.84205  0.90241  1.0000
  H   H28       1.0  0.63960  0.34206  0.09758  1.0000
  H   H29       1.0  0.85747  0.72419  0.20867  1.0000
  H   H30       1.0  0.14254  0.22419  0.79133  1.0000
  H   H31       1.0  0.69464  0.74114  0.05653  1.0000
  H   H32       1.0  0.30534  0.24114  0.94349  1.0000
  H   H33       1.0  0.68144  0.59680  0.16930  1.0000
  H   H34       1.0  0.31856  0.09680  0.83072  1.0000
  H   H35       1.0  0.57789  0.53146  0.37991  1.0000
  H   H36       1.0  0.42207  0.03144  0.62010  1.0000
  H   H37       1.0  0.61216  0.58615  0.56212  1.0000
  H   H38       1.0  0.38787  0.08615  0.43788  1.0000
  C   C1        1.0  0.86621  0.57571  0.46104  1.0000
  C   C2        1.0  0.13379  0.07571  0.53895  1.0000
  C   C3        1.0  0.57447  0.78360  0.26019  1.0000
  C   C4        1.0  0.42553  0.28358  0.73982  1.0000
  C   C5        1.0  0.60891  0.93570  0.24675  1.0000
  C   C6        1.0  0.39110  0.43569  0.75325  1.0000
  C   C7        1.0  0.50940  0.00955  0.12385  1.0000
  C   C8        1.0  0.49060  0.50955  0.87615  1.0000
  C   C9        1.0  0.30187  0.00363  0.14786  1.0000
  C   C10       1.0  0.69813  0.50363  0.85214  1.0000
  C   C11       1.0  0.22936  0.86631  0.19790  1.0000
  C   C12       1.0  0.77064  0.36632  0.80210  1.0000
  C   C13       1.0  0.36776  0.74804  0.20473  1.0000
  C   C14       1.0  0.63225  0.24804  0.79529  1.0000
  C   C15       1.0  0.16025  0.92568  0.05128  1.0000
  C   C16       1.0  0.83976  0.42568  0.94872  1.0000
  C   C17       1.0  0.96804  0.99020  0.04033  1.0000
  C   C18       1.0  0.03197  0.49020  0.95967  1.0000
  C   C19       1.0  0.20957  0.85589  0.91345  1.0000
  C   C20       1.0  0.79045  0.35589  0.08654  1.0000
  C   C21       1.0  0.71141  0.70657  0.16919  1.0000
  C   C22       1.0  0.28859  0.20657  0.83082  1.0000
  C   C23       1.0  0.65574  0.60407  0.45225  1.0000
  C   C24       1.0  0.34427  0.10406  0.54774  1.0000
  N   N1        1.0  0.61302  0.74803  0.41740  1.0000
  N   N2        1.0  0.38696  0.24802  0.58260  1.0000
  N   N3        1.0  0.71613  0.99135  0.34796  1.0000
  N   N4        1.0  0.28389  0.49134  0.65204  1.0000
  Cl  Cl1       1.0  0.70041  0.86723  0.72862  1.0000
  Cl  Cl2       1.0  0.29955  0.36725  0.27137  1.0000
  O   O1        1.0  0.91779  0.45204  0.45495  1.0000
  O   O2        1.0  0.08220  0.95204  0.54500  1.0000
  O   O3        1.0  0.97576  0.67795  0.48183  1.0000
  O   O4        1.0  0.02422  0.17795  0.51817  1.0000
  O   O5        1.0  0.73729  0.13146  0.34078  1.0000
  O   O6        1.0  0.26273  0.63146  0.65919  1.0000
