data_image0
_chemical_formula_structural       Ag2H18C20S2N8O14
_chemical_formula_sum              "Ag2 H18 C20 S2 N8 O14"
_cell_length_a       8.40029
_cell_length_b       9.22948
_cell_length_c       9.44959
_cell_angle_alpha    70.4554
_cell_angle_beta     70.5636
_cell_angle_gamma    79.9673

_space_group_name_H-M_alt    "P 1"
_space_group_IT_number       1

loop_
  _space_group_symop_operation_xyz
  'x, y, z'

loop_
  _atom_site_type_symbol
  _atom_site_label
  _atom_site_symmetry_multiplicity
  _atom_site_fract_x
  _atom_site_fract_y
  _atom_site_fract_z
  _atom_site_occupancy
  Ag  Ag1       1.0  0.30399  0.62650  0.48169  1.0000
  Ag  Ag2       1.0  0.69600  0.37350  0.51831  1.0000
  H   H1        1.0  0.05341  0.05802  0.02944  1.0000
  H   H2        1.0  0.94659  0.94197  0.97055  1.0000
  H   H3        1.0  0.93476  0.04309  0.31192  1.0000
  H   H4        1.0  0.06524  0.95691  0.68808  1.0000
  H   H5        1.0  0.99433  0.24379  0.40670  1.0000
  H   H6        1.0  0.00567  0.75621  0.59330  1.0000
  H   H7        1.0  0.16740  0.46115  0.21655  1.0000
  H   H8        1.0  0.83260  0.53885  0.78345  1.0000
  H   H9        1.0  0.37128  0.49728  0.79786  1.0000
  H   H10       1.0  0.62872  0.50273  0.20214  1.0000
  H   H11       1.0  0.67005  0.86206  0.47838  1.0000
  H   H12       1.0  0.32995  0.13794  0.52162  1.0000
  H   H13       1.0  0.57854  0.03872  0.84693  1.0000
  H   H14       1.0  0.42146  0.96128  0.15307  1.0000
  H   H15       1.0  0.04064  0.65406  0.31178  1.0000
  H   H16       1.0  0.95936  0.34594  0.68822  1.0000
  H   H17       1.0  0.21129  0.73787  0.19900  1.0000
  H   H18       1.0  0.78870  0.26213  0.80100  1.0000
  C   C1        1.0  0.20270  0.38343  0.01708  1.0000
  C   C2        1.0  0.79730  0.61657  0.98292  1.0000
  C   C3        1.0  0.16911  0.26892  0.96367  1.0000
  C   C4        1.0  0.83090  0.73108  0.03633  1.0000
  C   C5        1.0  0.07344  0.14776  0.07096  1.0000
  C   C6        1.0  0.92656  0.85224  0.92904  1.0000
  C   C7        1.0  0.00841  0.13899  0.22974  1.0000
  C   C8        1.0  0.99159  0.86101  0.77026  1.0000
  C   C9        1.0  0.04137  0.25240  0.28184  1.0000
  C   C10       1.0  0.95863  0.74760  0.71816  1.0000
  C   C11       1.0  0.13838  0.37372  0.17671  1.0000
  C   C12       1.0  0.86162  0.62628  0.82328  1.0000
  C   C13       1.0  0.42445  0.72723  0.84879  1.0000
  C   C14       1.0  0.57555  0.27277  0.15121  1.0000
  C   C15       1.0  0.51306  0.73176  0.68655  1.0000
  C   C16       1.0  0.48694  0.26825  0.31345  1.0000
  C   C17       1.0  0.44528  0.84823  0.90785  1.0000
  C   C18       1.0  0.55472  0.15177  0.09215  1.0000
  C   C19       1.0  0.63465  0.97069  0.64694  1.0000
  C   C20       1.0  0.36535  0.02931  0.35307  1.0000
  S   S1        1.0  0.25237  0.27541  0.76171  1.0000
  S   S2        1.0  0.74763  0.72459  0.23829  1.0000
  N   N1        1.0  0.30331  0.50359  0.91025  1.0000
  N   N2        1.0  0.69669  0.49641  0.08975  1.0000
  N   N3        1.0  0.32398  0.61771  0.95192  1.0000
  N   N4        1.0  0.67602  0.38230  0.04808  1.0000
  N   N5        1.0  0.60896  0.85538  0.59482  1.0000
  N   N6        1.0  0.39104  0.14462  0.40518  1.0000
  N   N7        1.0  0.55794  0.95588  0.80405  1.0000
  N   N8        1.0  0.44206  0.04412  0.19595  1.0000
  O   O1        1.0  0.50398  0.62954  0.62979  1.0000
  O   O2        1.0  0.49602  0.37046  0.37021  1.0000
  O   O3        1.0  0.37082  0.85660  0.04339  1.0000
  O   O4        1.0  0.62918  0.14340  0.95661  1.0000
  O   O5        1.0  0.72149  0.07838  0.55598  1.0000
  O   O6        1.0  0.27852  0.92162  0.44402  1.0000
  O   O7        1.0  0.14593  0.68978  0.30876  1.0000
  O   O8        1.0  0.85407  0.31023  0.69124  1.0000
  O   O9        1.0  0.15639  0.40783  0.67704  1.0000
  O   O10       1.0  0.84361  0.59217  0.32296  1.0000
  O   O11       1.0  0.22622  0.12930  0.74651  1.0000
  O   O12       1.0  0.77378  0.87069  0.25349  1.0000
  O   O13       1.0  0.43044  0.30445  0.72284  1.0000
  O   O14       1.0  0.56956  0.69555  0.27716  1.0000
