data_image0
_chemical_formula_structural       Ca2H28C32N8O24
_chemical_formula_sum              "Ca2 H28 C32 N8 O24"
_cell_length_a       7.87859
_cell_length_b       8.26448
_cell_length_c       15.3226
_cell_angle_alpha    74.648
_cell_angle_beta     78.9176
_cell_angle_gamma    87.3912

_space_group_name_H-M_alt    "P 1"
_space_group_IT_number       1

loop_
  _space_group_symop_operation_xyz
  'x, y, z'

loop_
  _atom_site_type_symbol
  _atom_site_label
  _atom_site_symmetry_multiplicity
  _atom_site_fract_x
  _atom_site_fract_y
  _atom_site_fract_z
  _atom_site_occupancy
  Ca  Ca1       1.0  0.28389  0.36359  0.50151  1.0000
  Ca  Ca2       1.0  0.71611  0.63641  0.49849  1.0000
  H   H1        1.0  0.02667  0.73972  0.26827  1.0000
  H   H2        1.0  0.97333  0.26028  0.73173  1.0000
  H   H3        1.0  0.98071  0.86456  0.10655  1.0000
  H   H4        1.0  0.01929  0.13543  0.89345  1.0000
  H   H5        1.0  0.79117  0.39077  0.10007  1.0000
  H   H6        1.0  0.20883  0.60923  0.89993  1.0000
  H   H7        1.0  0.73146  0.95007  0.89461  1.0000
  H   H8        1.0  0.26853  0.04992  0.10539  1.0000
  H   H9        1.0  0.54695  0.44072  0.90925  1.0000
  H   H10       1.0  0.45305  0.55927  0.09075  1.0000
  H   H11       1.0  0.48252  0.49521  0.74953  1.0000
  H   H12       1.0  0.51748  0.50479  0.25047  1.0000
  H   H13       1.0  0.73781  0.15830  0.17045  1.0000
  H   H14       1.0  0.26220  0.84169  0.82955  1.0000
  H   H15       1.0  0.71330  0.77059  0.82736  1.0000
  H   H16       1.0  0.28669  0.22941  0.17264  1.0000
  H   H17       1.0  0.60617  0.17148  0.42935  1.0000
  H   H18       1.0  0.39383  0.82851  0.57066  1.0000
  H   H19       1.0  0.94333  0.17217  0.54933  1.0000
  H   H20       1.0  0.05667  0.82783  0.45067  1.0000
  H   H21       1.0  0.72532  0.99312  0.27183  1.0000
  H   H22       1.0  0.27468  0.00688  0.72817  1.0000
  H   H23       1.0  0.75510  0.73169  0.71707  1.0000
  H   H24       1.0  0.24490  0.26831  0.28293  1.0000
  H   H25       1.0  0.43301  0.10726  0.40912  1.0000
  H   H26       1.0  0.56700  0.89274  0.59088  1.0000
  H   H27       1.0  0.07738  0.04703  0.59759  1.0000
  H   H28       1.0  0.92262  0.95298  0.40241  1.0000
  C   C1        1.0  0.94843  0.49094  0.27273  1.0000
  C   C2        1.0  0.05157  0.50906  0.72727  1.0000
  C   C3        1.0  0.98119  0.66211  0.22983  1.0000
  C   C4        1.0  0.01881  0.33789  0.77017  1.0000
  C   C5        1.0  0.95565  0.73231  0.14065  1.0000
  C   C6        1.0  0.04435  0.26769  0.85935  1.0000
  C   C7        1.0  0.89068  0.62911  0.09560  1.0000
  C   C8        1.0  0.10931  0.37090  0.90439  1.0000
  C   C9        1.0  0.84669  0.46186  0.13826  1.0000
  C   C10       1.0  0.15331  0.53814  0.86174  1.0000
  C   C11       1.0  0.87737  0.38997  0.22731  1.0000
  C   C12       1.0  0.12263  0.61004  0.77269  1.0000
  C   C13       1.0  0.99546  0.42843  0.36702  1.0000
  C   C14       1.0  0.00453  0.57157  0.63298  1.0000
  C   C15       1.0  0.83371  0.20996  0.27692  1.0000
  C   C16       1.0  0.16629  0.79004  0.72309  1.0000
  C   C17       1.0  0.55595  0.24775  0.73632  1.0000
  C   C18       1.0  0.44405  0.75224  0.26368  1.0000
  C   C19       1.0  0.63224  0.09397  0.77463  1.0000
  C   C20       1.0  0.36776  0.90603  0.22537  1.0000
  C   C21       1.0  0.67064  0.06550  0.86246  1.0000
  C   C22       1.0  0.32936  0.93449  0.13754  1.0000
  C   C23       1.0  0.63335  0.18885  0.91024  1.0000
  C   C24       1.0  0.36665  0.81115  0.08976  1.0000
  C   C25       1.0  0.56970  0.34616  0.87068  1.0000
  C   C26       1.0  0.43030  0.65384  0.12932  1.0000
  C   C27       1.0  0.53304  0.37449  0.78284  1.0000
  C   C28       1.0  0.46696  0.62550  0.21716  1.0000
  C   C29       1.0  0.48314  0.28105  0.64953  1.0000
  C   C30       1.0  0.51687  0.71896  0.35047  1.0000
  C   C31       1.0  0.67409  0.96959  0.71782  1.0000
  C   C32       1.0  0.32591  0.03040  0.28218  1.0000
  N   N1        1.0  0.87012  0.69887  0.00073  1.0000
  N   N2        1.0  0.12988  0.30113  0.99927  1.0000
  N   N3        1.0  0.76442  0.11433  0.23490  1.0000
  N   N4        1.0  0.23558  0.88567  0.76511  1.0000
  N   N5        1.0  0.65932  0.15026  0.00487  1.0000
  N   N6        1.0  0.34068  0.84974  0.99513  1.0000
  N   N7        1.0  0.71164  0.81120  0.75879  1.0000
  N   N8        1.0  0.28836  0.18880  0.24121  1.0000
  O   O1        1.0  0.15130  0.38110  0.36830  1.0000
  O   O2        1.0  0.84870  0.61891  0.63170  1.0000
  O   O3        1.0  0.88485  0.44468  0.43534  1.0000
  O   O4        1.0  0.11515  0.55532  0.56466  1.0000
  O   O5        1.0  0.86069  0.15510  0.35803  1.0000
  O   O6        1.0  0.13931  0.84490  0.64197  1.0000
  O   O7        1.0  0.75902  0.63652  0.97083  1.0000
  O   O8        1.0  0.24098  0.36348  0.02917  1.0000
  O   O9        1.0  0.96596  0.81792  0.95299  1.0000
  O   O10       1.0  0.03404  0.18207  0.04701  1.0000
  O   O11       1.0  0.54605  0.39915  0.58126  1.0000
  O   O12       1.0  0.45395  0.60086  0.41874  1.0000
  O   O13       1.0  0.34731  0.20063  0.65290  1.0000
  O   O14       1.0  0.65269  0.79937  0.34710  1.0000
  O   O15       1.0  0.67305  0.01867  0.63303  1.0000
  O   O16       1.0  0.32695  0.98133  0.36697  1.0000
  O   O17       1.0  0.70890  0.00774  0.04076  1.0000
  O   O18       1.0  0.29110  0.99226  0.95924  1.0000
  O   O19       1.0  0.62602  0.26126  0.04736  1.0000
  O   O20       1.0  0.37398  0.73873  0.95264  1.0000
  O   O21       1.0  0.48331  0.19540  0.43039  1.0000
  O   O22       1.0  0.51669  0.80460  0.56961  1.0000
  O   O23       1.0  0.04995  0.16741  0.57328  1.0000
  O   O24       1.0  0.95005  0.83259  0.42672  1.0000
