data_image0
_chemical_formula_structural       H32Pb2C28N4O14
_chemical_formula_sum              "H32 Pb2 C28 N4 O14"
_cell_length_a       7.55251
_cell_length_b       7.70091
_cell_length_c       15.1751
_cell_angle_alpha    87.4915
_cell_angle_beta     92.8653
_cell_angle_gamma    115.627

_space_group_name_H-M_alt    "P 1"
_space_group_IT_number       1

loop_
  _space_group_symop_operation_xyz
  'x, y, z'

loop_
  _atom_site_type_symbol
  _atom_site_label
  _atom_site_symmetry_multiplicity
  _atom_site_fract_x
  _atom_site_fract_y
  _atom_site_fract_z
  _atom_site_occupancy
  H   H1        1.0  0.24736  0.87755  0.48641  1.0000
  H   H2        1.0  0.75267  0.12242  0.51359  1.0000
  H   H3        1.0  0.29025  0.66927  0.20298  1.0000
  H   H4        1.0  0.70975  0.33066  0.79703  1.0000
  H   H5        1.0  0.35740  0.84237  0.34459  1.0000
  H   H6        1.0  0.64259  0.15764  0.65539  1.0000
  H   H7        1.0  0.69511  0.32082  0.27583  1.0000
  H   H8        1.0  0.30486  0.67920  0.72418  1.0000
  H   H9        1.0  0.76078  0.49564  0.41802  1.0000
  H   H10       1.0  0.23925  0.50437  0.58199  1.0000
  H   H11       1.0  0.63963  0.52951  0.58529  1.0000
  H   H12       1.0  0.36034  0.47055  0.41470  1.0000
  H   H13       1.0  0.59458  0.73062  0.55398  1.0000
  H   H14       1.0  0.40552  0.26951  0.44597  1.0000
  H   H15       1.0  0.52665  0.61895  0.66134  1.0000
  H   H16       1.0  0.47334  0.38123  0.33862  1.0000
  H   H17       1.0  0.23491  0.98757  0.76561  1.0000
  H   H18       1.0  0.76509  0.01244  0.23439  1.0000
  H   H19       1.0  0.13487  0.14079  0.72189  1.0000
  H   H20       1.0  0.86517  0.85923  0.27810  1.0000
  H   H21       1.0  0.39351  0.20688  0.71038  1.0000
  H   H22       1.0  0.60653  0.79312  0.28963  1.0000
  H   H23       1.0  0.41861  0.50498  0.10711  1.0000
  H   H24       1.0  0.58135  0.49499  0.89291  1.0000
  H   H25       1.0  0.64127  0.58055  0.17444  1.0000
  H   H26       1.0  0.35871  0.41938  0.82557  1.0000
  H   H27       1.0  0.63029  0.48379  0.07019  1.0000
  H   H28       1.0  0.36964  0.51616  0.92981  1.0000
  H   H29       1.0  0.47684  0.85733  0.84390  1.0000
  H   H30       1.0  0.52314  0.14263  0.15611  1.0000
  H   H31       1.0  0.67529  0.88404  0.79737  1.0000
  H   H32       1.0  0.32470  0.11594  0.20264  1.0000
  Pb  Pb1       1.0  0.81250  0.15633  0.97266  1.0000
  Pb  Pb2       1.0  0.18747  0.84362  0.02734  1.0000
  C   C1        1.0  0.94813  0.38417  0.14381  1.0000
  C   C2        1.0  0.05186  0.61579  0.85619  1.0000
  C   C3        1.0  0.98774  0.48535  0.22988  1.0000
  C   C4        1.0  0.01225  0.51461  0.77013  1.0000
  C   C5        1.0  0.17441  0.63117  0.25007  1.0000
  C   C6        1.0  0.82556  0.36880  0.74991  1.0000
  C   C7        1.0  0.21255  0.72803  0.32899  1.0000
  C   C8        1.0  0.78746  0.27197  0.67101  1.0000
  C   C9        1.0  0.83916  0.43666  0.29116  1.0000
  C   C10       1.0  0.16081  0.56335  0.70885  1.0000
  C   C11       1.0  0.87444  0.53203  0.37011  1.0000
  C   C12       1.0  0.12555  0.46799  0.62989  1.0000
  C   C13       1.0  0.06214  0.67823  0.38881  1.0000
  C   C14       1.0  0.93788  0.32178  0.61118  1.0000
  C   C15       1.0  0.00769  0.84727  0.59719  1.0000
  C   C16       1.0  0.99235  0.15276  0.40281  1.0000
  C   C17       1.0  0.83205  0.79353  0.65022  1.0000
  C   C18       1.0  0.16797  0.20653  0.34978  1.0000
  C   C19       1.0  0.63557  0.65901  0.61033  1.0000
  C   C20       1.0  0.36446  0.34111  0.38963  1.0000
  C   C21       1.0  0.20667  0.98680  0.62504  1.0000
  C   C22       1.0  0.79337  0.01319  0.37497  1.0000
  C   C23       1.0  0.24542  0.08887  0.71024  1.0000
  C   C24       1.0  0.75461  0.91114  0.28976  1.0000
  C   C25       1.0  0.65867  0.77218  0.06575  1.0000
  C   C26       1.0  0.34131  0.22780  0.93426  1.0000
  C   C27       1.0  0.57952  0.57259  0.10687  1.0000
  C   C28       1.0  0.42045  0.42737  0.89315  1.0000
  N   N1        1.0  0.10532  0.77955  0.46743  1.0000
  N   N2        1.0  0.89472  0.22048  0.53255  1.0000
  N   N3        1.0  0.96734  0.75443  0.52115  1.0000
  N   N4        1.0  0.03268  0.24561  0.47884  1.0000
  O   O1        1.0  0.77779  0.24377  0.13032  1.0000
  O   O2        1.0  0.22218  0.75621  0.86968  1.0000
  O   O3        1.0  0.08157  0.44123  0.08769  1.0000
  O   O4        1.0  0.91840  0.55872  0.91233  1.0000
  O   O5        1.0  0.34692  0.01943  0.57526  1.0000
  O   O6        1.0  0.65314  0.98050  0.42476  1.0000
  O   O7        1.0  0.84360  0.85639  0.72528  1.0000
  O   O8        1.0  0.15643  0.14363  0.27472  1.0000
  O   O9        1.0  0.84432  0.87028  0.05992  1.0000
  O   O10       1.0  0.15565  0.12968  0.94011  1.0000
  O   O11       1.0  0.54096  0.84256  0.03655  1.0000
  O   O12       1.0  0.45902  0.15740  0.96345  1.0000
  O   O13       1.0  0.61476  0.94700  0.83281  1.0000
  O   O14       1.0  0.38524  0.05296  0.16720  1.0000
