data_image0
_chemical_formula_structural       Hg4H24C12N8Cl8
_chemical_formula_sum              "Hg4 H24 C12 N8 Cl8"
_cell_length_a       6.62449
_cell_length_b       6.62471
_cell_length_c       16.0263
_cell_angle_alpha    97.692
_cell_angle_beta     97.691
_cell_angle_gamma    110.676

_space_group_name_H-M_alt    "P 1"
_space_group_IT_number       1

loop_
  _space_group_symop_operation_xyz
  'x, y, z'

loop_
  _atom_site_type_symbol
  _atom_site_label
  _atom_site_symmetry_multiplicity
  _atom_site_fract_x
  _atom_site_fract_y
  _atom_site_fract_z
  _atom_site_occupancy
  Hg  Hg1       1.0  0.70870  0.45823  0.91689  1.0000
  Hg  Hg2       1.0  0.04177  0.79131  0.58311  1.0000
  Hg  Hg3       1.0  0.29131  0.54178  0.08311  1.0000
  Hg  Hg4       1.0  0.95823  0.20870  0.41690  1.0000
  H   H1        1.0  0.01414  0.14775  0.79105  1.0000
  H   H2        1.0  0.85743  0.22260  0.70904  1.0000
  H   H3        1.0  0.35216  0.48585  0.70894  1.0000
  H   H4        1.0  0.27733  0.64259  0.79096  1.0000
  H   H5        1.0  0.72266  0.35741  0.20905  1.0000
  H   H6        1.0  0.64782  0.51415  0.29106  1.0000
  H   H7        1.0  0.14257  0.77739  0.29096  1.0000
  H   H8        1.0  0.98586  0.85223  0.20894  1.0000
  H   H9        1.0  0.34935  0.02422  0.79088  1.0000
  H   H10       1.0  0.73373  0.55788  0.70910  1.0000
  H   H11       1.0  0.47582  0.15064  0.70911  1.0000
  H   H12       1.0  0.94208  0.76623  0.79090  1.0000
  H   H13       1.0  0.05792  0.23378  0.20909  1.0000
  H   H14       1.0  0.52419  0.84936  0.29089  1.0000
  H   H15       1.0  0.26627  0.44211  0.29090  1.0000
  H   H16       1.0  0.65066  0.97580  0.20912  1.0000
  H   H17       1.0  0.55841  0.92462  0.90023  1.0000
  H   H18       1.0  0.52479  0.65771  0.59975  1.0000
  H   H19       1.0  0.57537  0.94155  0.59977  1.0000
  H   H20       1.0  0.84228  0.97517  0.90026  1.0000
  H   H21       1.0  0.15773  0.02482  0.09974  1.0000
  H   H22       1.0  0.42462  0.05845  0.40023  1.0000
  H   H23       1.0  0.47519  0.34230  0.40026  1.0000
  H   H24       1.0  0.44159  0.07537  0.09977  1.0000
  C   C1        1.0  0.85188  0.10130  0.75004  1.0000
  C   C2        1.0  0.39870  0.64813  0.74997  1.0000
  C   C3        1.0  0.60132  0.35188  0.25004  1.0000
  C   C4        1.0  0.14813  0.89870  0.24996  1.0000
  C   C5        1.0  0.47064  0.02932  0.74998  1.0000
  C   C6        1.0  0.77982  0.72009  0.75001  1.0000
  C   C7        1.0  0.22016  0.27990  0.25000  1.0000
  C   C8        1.0  0.52935  0.97066  0.25001  1.0000
  C   C9        1.0  0.67994  0.92941  0.85943  1.0000
  C   C10       1.0  0.57060  0.82005  0.64056  1.0000
  C   C11       1.0  0.32006  0.07060  0.14057  1.0000
  C   C12       1.0  0.42939  0.17994  0.35944  1.0000
  N   N1        1.0  0.68879  0.09599  0.80555  1.0000
  N   N2        1.0  0.79095  0.88273  0.69449  1.0000
  N   N3        1.0  0.40397  0.81120  0.69443  1.0000
  N   N4        1.0  0.61728  0.70905  0.80551  1.0000
  N   N5        1.0  0.38272  0.29096  0.19449  1.0000
  N   N6        1.0  0.59602  0.18879  0.30557  1.0000
  N   N7        1.0  0.20905  0.11726  0.30551  1.0000
  N   N8        1.0  0.31121  0.90402  0.19445  1.0000
  Cl  Cl1       1.0  0.33845  0.24356  0.92895  1.0000
  Cl  Cl2       1.0  0.81453  0.40899  0.57096  1.0000
  Cl  Cl3       1.0  0.25643  0.16155  0.57105  1.0000
  Cl  Cl4       1.0  0.09101  0.68549  0.92904  1.0000
  Cl  Cl5       1.0  0.90900  0.31453  0.07096  1.0000
  Cl  Cl6       1.0  0.74357  0.83846  0.42895  1.0000
  Cl  Cl7       1.0  0.18547  0.59102  0.42904  1.0000
  Cl  Cl8       1.0  0.66155  0.75645  0.07105  1.0000
