data_image0
_chemical_formula_structural       Ag4H40C56N28O20
_chemical_formula_sum              "Ag4 H40 C56 N28 O20"
_cell_length_a       10.2125
_cell_length_b       11.5104
_cell_length_c       15.5149
_cell_angle_alpha    90
_cell_angle_beta     90
_cell_angle_gamma    90

_space_group_name_H-M_alt    "P 1"
_space_group_IT_number       1

loop_
  _space_group_symop_operation_xyz
  'x, y, z'

loop_
  _atom_site_type_symbol
  _atom_site_label
  _atom_site_symmetry_multiplicity
  _atom_site_fract_x
  _atom_site_fract_y
  _atom_site_fract_z
  _atom_site_occupancy
  Ag  Ag1       1.0  0.27351  0.41940  0.07044  1.0000
  Ag  Ag2       1.0  0.72650  0.91941  0.92956  1.0000
  Ag  Ag3       1.0  0.27350  0.91941  0.42956  1.0000
  Ag  Ag4       1.0  0.72649  0.41940  0.57044  1.0000
  H   H1        1.0  0.97421  0.71187  0.33882  1.0000
  H   H2        1.0  0.02580  0.21187  0.66118  1.0000
  H   H3        1.0  0.97420  0.21187  0.16118  1.0000
  H   H4        1.0  0.02580  0.71186  0.83882  1.0000
  H   H5        1.0  0.95154  0.75782  0.18147  1.0000
  H   H6        1.0  0.04847  0.25782  0.81852  1.0000
  H   H7        1.0  0.95154  0.25782  0.31853  1.0000
  H   H8        1.0  0.04846  0.75782  0.68148  1.0000
  H   H9        1.0  0.08459  0.64323  0.07565  1.0000
  H   H10       1.0  0.91541  0.14323  0.92435  1.0000
  H   H11       1.0  0.08459  0.14323  0.42435  1.0000
  H   H12       1.0  0.91541  0.64323  0.57565  1.0000
  H   H13       1.0  0.43798  0.29891  0.44755  1.0000
  H   H14       1.0  0.56202  0.79892  0.55244  1.0000
  H   H15       1.0  0.43798  0.79892  0.05245  1.0000
  H   H16       1.0  0.56202  0.29891  0.94755  1.0000
  H   H17       1.0  0.52912  0.18135  0.32768  1.0000
  H   H18       1.0  0.47088  0.68135  0.67232  1.0000
  H   H19       1.0  0.52912  0.68135  0.17232  1.0000
  H   H20       1.0  0.47088  0.18134  0.82768  1.0000
  H   H21       1.0  0.45347  0.22264  0.17606  1.0000
  H   H22       1.0  0.54653  0.72264  0.82394  1.0000
  H   H23       1.0  0.45347  0.72264  0.32394  1.0000
  H   H24       1.0  0.54653  0.22264  0.67606  1.0000
  H   H25       1.0  0.93107  0.50428  0.44544  1.0000
  H   H26       1.0  0.06893  0.00428  0.55455  1.0000
  H   H27       1.0  0.93107  0.00428  0.05456  1.0000
  H   H28       1.0  0.06893  0.50427  0.94545  1.0000
  H   H29       1.0  0.25628  0.34109  0.53941  1.0000
  H   H30       1.0  0.74371  0.84109  0.46059  1.0000
  H   H31       1.0  0.25628  0.84109  0.96059  1.0000
  H   H32       1.0  0.74371  0.34109  0.03941  1.0000
  H   H33       1.0  0.09002  0.72094  0.45627  1.0000
  H   H34       1.0  0.90998  0.22094  0.54373  1.0000
  H   H35       1.0  0.09002  0.22094  0.04373  1.0000
  H   H36       1.0  0.90999  0.72093  0.95627  1.0000
  H   H37       1.0  0.44377  0.55592  0.46534  1.0000
  H   H38       1.0  0.55623  0.05593  0.53466  1.0000
  H   H39       1.0  0.44377  0.05592  0.03466  1.0000
  H   H40       1.0  0.55623  0.55592  0.96534  1.0000
  C   C1        1.0  0.06881  0.40000  0.50654  1.0000
  C   C2        1.0  0.93119  0.90000  0.49346  1.0000
  C   C3        1.0  0.06880  0.90000  0.99346  1.0000
  C   C4        1.0  0.93119  0.39999  0.00654  1.0000
  C   C5        1.0  0.27769  0.66299  0.48345  1.0000
  C   C6        1.0  0.72231  0.16299  0.51654  1.0000
  C   C7        1.0  0.27770  0.16299  0.01655  1.0000
  C   C8        1.0  0.72231  0.66299  0.98345  1.0000
  C   C9        1.0  0.12875  0.54413  0.41055  1.0000
  C   C10       1.0  0.87125  0.04413  0.58944  1.0000
  C   C11       1.0  0.12875  0.04413  0.08945  1.0000
  C   C12       1.0  0.87125  0.54413  0.91055  1.0000
  C   C13       1.0  0.25476  0.47274  0.43540  1.0000
  C   C14       1.0  0.74524  0.97275  0.56460  1.0000
  C   C15       1.0  0.25476  0.97274  0.06460  1.0000
  C   C16       1.0  0.74524  0.47274  0.93540  1.0000
  C   C17       1.0  0.11444  0.57400  0.31602  1.0000
  C   C18       1.0  0.88556  0.07400  0.68398  1.0000
  C   C19       1.0  0.11444  0.07400  0.18398  1.0000
  C   C20       1.0  0.88556  0.57400  0.81602  1.0000
  C   C21       1.0  0.02903  0.66274  0.29079  1.0000
  C   C22       1.0  0.97098  0.16273  0.70921  1.0000
  C   C23       1.0  0.02902  0.16274  0.20921  1.0000
  C   C24       1.0  0.97098  0.66273  0.79079  1.0000
  C   C25       1.0  0.01642  0.68886  0.20367  1.0000
  C   C26       1.0  0.98358  0.18887  0.79633  1.0000
  C   C27       1.0  0.01642  0.18887  0.29633  1.0000
  C   C28       1.0  0.98358  0.68886  0.70367  1.0000
  C   C29       1.0  0.09017  0.62548  0.14451  1.0000
  C   C30       1.0  0.90983  0.12549  0.85548  1.0000
  C   C31       1.0  0.09017  0.12549  0.35549  1.0000
  C   C32       1.0  0.90982  0.62549  0.64452  1.0000
  C   C33       1.0  0.18529  0.51408  0.25255  1.0000
  C   C34       1.0  0.81471  0.01408  0.74745  1.0000
  C   C35       1.0  0.18529  0.01408  0.24745  1.0000
  C   C36       1.0  0.81471  0.51407  0.75255  1.0000
  C   C37       1.0  0.27830  0.42037  0.27659  1.0000
  C   C38       1.0  0.72169  0.92038  0.72341  1.0000
  C   C39       1.0  0.27830  0.92038  0.22341  1.0000
  C   C40       1.0  0.72170  0.42037  0.77659  1.0000
  C   C41       1.0  0.31308  0.40106  0.36314  1.0000
  C   C42       1.0  0.68691  0.90107  0.63686  1.0000
  C   C43       1.0  0.31309  0.90107  0.13686  1.0000
  C   C44       1.0  0.68692  0.40106  0.86314  1.0000
  C   C45       1.0  0.40516  0.31483  0.38168  1.0000
  C   C46       1.0  0.59484  0.81484  0.61831  1.0000
  C   C47       1.0  0.40516  0.81483  0.11832  1.0000
  C   C48       1.0  0.59484  0.31483  0.88168  1.0000
  C   C49       1.0  0.45688  0.24874  0.31475  1.0000
  C   C50       1.0  0.54312  0.74875  0.68525  1.0000
  C   C51       1.0  0.45688  0.74875  0.18525  1.0000
  C   C52       1.0  0.54312  0.24874  0.81475  1.0000
  C   C53       1.0  0.41519  0.27146  0.23085  1.0000
  C   C54       1.0  0.58481  0.77147  0.76915  1.0000
  C   C55       1.0  0.41519  0.77146  0.26915  1.0000
  C   C56       1.0  0.58481  0.27146  0.73085  1.0000
  N   N1        1.0  0.02358  0.46979  0.44075  1.0000
  N   N2        1.0  0.97641  0.96978  0.55924  1.0000
  N   N3        1.0  0.02358  0.96979  0.05925  1.0000
  N   N4        1.0  0.97641  0.46978  0.94076  1.0000
  N   N5        1.0  0.20198  0.40018  0.50502  1.0000
  N   N6        1.0  0.79801  0.90018  0.49499  1.0000
  N   N7        1.0  0.20198  0.90018  0.99499  1.0000
  N   N8        1.0  0.79801  0.40018  0.00502  1.0000
  N   N9        1.0  0.14799  0.64798  0.46327  1.0000
  N   N10       1.0  0.85202  0.14798  0.53673  1.0000
  N   N11       1.0  0.14799  0.14798  0.03673  1.0000
  N   N12       1.0  0.85202  0.64797  0.96327  1.0000
  N   N13       1.0  0.34294  0.56206  0.46573  1.0000
  N   N14       1.0  0.65706  0.06206  0.53426  1.0000
  N   N15       1.0  0.34294  0.06206  0.03426  1.0000
  N   N16       1.0  0.65706  0.56206  0.96574  1.0000
  N   N17       1.0  0.17247  0.54064  0.16822  1.0000
  N   N18       1.0  0.82754  0.04064  0.83178  1.0000
  N   N19       1.0  0.17246  0.04064  0.33178  1.0000
  N   N20       1.0  0.82753  0.54064  0.66822  1.0000
  N   N21       1.0  0.32915  0.35575  0.21236  1.0000
  N   N22       1.0  0.67085  0.85576  0.78764  1.0000
  N   N23       1.0  0.32915  0.85575  0.28765  1.0000
  N   N24       1.0  0.67085  0.35575  0.71236  1.0000
  N   N25       1.0  0.31560  0.62755  0.94021  1.0000
  N   N26       1.0  0.68441  0.12755  0.05979  1.0000
  N   N27       1.0  0.31559  0.12755  0.55979  1.0000
  N   N28       1.0  0.68441  0.62755  0.44021  1.0000
  O   O1        1.0  0.32750  0.75365  0.51325  1.0000
  O   O2        1.0  0.67250  0.25366  0.48674  1.0000
  O   O3        1.0  0.32750  0.25365  0.98674  1.0000
  O   O4        1.0  0.67250  0.75366  0.01325  1.0000
  O   O5        1.0  0.99772  0.34636  0.55832  1.0000
  O   O6        1.0  0.00227  0.84634  0.44169  1.0000
  O   O7        1.0  0.99772  0.84635  0.94169  1.0000
  O   O8        1.0  0.00227  0.34634  0.05831  1.0000
  O   O9        1.0  0.38208  0.53672  0.95946  1.0000
  O   O10       1.0  0.61793  0.03673  0.04054  1.0000
  O   O11       1.0  0.38207  0.03673  0.54054  1.0000
  O   O12       1.0  0.61793  0.53672  0.45946  1.0000
  O   O13       1.0  0.19212  0.62506  0.94472  1.0000
  O   O14       1.0  0.80788  0.12506  0.05528  1.0000
  O   O15       1.0  0.19212  0.12506  0.55528  1.0000
  O   O16       1.0  0.80788  0.62506  0.44472  1.0000
  O   O17       1.0  0.37394  0.71947  0.91793  1.0000
  O   O18       1.0  0.62606  0.21947  0.08207  1.0000
  O   O19       1.0  0.37394  0.21947  0.58207  1.0000
  O   O20       1.0  0.62606  0.71947  0.41794  1.0000
