data_image0
_chemical_formula_structural       Cu2H16C8N4O12
_chemical_formula_sum              "Cu2 H16 C8 N4 O12"
_cell_length_a       7.87751
_cell_length_b       7.82941
_cell_length_c       7.97376
_cell_angle_alpha    89.9988
_cell_angle_beta     114.577
_cell_angle_gamma    89.9997

_space_group_name_H-M_alt    "P 1"
_space_group_IT_number       1

loop_
  _space_group_symop_operation_xyz
  'x, y, z'

loop_
  _atom_site_type_symbol
  _atom_site_label
  _atom_site_symmetry_multiplicity
  _atom_site_fract_x
  _atom_site_fract_y
  _atom_site_fract_z
  _atom_site_occupancy
  Cu  Cu1       1.0  0.50000  0.00000  0.50000  1.0000
  Cu  Cu2       1.0  0.50000  0.50000  0.00000  1.0000
  H   H1        1.0  0.84040  0.03217  0.36232  1.0000
  H   H2        1.0  0.15962  0.53216  0.13768  1.0000
  H   H3        1.0  0.15960  0.96783  0.63768  1.0000
  H   H4        1.0  0.84038  0.46784  0.86233  1.0000
  H   H5        1.0  0.76387  0.13476  0.14234  1.0000
  H   H6        1.0  0.23615  0.63478  0.35767  1.0000
  H   H7        1.0  0.23613  0.86524  0.85766  1.0000
  H   H8        1.0  0.76383  0.36522  0.64232  1.0000
  H   H9        1.0  0.06718  0.18459  0.17957  1.0000
  H   H10       1.0  0.93280  0.68460  0.32044  1.0000
  H   H11       1.0  0.93283  0.81541  0.82044  1.0000
  H   H12       1.0  0.06718  0.31540  0.67954  1.0000
  H   H13       1.0  0.40423  0.22678  0.17945  1.0000
  H   H14       1.0  0.59579  0.72678  0.32056  1.0000
  H   H15       1.0  0.59578  0.77322  0.82055  1.0000
  H   H16       1.0  0.40422  0.27322  0.67944  1.0000
  C   C1        1.0  0.04629  0.12117  0.29357  1.0000
  C   C2        1.0  0.95369  0.62117  0.20642  1.0000
  C   C3        1.0  0.95371  0.87884  0.70643  1.0000
  C   C4        1.0  0.04630  0.37883  0.79357  1.0000
  C   C5        1.0  0.51196  0.29725  0.29382  1.0000
  C   C6        1.0  0.48803  0.79723  0.20618  1.0000
  C   C7        1.0  0.48804  0.70275  0.70618  1.0000
  C   C8        1.0  0.51198  0.20277  0.79382  1.0000
  N   N1        1.0  0.86957  0.08927  0.26046  1.0000
  N   N2        1.0  0.13044  0.58927  0.23955  1.0000
  N   N3        1.0  0.13044  0.91074  0.73954  1.0000
  N   N4        1.0  0.86954  0.41074  0.76044  1.0000
  O   O1        1.0  0.57248  0.23535  0.45607  1.0000
  O   O2        1.0  0.42749  0.73533  0.04393  1.0000
  O   O3        1.0  0.42752  0.76465  0.54393  1.0000
  O   O4        1.0  0.57252  0.26466  0.95607  1.0000
  O   O5        1.0  0.18323  0.08386  0.44113  1.0000
  O   O6        1.0  0.81677  0.58383  0.05888  1.0000
  O   O7        1.0  0.81678  0.91614  0.55888  1.0000
  O   O8        1.0  0.18323  0.41616  0.94111  1.0000
  O   O9        1.0  0.57383  0.43682  0.26064  1.0000
  O   O10       1.0  0.42617  0.93681  0.23934  1.0000
  O   O11       1.0  0.42617  0.56319  0.73936  1.0000
  O   O12       1.0  0.57383  0.06318  0.76066  1.0000
