data_image0
_chemical_formula_structural       Zn3TeMo6H60C32N8O40
_chemical_formula_sum              "Zn3 Te1 Mo6 H60 C32 N8 O40"
_cell_length_a       9.5557
_cell_length_b       13.6585
_cell_length_c       13.925
_cell_angle_alpha    115.98
_cell_angle_beta     95.5216
_cell_angle_gamma    97.1441

_space_group_name_H-M_alt    "P 1"
_space_group_IT_number       1

loop_
  _space_group_symop_operation_xyz
  'x, y, z'

loop_
  _atom_site_type_symbol
  _atom_site_label
  _atom_site_symmetry_multiplicity
  _atom_site_fract_x
  _atom_site_fract_y
  _atom_site_fract_z
  _atom_site_occupancy
  Zn  Zn1       1.0  0.36281  0.26018  0.41669  1.0000
  Zn  Zn2       1.0  0.63993  0.73701  0.58773  1.0000
  Zn  Zn3       1.0  0.49914  0.50069  0.99755  1.0000
  Te  Te1       1.0  0.00131  0.49836  0.49878  1.0000
  Mo  Mo1       1.0  0.76545  0.27832  0.43843  1.0000
  Mo  Mo2       1.0  0.23457  0.72069  0.56145  1.0000
  Mo  Mo3       1.0  0.99526  0.38293  0.66848  1.0000
  Mo  Mo4       1.0  0.00602  0.61617  0.33179  1.0000
  Mo  Mo5       1.0  0.22563  0.61553  0.73798  1.0000
  Mo  Mo6       1.0  0.76927  0.38712  0.26623  1.0000
  H   H1        1.0  0.08313  0.27175  0.40449  1.0000
  H   H2        1.0  0.92047  0.72826  0.59755  1.0000
  H   H3        1.0  0.14048  0.23491  0.29208  1.0000
  H   H4        1.0  0.86393  0.76450  0.70961  1.0000
  H   H5        1.0  0.16031  0.09879  0.45962  1.0000
  H   H6        1.0  0.83985  0.89801  0.54087  1.0000
  H   H7        1.0  0.30950  0.47377  0.47269  1.0000
  H   H8        1.0  0.69944  0.53568  0.53850  1.0000
  H   H9        1.0  0.41073  0.44137  0.37924  1.0000
  H   H10       1.0  0.53609  0.52971  0.54194  1.0000
  H   H11       1.0  0.13653  0.90392  0.43937  1.0000
  H   H12       1.0  0.86257  0.09180  0.55844  1.0000
  H   H13       1.0  0.44768  0.26701  0.24109  1.0000
  H   H14       1.0  0.55993  0.73184  0.76077  1.0000
  H   H15       1.0  0.37722  0.14034  0.20301  1.0000
  H   H16       1.0  0.61960  0.86107  0.80073  1.0000
  H   H17       1.0  0.18535  0.77785  0.99919  1.0000
  H   H18       1.0  0.81485  0.22517  0.00110  1.0000
  H   H19       1.0  0.32992  0.79730  0.37121  1.0000
  H   H20       1.0  0.66963  0.19899  0.62689  1.0000
  H   H21       1.0  0.30116  0.37709  0.62216  1.0000
  H   H22       1.0  0.69687  0.62277  0.38056  1.0000
  H   H23       1.0  0.38902  0.28484  0.62151  1.0000
  H   H24       1.0  0.60639  0.71296  0.38066  1.0000
  H   H25       1.0  0.71308  0.00472  0.33756  1.0000
  H   H26       1.0  0.28731  0.99369  0.66268  1.0000
  H   H27       1.0  0.43925  0.52405  0.19334  1.0000
  H   H28       1.0  0.57254  0.47503  0.80186  1.0000
  H   H29       1.0  0.46031  0.64334  0.20222  1.0000
  H   H30       1.0  0.54141  0.35679  0.79571  1.0000
  H   H31       1.0  0.54031  0.07838  0.34012  1.0000
  H   H32       1.0  0.46194  0.92048  0.66324  1.0000
  H   H33       1.0  0.26746  0.45385  0.82811  1.0000
  H   H34       1.0  0.73164  0.54865  0.17063  1.0000
  H   H35       1.0  0.18937  0.47093  0.92481  1.0000
  H   H36       1.0  0.81212  0.53054  0.07531  1.0000
  H   H37       1.0  0.75906  0.77830  0.19694  1.0000
  H   H38       1.0  0.24188  0.22080  0.80263  1.0000
  H   H39       1.0  0.86958  0.85000  0.32370  1.0000
  H   H40       1.0  0.13131  0.14813  0.67601  1.0000
  H   H41       1.0  0.96002  0.00529  0.28397  1.0000
  H   H42       1.0  0.04058  0.99417  0.71769  1.0000
  H   H43       1.0  0.83610  0.94736  0.16306  1.0000
  H   H44       1.0  0.16410  0.05346  0.83891  1.0000
  H   H45       1.0  0.07907  0.83926  0.21208  1.0000
  H   H46       1.0  0.92138  0.16029  0.78707  1.0000
  H   H47       1.0  0.95182  0.77603  0.09243  1.0000
  H   H48       1.0  0.04828  0.22489  0.90684  1.0000
  H   H49       1.0  0.03378  0.92588  0.04376  1.0000
  H   H50       1.0  0.96586  0.07666  0.95785  1.0000
  H   H51       1.0  0.15203  0.00069  0.16930  1.0000
  H   H52       1.0  0.84703  0.00112  0.83273  1.0000
  H   H53       1.0  0.60032  0.94962  0.02237  1.0000
  H   H54       1.0  0.40090  0.05533  0.98212  1.0000
  H   H55       1.0  0.77704  0.82196  0.95627  1.0000
  H   H56       1.0  0.22330  0.18274  0.04553  1.0000
  H   H57       1.0  0.72648  0.63536  0.95036  1.0000
  H   H58       1.0  0.27282  0.36773  0.04757  1.0000
  H   H59       1.0  0.33858  0.68883  0.05483  1.0000
  H   H60       1.0  0.66071  0.31291  0.94369  1.0000
  C   C1        1.0  0.24058  0.04787  0.42856  1.0000
  C   C2        1.0  0.75963  0.94900  0.57182  1.0000
  C   C3        1.0  0.22833  0.94091  0.41802  1.0000
  C   C4        1.0  0.77138  0.05545  0.58093  1.0000
  C   C5        1.0  0.33602  0.88107  0.37970  1.0000
  C   C6        1.0  0.66396  0.11558  0.61932  1.0000
  C   C7        1.0  0.45318  0.93002  0.35254  1.0000
  C   C8        1.0  0.54759  0.06746  0.64796  1.0000
  C   C9        1.0  0.45515  0.03699  0.36320  1.0000
  C   C10       1.0  0.54634  0.96103  0.63878  1.0000
  C   C11       1.0  0.56952  0.86659  0.31278  1.0000
  C   C12       1.0  0.43158  0.13142  0.68766  1.0000
  C   C13       1.0  0.80658  0.86211  0.26061  1.0000
  C   C14       1.0  0.19425  0.13670  0.73960  1.0000
  C   C15       1.0  0.90259  0.92578  0.21736  1.0000
  C   C16       1.0  0.09787  0.07413  0.78372  1.0000
  C   C17       1.0  0.00907  0.85727  0.15675  1.0000
  C   C18       1.0  0.99109  0.14323  0.84329  1.0000
  C   C19       1.0  0.10119  0.91694  0.10738  1.0000
  C   C20       1.0  0.89857  0.08506  0.89380  1.0000
  C   C21       1.0  0.35220  0.90523  0.08355  1.0000
  C   C22       1.0  0.64786  0.09793  0.91864  1.0000
  C   C23       1.0  0.45531  0.82846  0.04176  1.0000
  C   C24       1.0  0.54488  0.17492  0.95983  1.0000
  C   C25       1.0  0.58163  0.86650  0.01584  1.0000
  C   C26       1.0  0.41911  0.13778  0.98697  1.0000
  C   C27       1.0  0.67991  0.79664  0.98071  1.0000
  C   C28       1.0  0.32045  0.20758  0.02074  1.0000
  C   C29       1.0  0.65170  0.69232  0.97595  1.0000
  C   C30       1.0  0.34797  0.31092  0.02320  1.0000
  C   C31       1.0  0.43411  0.72195  0.03389  1.0000
  C   C32       1.0  0.56553  0.28054  0.96557  1.0000
  N   N1        1.0  0.35208  0.09484  0.40094  1.0000
  N   N2        1.0  0.64908  0.90276  0.60092  1.0000
  N   N3        1.0  0.53117  0.65596  0.00286  1.0000
  N   N4        1.0  0.46836  0.34652  0.99551  1.0000
  N   N5        1.0  0.21371  0.85756  0.06179  1.0000
  N   N6        1.0  0.78645  0.14533  0.93913  1.0000
  N   N7        1.0  0.69032  0.91907  0.30314  1.0000
  N   N8        1.0  0.31052  0.07940  0.69757  1.0000
  O   O1        1.0  0.58090  0.27186  0.42455  1.0000
  O   O2        1.0  0.41869  0.72549  0.57686  1.0000
  O   O3        1.0  0.14383  0.22096  0.35503  1.0000
  O   O4        1.0  0.86200  0.77990  0.64751  1.0000
  O   O5        1.0  0.79442  0.45520  0.45794  1.0000
  O   O6        1.0  0.20832  0.54246  0.54055  1.0000
  O   O7        1.0  0.38866  0.43064  0.44128  1.0000
  O   O8        1.0  0.62933  0.57969  0.57968  1.0000
  O   O9        1.0  0.79462  0.26789  0.29738  1.0000
  O   O10       1.0  0.20022  0.73113  0.70105  1.0000
  O   O11       1.0  0.36418  0.21809  0.24448  1.0000
  O   O12       1.0  0.63904  0.78544  0.75953  1.0000
  O   O13       1.0  0.20055  0.45627  0.70036  1.0000
  O   O14       1.0  0.80052  0.54585  0.30358  1.0000
  O   O15       1.0  0.36898  0.32891  0.58309  1.0000
  O   O16       1.0  0.62518  0.66763  0.41790  1.0000
  O   O17       1.0  0.99923  0.34886  0.48166  1.0000
  O   O18       1.0  0.00263  0.64813  0.51637  1.0000
  O   O19       1.0  0.42025  0.56355  0.15114  1.0000
  O   O20       1.0  0.58146  0.43655  0.84628  1.0000
  O   O21       1.0  0.79075  0.14504  0.40746  1.0000
  O   O22       1.0  0.21129  0.85403  0.59094  1.0000
  O   O23       1.0  0.28013  0.45527  0.90047  1.0000
  O   O24       1.0  0.72074  0.54660  0.09826  1.0000
  O   O25       1.0  0.80139  0.34675  0.59360  1.0000
  O   O26       1.0  0.20062  0.65108  0.40551  1.0000
  O   O27       1.0  0.17668  0.66585  0.86506  1.0000
  O   O28       1.0  0.81161  0.33624  0.13717  1.0000
  O   O29       1.0  0.99875  0.53948  0.65224  1.0000
  O   O30       1.0  0.00184  0.45740  0.34503  1.0000
  O   O31       1.0  0.03392  0.25142  0.62240  1.0000
  O   O32       1.0  0.96934  0.74827  0.37764  1.0000
  O   O33       1.0  0.41123  0.63530  0.75901  1.0000
  O   O34       1.0  0.58277  0.37348  0.25188  1.0000
  O   O35       1.0  0.40059  0.00716  0.13732  1.0000
  O   O36       1.0  0.59917  0.99608  0.86625  1.0000
  O   O37       1.0  0.55166  0.76447  0.28904  1.0000
  O   O38       1.0  0.44998  0.23346  0.71098  1.0000
  O   O39       1.0  0.96859  0.42418  0.80004  1.0000
  O   O40       1.0  0.03031  0.57313  0.19942  1.0000
