data_image0
_chemical_formula_structural       Tb2H6C24N6O24
_chemical_formula_sum              "Tb2 H6 C24 N6 O24"
_cell_length_a       9.48197
_cell_length_b       9.48192
_cell_length_c       9.48195
_cell_angle_alpha    92.0425
_cell_angle_beta     92.04
_cell_angle_gamma    92.042

_space_group_name_H-M_alt    "P 1"
_space_group_IT_number       1

loop_
  _space_group_symop_operation_xyz
  'x, y, z'

loop_
  _atom_site_type_symbol
  _atom_site_label
  _atom_site_symmetry_multiplicity
  _atom_site_fract_x
  _atom_site_fract_y
  _atom_site_fract_z
  _atom_site_occupancy
  Tb  Tb1       1.0  0.31772  0.31771  0.31772  1.0000
  Tb  Tb2       1.0  0.68228  0.68229  0.68228  1.0000
  H   H1        1.0  0.48475  0.16916  0.84226  1.0000
  H   H2        1.0  0.84226  0.48475  0.16914  1.0000
  H   H3        1.0  0.16916  0.84226  0.48475  1.0000
  H   H4        1.0  0.51526  0.83085  0.15774  1.0000
  H   H5        1.0  0.15774  0.51524  0.83086  1.0000
  H   H6        1.0  0.83084  0.15774  0.51524  1.0000
  C   C1        1.0  0.45236  0.11078  0.57825  1.0000
  C   C2        1.0  0.57825  0.45236  0.11079  1.0000
  C   C3        1.0  0.11078  0.57825  0.45235  1.0000
  C   C4        1.0  0.54764  0.88922  0.42175  1.0000
  C   C5        1.0  0.42175  0.54764  0.88922  1.0000
  C   C6        1.0  0.88920  0.42175  0.54762  1.0000
  C   C7        1.0  0.52816  0.00296  0.64261  1.0000
  C   C8        1.0  0.64261  0.52816  0.00295  1.0000
  C   C9        1.0  0.00295  0.64262  0.52815  1.0000
  C   C10       1.0  0.47184  0.99705  0.35739  1.0000
  C   C11       1.0  0.35740  0.47183  0.99706  1.0000
  C   C12       1.0  0.99704  0.35740  0.47182  1.0000
  C   C13       1.0  0.39383  0.24276  0.64785  1.0000
  C   C14       1.0  0.64785  0.39384  0.24276  1.0000
  C   C15       1.0  0.24277  0.64784  0.39384  1.0000
  C   C16       1.0  0.60617  0.75724  0.35216  1.0000
  C   C17       1.0  0.35215  0.60615  0.75724  1.0000
  C   C18       1.0  0.75723  0.35216  0.60615  1.0000
  C   C19       1.0  0.57560  0.99003  0.79737  1.0000
  C   C20       1.0  0.79737  0.57560  0.99002  1.0000
  C   C21       1.0  0.99002  0.79738  0.57560  1.0000
  C   C22       1.0  0.42441  0.00997  0.20263  1.0000
  C   C23       1.0  0.20263  0.42440  0.01000  1.0000
  C   C24       1.0  0.00997  0.20263  0.42439  1.0000
  N   N1        1.0  0.42734  0.10327  0.43859  1.0000
  N   N2        1.0  0.43859  0.42734  0.10328  1.0000
  N   N3        1.0  0.10327  0.43859  0.42734  1.0000
  N   N4        1.0  0.57266  0.89672  0.56142  1.0000
  N   N5        1.0  0.56141  0.57266  0.89673  1.0000
  N   N6        1.0  0.89671  0.56142  0.57264  1.0000
  O   O1        1.0  0.34014  0.32956  0.56597  1.0000
  O   O2        1.0  0.56596  0.34015  0.32957  1.0000
  O   O3        1.0  0.32958  0.56595  0.34016  1.0000
  O   O4        1.0  0.65986  0.67044  0.43404  1.0000
  O   O5        1.0  0.43404  0.65984  0.67044  1.0000
  O   O6        1.0  0.67042  0.43405  0.65984  1.0000
  O   O7        1.0  0.39973  0.25824  0.78144  1.0000
  O   O8        1.0  0.78144  0.39974  0.25824  1.0000
  O   O9        1.0  0.25826  0.78143  0.39974  1.0000
  O   O10       1.0  0.60028  0.74176  0.21857  1.0000
  O   O11       1.0  0.21857  0.60025  0.74176  1.0000
  O   O12       1.0  0.74175  0.21857  0.60026  1.0000
  O   O13       1.0  0.63630  0.88051  0.82993  1.0000
  O   O14       1.0  0.82993  0.63630  0.88049  1.0000
  O   O15       1.0  0.88050  0.82994  0.63631  1.0000
  O   O16       1.0  0.36369  0.11949  0.17007  1.0000
  O   O17       1.0  0.17007  0.36370  0.11952  1.0000
  O   O18       1.0  0.11950  0.17006  0.36369  1.0000
  O   O19       1.0  0.55504  0.09113  0.88765  1.0000
  O   O20       1.0  0.88766  0.55504  0.09111  1.0000
  O   O21       1.0  0.09112  0.88766  0.55503  1.0000
  O   O22       1.0  0.44497  0.90887  0.11235  1.0000
  O   O23       1.0  0.11235  0.44496  0.90890  1.0000
  O   O24       1.0  0.90887  0.11234  0.44495  1.0000
