data_image0
_chemical_formula_structural       Tb2H22C34O22
_chemical_formula_sum              "Tb2 H22 C34 O22"
_cell_length_a       7.2916
_cell_length_b       9.17153
_cell_length_c       12.7233
_cell_angle_alpha    75.1722
_cell_angle_beta     85.2173
_cell_angle_gamma    89.6331

_space_group_name_H-M_alt    "P 1"
_space_group_IT_number       1

loop_
  _space_group_symop_operation_xyz
  'x, y, z'

loop_
  _atom_site_type_symbol
  _atom_site_label
  _atom_site_symmetry_multiplicity
  _atom_site_fract_x
  _atom_site_fract_y
  _atom_site_fract_z
  _atom_site_occupancy
  Tb  Tb1       1.0  0.74835  0.94730  0.95975  1.0000
  Tb  Tb2       1.0  0.25165  0.05271  0.04024  1.0000
  H   H1        1.0  0.36191  0.70408  0.84141  1.0000
  H   H2        1.0  0.63811  0.29593  0.15859  1.0000
  H   H3        1.0  0.09123  0.04079  0.80927  1.0000
  H   H4        1.0  0.90877  0.95921  0.19073  1.0000
  H   H5        1.0  0.93161  0.01335  0.73534  1.0000
  H   H6        1.0  0.06839  0.98664  0.26466  1.0000
  H   H7        1.0  0.74496  0.64491  0.91048  1.0000
  H   H8        1.0  0.25501  0.35511  0.08951  1.0000
  H   H9        1.0  0.89698  0.73875  0.82321  1.0000
  H   H10       1.0  0.10302  0.26126  0.17679  1.0000
  H   H11       1.0  0.55427  0.55965  0.19999  1.0000
  H   H12       1.0  0.44574  0.44035  0.80001  1.0000
  H   H13       1.0  0.07696  0.41107  0.42677  1.0000
  H   H14       1.0  0.92303  0.58893  0.57322  1.0000
  H   H15       1.0  0.87560  0.55676  0.29090  1.0000
  H   H16       1.0  0.12440  0.44324  0.70909  1.0000
  H   H17       1.0  0.52812  0.29829  0.61108  1.0000
  H   H18       1.0  0.47187  0.70171  0.38892  1.0000
  H   H19       1.0  0.15599  0.92091  0.49755  1.0000
  H   H20       1.0  0.84401  0.07908  0.50246  1.0000
  H   H21       1.0  0.23856  0.16996  0.36627  1.0000
  H   H22       1.0  0.76143  0.83003  0.63373  1.0000
  C   C1        1.0  0.09988  0.63644  0.16799  1.0000
  C   C2        1.0  0.90012  0.36356  0.83201  1.0000
  C   C3        1.0  0.29162  0.63615  0.14231  1.0000
  C   C4        1.0  0.70839  0.36385  0.85769  1.0000
  C   C5        1.0  0.40577  0.55875  0.21969  1.0000
  C   C6        1.0  0.59423  0.44125  0.78031  1.0000
  C   C7        1.0  0.32865  0.47567  0.32208  1.0000
  C   C8        1.0  0.67134  0.52432  0.67792  1.0000
  C   C9        1.0  0.13742  0.47458  0.34713  1.0000
  C   C10       1.0  0.86258  0.52541  0.65287  1.0000
  C   C11       1.0  0.02377  0.55589  0.27088  1.0000
  C   C12       1.0  0.97622  0.44411  0.72912  1.0000
  C   C13       1.0  0.97923  0.72980  0.08899  1.0000
  C   C14       1.0  0.02078  0.27020  0.91100  1.0000
  C   C15       1.0  0.37279  0.70660  0.02828  1.0000
  C   C16       1.0  0.62723  0.29340  0.97172  1.0000
  C   C17       1.0  0.45456  0.39249  0.40253  1.0000
  C   C18       1.0  0.54543  0.60750  0.59747  1.0000
  C   C19       1.0  0.38718  0.24939  0.48135  1.0000
  C   C20       1.0  0.61281  0.75060  0.51865  1.0000
  C   C21       1.0  0.44453  0.21638  0.58716  1.0000
  C   C22       1.0  0.55547  0.78362  0.41284  1.0000
  C   C23       1.0  0.39047  0.08155  0.66182  1.0000
  C   C24       1.0  0.60953  0.91845  0.33818  1.0000
  C   C25       1.0  0.28707  0.97437  0.62865  1.0000
  C   C26       1.0  0.71293  0.02563  0.37136  1.0000
  C   C27       1.0  0.23220  0.00635  0.52261  1.0000
  C   C28       1.0  0.76780  0.99364  0.47739  1.0000
  C   C29       1.0  0.27930  0.14475  0.44940  1.0000
  C   C30       1.0  0.72069  0.85524  0.55060  1.0000
  C   C31       1.0  0.43307  0.05460  0.77888  1.0000
  C   C32       1.0  0.56693  0.94541  0.22112  1.0000
  C   C33       1.0  0.24034  0.82813  0.71050  1.0000
  C   C34       1.0  0.75967  0.17187  0.28951  1.0000
  O   O1        1.0  0.81134  0.69835  0.09008  1.0000
  O   O2        1.0  0.18867  0.30165  0.90991  1.0000
  O   O3        1.0  0.04989  0.85112  0.01969  1.0000
  O   O4        1.0  0.95012  0.14888  0.98030  1.0000
  O   O5        1.0  0.45557  0.83623  0.00917  1.0000
  O   O6        1.0  0.54443  0.16378  0.99083  1.0000
  O   O7        1.0  0.35534  0.63111  0.96000  1.0000
  O   O8        1.0  0.64468  0.36889  0.04000  1.0000
  O   O9        1.0  0.61264  0.43949  0.40432  1.0000
  O   O10       1.0  0.38735  0.56050  0.59568  1.0000
  O   O11       1.0  0.59885  0.04667  0.80002  1.0000
  O   O12       1.0  0.40115  0.95334  0.19998  1.0000
  O   O13       1.0  0.29382  0.04514  0.84916  1.0000
  O   O14       1.0  0.70617  0.95486  0.15084  1.0000
  O   O15       1.0  0.38475  0.77307  0.76219  1.0000
  O   O16       1.0  0.61526  0.22694  0.23782  1.0000
  O   O17       1.0  0.08274  0.77287  0.72724  1.0000
  O   O18       1.0  0.91727  0.22712  0.27277  1.0000
  O   O19       1.0  0.95459  0.04112  0.80180  1.0000
  O   O20       1.0  0.04541  0.95888  0.19819  1.0000
  O   O21       1.0  0.78073  0.74652  0.86776  1.0000
  O   O22       1.0  0.21926  0.25349  0.13223  1.0000
