data_image0
_chemical_formula_structural       KMnH16C12I3O15
_chemical_formula_sum              "K1 Mn1 H16 C12 I3 O15"
_cell_length_a       5.81757
_cell_length_b       9.07017
_cell_length_c       10.9241
_cell_angle_alpha    93.5581
_cell_angle_beta     92.0617
_cell_angle_gamma    96.2778

_space_group_name_H-M_alt    "P 1"
_space_group_IT_number       1

loop_
  _space_group_symop_operation_xyz
  'x, y, z'

loop_
  _atom_site_type_symbol
  _atom_site_label
  _atom_site_symmetry_multiplicity
  _atom_site_fract_x
  _atom_site_fract_y
  _atom_site_fract_z
  _atom_site_occupancy
  K   K1        1.0  0.82559  0.04051  0.42508  1.0000
  Mn  Mn1       1.0  0.43990  0.13958  0.15984  1.0000
  H   H1        1.0  0.88727  0.04492  0.12527  1.0000
  H   H2        1.0  0.91815  0.67455  0.33151  1.0000
  H   H3        1.0  0.22653  0.41347  0.24186  1.0000
  H   H4        1.0  0.09216  0.38437  0.43048  1.0000
  H   H5        1.0  0.95499  0.08020  0.72203  1.0000
  H   H6        1.0  0.65196  0.13848  0.92962  1.0000
  H   H7        1.0  0.28209  0.17558  0.39257  1.0000
  H   H8        1.0  0.31419  0.99920  0.38172  1.0000
  H   H9        1.0  0.73784  0.83584  0.01115  1.0000
  H   H10       1.0  0.96333  0.69211  0.12866  1.0000
  H   H11       1.0  0.63728  0.52498  0.05717  1.0000
  H   H12       1.0  0.53641  0.54813  0.33177  1.0000
  H   H13       1.0  0.25545  0.46975  0.61292  1.0000
  H   H14       1.0  0.97922  0.32932  0.73018  1.0000
  H   H15       1.0  0.31988  0.04308  0.81992  1.0000
  H   H16       1.0  0.33181  0.38257  0.85195  1.0000
  C   C1        1.0  0.44154  0.80148  0.11882  1.0000
  C   C2        1.0  0.69812  0.84368  0.10961  1.0000
  C   C3        1.0  0.80390  0.71782  0.17173  1.0000
  C   C4        1.0  0.61046  0.58736  0.14415  1.0000
  C   C5        1.0  0.56701  0.48218  0.24685  1.0000
  C   C6        1.0  0.77873  0.39881  0.27007  1.0000
  C   C7        1.0  0.49312  0.30655  0.61013  1.0000
  C   C8        1.0  0.24768  0.34821  0.59343  1.0000
  C   C9        1.0  0.12106  0.26962  0.69631  1.0000
  C   C10       1.0  0.31299  0.14625  0.87824  1.0000
  C   C11       1.0  0.31900  0.27683  0.79564  1.0000
  C   C12       1.0  0.08556  0.12649  0.94630  1.0000
  I   I1        1.0  0.69621  0.72731  0.67766  1.0000
  I   I2        1.0  0.05020  0.66233  0.85011  1.0000
  I   I3        1.0  0.32163  0.77751  0.49739  1.0000
  O   O1        1.0  0.29352  0.88776  0.12156  1.0000
  O   O2        1.0  0.39247  0.65528  0.12683  1.0000
  O   O3        1.0  0.74966  0.98915  0.16305  1.0000
  O   O4        1.0  0.84366  0.75812  0.29885  1.0000
  O   O5        1.0  0.37139  0.37658  0.21286  1.0000
  O   O6        1.0  0.96699  0.47512  0.31080  1.0000
  O   O7        1.0  0.75533  0.26014  0.24630  1.0000
  O   O8        1.0  0.63584  0.29715  0.53199  1.0000
  O   O9        1.0  0.53364  0.27607  0.72817  1.0000
  O   O10       1.0  0.15961  0.30446  0.47334  1.0000
  O   O11       1.0  0.04053  0.12147  0.65251  1.0000
  O   O12       1.0  0.50405  0.16778  0.96594  1.0000
  O   O13       1.0  0.09920  0.13770  0.06320  1.0000
  O   O14       1.0  0.89864  0.09815  0.88211  1.0000
  O   O15       1.0  0.30738  0.08893  0.33515  1.0000
