data_image0
_chemical_formula_structural       Tb4H52C40O40
_chemical_formula_sum              "Tb4 H52 C40 O40"
_cell_length_a       6.42888
_cell_length_b       12.1665
_cell_length_c       19.1907
_cell_angle_alpha    72.1256
_cell_angle_beta     80.4106
_cell_angle_gamma    74.695

_space_group_name_H-M_alt    "P 1"
_space_group_IT_number       1

loop_
  _space_group_symop_operation_xyz
  'x, y, z'

loop_
  _atom_site_type_symbol
  _atom_site_label
  _atom_site_symmetry_multiplicity
  _atom_site_fract_x
  _atom_site_fract_y
  _atom_site_fract_z
  _atom_site_occupancy
  Tb  Tb1       1.0  0.37096  0.17545  0.98163  1.0000
  Tb  Tb2       1.0  0.52833  0.32452  0.51849  1.0000
  Tb  Tb3       1.0  0.62904  0.82455  0.01837  1.0000
  Tb  Tb4       1.0  0.47167  0.67548  0.48151  1.0000
  H   H1        1.0  0.59161  0.22044  0.35454  1.0000
  H   H2        1.0  0.16699  0.27946  0.14549  1.0000
  H   H3        1.0  0.40839  0.77955  0.64546  1.0000
  H   H4        1.0  0.83301  0.72055  0.85451  1.0000
  H   H5        1.0  0.26038  0.44281  0.93417  1.0000
  H   H6        1.0  0.63739  0.05719  0.56582  1.0000
  H   H7        1.0  0.73962  0.55719  0.06583  1.0000
  H   H8        1.0  0.36262  0.94281  0.43418  1.0000
  H   H9        1.0  0.48065  0.40763  0.97156  1.0000
  H   H10       1.0  0.85984  0.09232  0.52847  1.0000
  H   H11       1.0  0.51935  0.59237  0.02844  1.0000
  H   H12       1.0  0.14016  0.90768  0.47153  1.0000
  H   H13       1.0  0.81358  0.07920  0.93293  1.0000
  H   H14       1.0  0.82583  0.42087  0.56710  1.0000
  H   H15       1.0  0.18642  0.92080  0.06707  1.0000
  H   H16       1.0  0.17417  0.57913  0.43290  1.0000
  H   H17       1.0  0.83590  0.20875  0.92909  1.0000
  H   H18       1.0  0.97395  0.29132  0.57097  1.0000
  H   H19       1.0  0.16410  0.79124  0.07091  1.0000
  H   H20       1.0  0.02606  0.70868  0.42904  1.0000
  H   H21       1.0  0.77298  0.16340  0.17481  1.0000
  H   H22       1.0  0.11105  0.33665  0.32528  1.0000
  H   H23       1.0  0.22701  0.83660  0.82519  1.0000
  H   H24       1.0  0.88895  0.66335  0.67472  1.0000
  H   H25       1.0  0.91168  0.92120  0.14366  1.0000
  H   H26       1.0  0.97651  0.57879  0.35651  1.0000
  H   H27       1.0  0.08832  0.07880  0.85634  1.0000
  H   H28       1.0  0.02349  0.42121  0.64349  1.0000
  H   H29       1.0  0.51146  0.00183  0.24227  1.0000
  H   H30       1.0  0.75568  0.49817  0.25772  1.0000
  H   H31       1.0  0.48854  0.99817  0.75773  1.0000
  H   H32       1.0  0.24432  0.50184  0.74228  1.0000
  H   H33       1.0  0.59192  0.86710  0.21767  1.0000
  H   H34       1.0  0.67682  0.63292  0.28226  1.0000
  H   H35       1.0  0.40808  0.13290  0.78233  1.0000
  H   H36       1.0  0.32319  0.36708  0.71774  1.0000
  H   H37       1.0  0.93943  0.82023  0.27808  1.0000
  H   H38       1.0  0.03792  0.67969  0.22205  1.0000
  H   H39       1.0  0.06057  0.17977  0.72192  1.0000
  H   H40       1.0  0.96208  0.32031  0.77795  1.0000
  H   H41       1.0  0.97469  0.93883  0.35528  1.0000
  H   H42       1.0  0.26869  0.56100  0.14492  1.0000
  H   H43       1.0  0.02531  0.06117  0.64472  1.0000
  H   H44       1.0  0.73131  0.43901  0.85508  1.0000
  H   H45       1.0  0.06768  0.10845  0.25177  1.0000
  H   H46       1.0  0.42765  0.39145  0.24857  1.0000
  H   H47       1.0  0.93231  0.89155  0.74823  1.0000
  H   H48       1.0  0.57235  0.60855  0.75143  1.0000
  H   H49       1.0  0.16134  0.96694  0.23561  1.0000
  H   H50       1.0  0.36392  0.53297  0.26467  1.0000
  H   H51       1.0  0.83865  0.03306  0.76439  1.0000
  H   H52       1.0  0.63609  0.46703  0.73533  1.0000
  C   C1        1.0  0.89757  0.08307  0.17103  1.0000
  C   C2        1.0  0.15157  0.41697  0.32912  1.0000
  C   C3        1.0  0.10243  0.91694  0.82897  1.0000
  C   C4        1.0  0.84843  0.58303  0.67088  1.0000
  C   C5        1.0  0.78757  0.99337  0.15924  1.0000
  C   C6        1.0  0.94017  0.50661  0.34089  1.0000
  C   C7        1.0  0.21243  0.00663  0.84075  1.0000
  C   C8        1.0  0.05983  0.49339  0.65911  1.0000
  C   C9        1.0  0.65314  0.93590  0.22827  1.0000
  C   C10       1.0  0.81740  0.56408  0.27179  1.0000
  C   C11       1.0  0.34686  0.06410  0.77173  1.0000
  C   C12       1.0  0.18261  0.43592  0.72821  1.0000
  C   C13       1.0  0.79233  0.88309  0.29303  1.0000
  C   C14       1.0  0.96856  0.61683  0.20709  1.0000
  C   C15       1.0  0.20767  0.11691  0.70697  1.0000
  C   C16       1.0  0.03145  0.38317  0.79291  1.0000
  C   C17       1.0  0.87239  0.98024  0.30906  1.0000
  C   C18       1.0  0.16163  0.51967  0.19112  1.0000
  C   C19       1.0  0.12761  0.01976  0.69094  1.0000
  C   C20       1.0  0.83837  0.48033  0.80888  1.0000
  C   C21       1.0  0.01518  0.03616  0.24185  1.0000
  C   C22       1.0  0.29311  0.46379  0.25839  1.0000
  C   C23       1.0  0.98482  0.96384  0.75815  1.0000
  C   C24       1.0  0.70690  0.53621  0.74161  1.0000
  C   C25       1.0  0.05067  0.12201  0.10365  1.0000
  C   C26       1.0  0.27643  0.37792  0.39652  1.0000
  C   C27       1.0  0.94933  0.87799  0.89635  1.0000
  C   C28       1.0  0.72356  0.62208  0.60348  1.0000
  C   C29       1.0  0.64630  0.05298  0.09633  1.0000
  C   C30       1.0  0.79572  0.44693  0.40374  1.0000
  C   C31       1.0  0.35369  0.94702  0.90367  1.0000
  C   C32       1.0  0.20428  0.55307  0.59626  1.0000
  C   C33       1.0  0.67981  0.81030  0.35991  1.0000
  C   C34       1.0  0.85016  0.68962  0.14014  1.0000
  C   C35       1.0  0.32019  0.18969  0.64009  1.0000
  C   C36       1.0  0.14985  0.31038  0.85986  1.0000
  C   C37       1.0  0.68158  0.06593  0.33748  1.0000
  C   C38       1.0  0.08487  0.43390  0.16271  1.0000
  C   C39       1.0  0.31841  0.93406  0.66252  1.0000
  C   C40       1.0  0.91514  0.56610  0.83729  1.0000
  O   O1        1.0  0.13317  0.21058  0.09442  1.0000
  O   O2        1.0  0.43808  0.28924  0.40580  1.0000
  O   O3        1.0  0.86682  0.78942  0.90558  1.0000
  O   O4        1.0  0.56192  0.71076  0.59420  1.0000
  O   O5        1.0  0.10115  0.06582  0.05443  1.0000
  O   O6        1.0  0.22177  0.43410  0.44575  1.0000
  O   O7        1.0  0.89884  0.93419  0.94557  1.0000
  O   O8        1.0  0.77823  0.56590  0.55425  1.0000
  O   O9        1.0  0.58575  0.16457  0.07572  1.0000
  O   O10       1.0  0.82654  0.33533  0.42445  1.0000
  O   O11       1.0  0.41425  0.83543  0.92428  1.0000
  O   O12       1.0  0.17346  0.66467  0.57555  1.0000
  O   O13       1.0  0.58133  0.98897  0.06518  1.0000
  O   O14       1.0  0.63531  0.51090  0.43477  1.0000
  O   O15       1.0  0.41867  0.01103  0.93482  1.0000
  O   O16       1.0  0.36469  0.48910  0.56523  1.0000
  O   O17       1.0  0.51053  0.78039  0.35418  1.0000
  O   O18       1.0  0.64531  0.71955  0.14574  1.0000
  O   O19       1.0  0.48947  0.21961  0.64582  1.0000
  O   O20       1.0  0.35469  0.28045  0.85426  1.0000
  O   O21       1.0  0.76197  0.77436  0.42249  1.0000
  O   O22       1.0  0.95896  0.72542  0.07760  1.0000
  O   O23       1.0  0.23803  0.22564  0.57751  1.0000
  O   O24       1.0  0.04105  0.27458  0.92240  1.0000
  O   O25       1.0  0.51330  0.03611  0.36983  1.0000
  O   O26       1.0  0.91880  0.46352  0.13048  1.0000
  O   O27       1.0  0.48671  0.96389  0.63017  1.0000
  O   O28       1.0  0.08119  0.53648  0.86952  1.0000
  O   O29       1.0  0.71503  0.17288  0.32647  1.0000
  O   O30       1.0  0.21481  0.32711  0.17355  1.0000
  O   O31       1.0  0.28497  0.82712  0.67353  1.0000
  O   O32       1.0  0.78519  0.67289  0.82645  1.0000
  O   O33       1.0  0.34881  0.38246  0.97239  1.0000
  O   O34       1.0  0.70367  0.11759  0.52770  1.0000
  O   O35       1.0  0.65119  0.61754  0.02761  1.0000
  O   O36       1.0  0.29633  0.88241  0.47230  1.0000
  O   O37       1.0  0.73136  0.16306  0.92604  1.0000
  O   O38       1.0  0.82066  0.33691  0.57419  1.0000
  O   O39       1.0  0.26864  0.83694  0.07396  1.0000
  O   O40       1.0  0.17935  0.66309  0.42581  1.0000
