data_image0
_chemical_formula_structural       Dy4H52C40O40
_chemical_formula_sum              "Dy4 H52 C40 O40"
_cell_length_a       6.34039
_cell_length_b       13.1771
_cell_length_c       17.546
_cell_angle_alpha    71.5193
_cell_angle_beta     82.5405
_cell_angle_gamma    88.7149

_space_group_name_H-M_alt    "P 1"
_space_group_IT_number       1

loop_
  _space_group_symop_operation_xyz
  'x, y, z'

loop_
  _atom_site_type_symbol
  _atom_site_label
  _atom_site_symmetry_multiplicity
  _atom_site_fract_x
  _atom_site_fract_y
  _atom_site_fract_z
  _atom_site_occupancy
  Dy  Dy1       1.0  0.45472  0.39734  0.41199  1.0000
  Dy  Dy2       1.0  0.54528  0.60266  0.58801  1.0000
  Dy  Dy3       1.0  0.53739  0.12047  0.05918  1.0000
  Dy  Dy4       1.0  0.46261  0.87953  0.94082  1.0000
  H   H1        1.0  0.55255  0.01142  0.28671  1.0000
  H   H2        1.0  0.44745  0.98858  0.71329  1.0000
  H   H3        1.0  0.77494  0.47986  0.77552  1.0000
  H   H4        1.0  0.22507  0.52014  0.22448  1.0000
  H   H5        1.0  0.89731  0.32582  0.45179  1.0000
  H   H6        1.0  0.10268  0.67418  0.54820  1.0000
  H   H7        1.0  0.77604  0.37430  0.51820  1.0000
  H   H8        1.0  0.22396  0.62570  0.48179  1.0000
  H   H9        1.0  0.52841  0.38669  0.23917  1.0000
  H   H10       1.0  0.47160  0.61330  0.76083  1.0000
  H   H11       1.0  0.59649  0.27781  0.29941  1.0000
  H   H12       1.0  0.40351  0.72218  0.70059  1.0000
  H   H13       1.0  0.22222  0.11579  0.95401  1.0000
  H   H14       1.0  0.77778  0.88421  0.04599  1.0000
  H   H15       1.0  0.10528  0.17978  0.01139  1.0000
  H   H16       1.0  0.89472  0.82022  0.98861  1.0000
  H   H17       1.0  0.33961  0.17725  0.20228  1.0000
  H   H18       1.0  0.66040  0.82275  0.79772  1.0000
  H   H19       1.0  0.41459  0.29149  0.13710  1.0000
  H   H20       1.0  0.58541  0.70850  0.86290  1.0000
  H   H21       1.0  0.97462  0.62633  0.25135  1.0000
  H   H22       1.0  0.02538  0.37367  0.74865  1.0000
  H   H23       1.0  0.95852  0.73649  0.38138  1.0000
  H   H24       1.0  0.04148  0.26351  0.61862  1.0000
  H   H25       1.0  0.67329  0.75786  0.24899  1.0000
  H   H26       1.0  0.32670  0.24215  0.75101  1.0000
  H   H27       1.0  0.64624  0.82639  0.32200  1.0000
  H   H28       1.0  0.35376  0.17361  0.67800  1.0000
  H   H29       1.0  0.99001  0.92313  0.26148  1.0000
  H   H30       1.0  0.00999  0.07687  0.73852  1.0000
  H   H31       1.0  0.00930  0.80069  0.13816  1.0000
  H   H32       1.0  0.99070  0.19931  0.86184  1.0000
  H   H33       1.0  0.32696  0.71714  0.19650  1.0000
  H   H34       1.0  0.67303  0.28286  0.80350  1.0000
  H   H35       1.0  0.29356  0.78582  0.26962  1.0000
  H   H36       1.0  0.70644  0.21418  0.73038  1.0000
  H   H37       1.0  0.86599  0.14745  0.55278  1.0000
  H   H38       1.0  0.13401  0.85255  0.44722  1.0000
  H   H39       1.0  0.07525  0.05831  0.58712  1.0000
  H   H40       1.0  0.92475  0.94170  0.41288  1.0000
  H   H41       1.0  0.95241  0.13528  0.41479  1.0000
  H   H42       1.0  0.04759  0.86472  0.58521  1.0000
  H   H43       1.0  0.31706  0.99090  0.48203  1.0000
  H   H44       1.0  0.68295  0.00910  0.51797  1.0000
  H   H45       1.0  0.10331  0.32177  0.08658  1.0000
  H   H46       1.0  0.89670  0.67823  0.91342  1.0000
  H   H47       1.0  0.89597  0.40304  0.11127  1.0000
  H   H48       1.0  0.10404  0.59696  0.88873  1.0000
  H   H49       1.0  0.06216  0.39554  0.94129  1.0000
  H   H50       1.0  0.93785  0.60446  0.05871  1.0000
  H   H51       1.0  0.68386  0.51588  0.99818  1.0000
  H   H52       1.0  0.31614  0.48412  0.00182  1.0000
  C   C1        1.0  0.05633  0.66051  0.28952  1.0000
  C   C2        1.0  0.94366  0.33948  0.71048  1.0000
  C   C3        1.0  0.88606  0.70416  0.34004  1.0000
  C   C4        1.0  0.11393  0.29584  0.65996  1.0000
  C   C5        1.0  0.76241  0.79341  0.28444  1.0000
  C   C6        1.0  0.23758  0.20659  0.71556  1.0000
  C   C7        1.0  0.91151  0.88299  0.22610  1.0000
  C   C8        1.0  0.08849  0.11701  0.77390  1.0000
  C   C9        1.0  0.08316  0.83702  0.17691  1.0000
  C   C10       1.0  0.91683  0.16298  0.82309  1.0000
  C   C11       1.0  0.20818  0.75001  0.23328  1.0000
  C   C12       1.0  0.79181  0.24999  0.76672  1.0000
  C   C13       1.0  0.18425  0.57095  0.33890  1.0000
  C   C14       1.0  0.81574  0.42905  0.66110  1.0000
  C   C15       1.0  0.72673  0.61672  0.39060  1.0000
  C   C16       1.0  0.27327  0.38329  0.60940  1.0000
  C   C17       1.0  0.78184  0.96797  0.17218  1.0000
  C   C18       1.0  0.21815  0.03203  0.82783  1.0000
  C   C19       1.0  0.24251  0.92223  0.12342  1.0000
  C   C20       1.0  0.75749  0.07777  0.87658  1.0000
  C   C21       1.0  0.95751  0.07946  0.54382  1.0000
  C   C22       1.0  0.04250  0.92054  0.45618  1.0000
  C   C23       1.0  0.07365  0.11122  0.45645  1.0000
  C   C24       1.0  0.92635  0.88878  0.54355  1.0000
  C   C25       1.0  0.19544  0.01649  0.44074  1.0000
  C   C26       1.0  0.80456  0.98352  0.55926  1.0000
  C   C27       1.0  0.21734  0.20908  0.43865  1.0000
  C   C28       1.0  0.78266  0.79092  0.56135  1.0000
  C   C29       1.0  0.31055  0.04866  0.35484  1.0000
  C   C30       1.0  0.68946  0.95133  0.64517  1.0000
  C   C31       1.0  0.02479  0.39836  0.06390  1.0000
  C   C32       1.0  0.97522  0.60164  0.93610  1.0000
  C   C33       1.0  0.92993  0.40219  0.98696  1.0000
  C   C34       1.0  0.07008  0.59780  0.01304  1.0000
  C   C35       1.0  0.81649  0.50783  0.95348  1.0000
  C   C36       1.0  0.18351  0.49217  0.04652  1.0000
  C   C37       1.0  0.78805  0.30453  0.00537  1.0000
  C   C38       1.0  0.21196  0.69547  0.99463  1.0000
  C   C39       1.0  0.72792  0.51859  0.87569  1.0000
  C   C40       1.0  0.27209  0.48141  0.12431  1.0000
  O   O1        1.0  0.28405  0.50986  0.30183  1.0000
  O   O2        1.0  0.71595  0.49014  0.69817  1.0000
  O   O3        1.0  0.20309  0.55369  0.41278  1.0000
  O   O4        1.0  0.79689  0.44631  0.58722  1.0000
  O   O5        1.0  0.67586  0.54723  0.35976  1.0000
  O   O6        1.0  0.32414  0.45277  0.64024  1.0000
  O   O7        1.0  0.64624  0.62010  0.45982  1.0000
  O   O8        1.0  0.35375  0.37990  0.54018  1.0000
  O   O9        1.0  0.77764  0.97284  0.09838  1.0000
  O   O10       1.0  0.22236  0.02715  0.90162  1.0000
  O   O11       1.0  0.67471  0.03468  0.19984  1.0000
  O   O12       1.0  0.32529  0.96532  0.80016  1.0000
  O   O13       1.0  0.34062  0.91033  0.05867  1.0000
  O   O14       1.0  0.65937  0.08967  0.94133  1.0000
  O   O15       1.0  0.28091  0.00004  0.14774  1.0000
  O   O16       1.0  0.71909  0.99996  0.85226  1.0000
  O   O17       1.0  0.13224  0.30240  0.42142  1.0000
  O   O18       1.0  0.86776  0.69761  0.57858  1.0000
  O   O19       1.0  0.41655  0.20155  0.44059  1.0000
  O   O20       1.0  0.58344  0.79845  0.55941  1.0000
  O   O21       1.0  0.24988  0.12388  0.29976  1.0000
  O   O22       1.0  0.75013  0.87613  0.70024  1.0000
  O   O23       1.0  0.47702  0.98911  0.34552  1.0000
  O   O24       1.0  0.52297  0.01088  0.65448  1.0000
  O   O25       1.0  0.86491  0.21201  0.04014  1.0000
  O   O26       1.0  0.13510  0.78799  0.95986  1.0000
  O   O27       1.0  0.59773  0.31165  0.98995  1.0000
  O   O28       1.0  0.40227  0.68834  0.01005  1.0000
  O   O29       1.0  0.57581  0.57854  0.85322  1.0000
  O   O30       1.0  0.42420  0.42146  0.14678  1.0000
  O   O31       1.0  0.83302  0.46610  0.83162  1.0000
  O   O32       1.0  0.16699  0.53390  0.16838  1.0000
  O   O33       1.0  0.75236  0.33985  0.47727  1.0000
  O   O34       1.0  0.24764  0.66015  0.52273  1.0000
  O   O35       1.0  0.58875  0.35430  0.29135  1.0000
  O   O36       1.0  0.41125  0.64570  0.70865  1.0000
  O   O37       1.0  0.24768  0.16228  0.98695  1.0000
  O   O38       1.0  0.75232  0.83772  0.01305  1.0000
  O   O39       1.0  0.39228  0.21489  0.14398  1.0000
  O   O40       1.0  0.60772  0.78510  0.85602  1.0000
