data_image0
_chemical_formula_structural       Dy4H52C40O40
_chemical_formula_sum              "Dy4 H52 C40 O40"
_cell_length_a       6.57646
_cell_length_b       12.0074
_cell_length_c       19.1932
_cell_angle_alpha    71.7567
_cell_angle_beta     79.7836
_cell_angle_gamma    74.0083

_space_group_name_H-M_alt    "P 1"
_space_group_IT_number       1

loop_
  _space_group_symop_operation_xyz
  'x, y, z'

loop_
  _atom_site_type_symbol
  _atom_site_label
  _atom_site_symmetry_multiplicity
  _atom_site_fract_x
  _atom_site_fract_y
  _atom_site_fract_z
  _atom_site_occupancy
  Dy  Dy1       1.0  0.13449  0.82692  0.01572  1.0000
  Dy  Dy2       1.0  0.97829  0.67283  0.48508  1.0000
  Dy  Dy3       1.0  0.86551  0.17308  0.98428  1.0000
  Dy  Dy4       1.0  0.02170  0.32717  0.51492  1.0000
  H   H1        1.0  0.90682  0.77047  0.64845  1.0000
  H   H2        1.0  0.32602  0.72893  0.85263  1.0000
  H   H3        1.0  0.09318  0.22952  0.35155  1.0000
  H   H4        1.0  0.67398  0.27107  0.14737  1.0000
  H   H5        1.0  0.27012  0.55460  0.06290  1.0000
  H   H6        1.0  0.88792  0.94504  0.43778  1.0000
  H   H7        1.0  0.72988  0.44540  0.93710  1.0000
  H   H8        1.0  0.11208  0.05496  0.56222  1.0000
  H   H9        1.0  0.04860  0.59319  0.03008  1.0000
  H   H10       1.0  0.67213  0.90548  0.47078  1.0000
  H   H11       1.0  0.95140  0.40682  0.96992  1.0000
  H   H12       1.0  0.32787  0.09452  0.52921  1.0000
  H   H13       1.0  0.67179  0.77347  0.07541  1.0000
  H   H14       1.0  0.52192  0.72617  0.42553  1.0000
  H   H15       1.0  0.32821  0.22653  0.92459  1.0000
  H   H16       1.0  0.47807  0.27383  0.57448  1.0000
  H   H17       1.0  0.84227  0.74952  0.13209  1.0000
  H   H18       1.0  0.72733  0.74927  0.36902  1.0000
  H   H19       1.0  0.15773  0.25048  0.86791  1.0000
  H   H20       1.0  0.27266  0.25074  0.63099  1.0000
  H   H21       1.0  0.58807  0.07714  0.86086  1.0000
  H   H22       1.0  0.52547  0.42206  0.64001  1.0000
  H   H23       1.0  0.41194  0.92285  0.13914  1.0000
  H   H24       1.0  0.47454  0.57794  0.36000  1.0000
  H   H25       1.0  0.72434  0.83101  0.83026  1.0000
  H   H26       1.0  0.38317  0.66852  0.67006  1.0000
  H   H27       1.0  0.27566  0.16899  0.16974  1.0000
  H   H28       1.0  0.61683  0.33148  0.32994  1.0000
  H   H29       1.0  0.34845  0.03274  0.76654  1.0000
  H   H30       1.0  0.14561  0.46652  0.73615  1.0000
  H   H31       1.0  0.65155  0.96726  0.23346  1.0000
  H   H32       1.0  0.85439  0.53348  0.26385  1.0000
  H   H33       1.0  0.44297  0.88898  0.75088  1.0000
  H   H34       1.0  0.08073  0.61056  0.75127  1.0000
  H   H35       1.0  0.55702  0.11102  0.24912  1.0000
  H   H36       1.0  0.91927  0.38943  0.24873  1.0000
  H   H37       1.0  0.53814  0.05977  0.64648  1.0000
  H   H38       1.0  0.24381  0.44031  0.85510  1.0000
  H   H39       1.0  0.46185  0.94023  0.35352  1.0000
  H   H40       1.0  0.75619  0.55969  0.14490  1.0000
  H   H41       1.0  0.56943  0.18028  0.72455  1.0000
  H   H42       1.0  0.47449  0.31950  0.77667  1.0000
  H   H43       1.0  0.43056  0.81972  0.27546  1.0000
  H   H44       1.0  0.52552  0.68050  0.22333  1.0000
  H   H45       1.0  0.90701  0.13031  0.78529  1.0000
  H   H46       1.0  0.82254  0.37031  0.71401  1.0000
  H   H47       1.0  0.09299  0.86969  0.21471  1.0000
  H   H48       1.0  0.17747  0.62969  0.28599  1.0000
  H   H49       1.0  0.98551  0.99253  0.76177  1.0000
  H   H50       1.0  0.73864  0.50835  0.73728  1.0000
  H   H51       1.0  0.01448  0.00747  0.23823  1.0000
  H   H52       1.0  0.26136  0.49165  0.26272  1.0000
  C   C1        1.0  0.71157  0.00445  0.84432  1.0000
  C   C2        1.0  0.55877  0.49511  0.65614  1.0000
  C   C3        1.0  0.28843  0.99555  0.15568  1.0000
  C   C4        1.0  0.44123  0.50489  0.34386  1.0000
  C   C5        1.0  0.60363  0.91463  0.83236  1.0000
  C   C6        1.0  0.34822  0.58464  0.66862  1.0000
  C   C7        1.0  0.39638  0.08536  0.16764  1.0000
  C   C8        1.0  0.65178  0.41537  0.33138  1.0000
  C   C9        1.0  0.49328  0.96218  0.76066  1.0000
  C   C10       1.0  0.21429  0.53739  0.74111  1.0000
  C   C11       1.0  0.50672  0.03782  0.23935  1.0000
  C   C12       1.0  0.78571  0.46261  0.25889  1.0000
  C   C13       1.0  0.63522  0.01763  0.69350  1.0000
  C   C14       1.0  0.34568  0.48247  0.80755  1.0000
  C   C15       1.0  0.36478  0.98237  0.30650  1.0000
  C   C16       1.0  0.65433  0.51753  0.19245  1.0000
  C   C17       1.0  0.71364  0.11547  0.70946  1.0000
  C   C18       1.0  0.53857  0.38470  0.79108  1.0000
  C   C19       1.0  0.28636  0.88453  0.29054  1.0000
  C   C20       1.0  0.46143  0.61530  0.20892  1.0000
  C   C21       1.0  0.84652  0.06109  0.77501  1.0000
  C   C22       1.0  0.68192  0.43928  0.72475  1.0000
  C   C23       1.0  0.15348  0.93891  0.22499  1.0000
  C   C24       1.0  0.31808  0.56072  0.27525  1.0000
  C   C25       1.0  0.84913  0.94393  0.90754  1.0000
  C   C26       1.0  0.69897  0.55610  0.59259  1.0000
  C   C27       1.0  0.15088  0.05607  0.09246  1.0000
  C   C28       1.0  0.30102  0.44391  0.40741  1.0000
  C   C29       1.0  0.44458  0.88055  0.89831  1.0000
  C   C30       1.0  0.22180  0.61839  0.60293  1.0000
  C   C31       1.0  0.55543  0.11945  0.10169  1.0000
  C   C32       1.0  0.77820  0.38161  0.39707  1.0000
  C   C33       1.0  0.82209  0.92879  0.66542  1.0000
  C   C34       1.0  0.41610  0.57127  0.83505  1.0000
  C   C35       1.0  0.17791  0.07121  0.33457  1.0000
  C   C36       1.0  0.58390  0.42873  0.16495  1.0000
  C   C37       1.0  0.82265  0.18985  0.64194  1.0000
  C   C38       1.0  0.65576  0.31075  0.85798  1.0000
  C   C39       1.0  0.17734  0.81016  0.35806  1.0000
  C   C40       1.0  0.34424  0.68925  0.14202  1.0000
  O   O1        1.0  0.92294  0.00970  0.93474  1.0000
  O   O2        1.0  0.86579  0.49065  0.56458  1.0000
  O   O3        1.0  0.07706  0.99030  0.06526  1.0000
  O   O4        1.0  0.13420  0.50936  0.43542  1.0000
  O   O5        1.0  0.90248  0.83059  0.93142  1.0000
  O   O6        1.0  0.66355  0.66948  0.56939  1.0000
  O   O7        1.0  0.09753  0.16941  0.06858  1.0000
  O   O8        1.0  0.33644  0.33053  0.43061  1.0000
  O   O9        1.0  0.40386  0.93242  0.94891  1.0000
  O   O10       1.0  0.28557  0.56699  0.55211  1.0000
  O   O11       1.0  0.59616  0.06757  0.05109  1.0000
  O   O12       1.0  0.71444  0.43302  0.44789  1.0000
  O   O13       1.0  0.34481  0.79933  0.90270  1.0000
  O   O14       1.0  0.04453  0.69928  0.59873  1.0000
  O   O15       1.0  0.65520  0.20067  0.09730  1.0000
  O   O16       1.0  0.95547  0.30072  0.40128  1.0000
  O   O17       1.0  0.98727  0.95823  0.63229  1.0000
  O   O18       1.0  0.57835  0.54166  0.86730  1.0000
  O   O19       1.0  0.01272  0.04177  0.36770  1.0000
  O   O20       1.0  0.42165  0.45834  0.13271  1.0000
  O   O21       1.0  0.78788  0.82092  0.67751  1.0000
  O   O22       1.0  0.28565  0.67908  0.82377  1.0000
  O   O23       1.0  0.21212  0.17907  0.32249  1.0000
  O   O24       1.0  0.71435  0.32092  0.17623  1.0000
  O   O25       1.0  0.98830  0.22039  0.64667  1.0000
  O   O26       1.0  0.85715  0.28104  0.85246  1.0000
  O   O27       1.0  0.01168  0.77962  0.35333  1.0000
  O   O28       1.0  0.14285  0.71895  0.14754  1.0000
  O   O29       1.0  0.74081  0.22737  0.58003  1.0000
  O   O30       1.0  0.54954  0.27257  0.92022  1.0000
  O   O31       1.0  0.25918  0.77263  0.41997  1.0000
  O   O32       1.0  0.45046  0.72743  0.07978  1.0000
  O   O33       1.0  0.18349  0.61511  0.02415  1.0000
  O   O34       1.0  0.82284  0.88445  0.47678  1.0000
  O   O35       1.0  0.81651  0.38489  0.97585  1.0000
  O   O36       1.0  0.17716  0.11555  0.52322  1.0000
  O   O37       1.0  0.80241  0.79422  0.08266  1.0000
  O   O38       1.0  0.68084  0.70583  0.41873  1.0000
  O   O39       1.0  0.19760  0.20577  0.91734  1.0000
  O   O40       1.0  0.31915  0.29418  0.58127  1.0000
