data_image0
_chemical_formula_structural       Cd8H56C40N8O36
_chemical_formula_sum              "Cd8 H56 C40 N8 O36"
_cell_length_a       8.58646
_cell_length_b       8.98498
_cell_length_c       19.2334
_cell_angle_alpha    90
_cell_angle_beta     90
_cell_angle_gamma    94.7629

_space_group_name_H-M_alt    "P 1"
_space_group_IT_number       1

loop_
  _space_group_symop_operation_xyz
  'x, y, z'

loop_
  _atom_site_type_symbol
  _atom_site_label
  _atom_site_symmetry_multiplicity
  _atom_site_fract_x
  _atom_site_fract_y
  _atom_site_fract_z
  _atom_site_occupancy
  Cd  Cd1       1.0  0.85380  0.57307  0.94035  1.0000
  Cd  Cd2       1.0  0.64621  0.92693  0.44035  1.0000
  Cd  Cd3       1.0  0.14621  0.42693  0.05965  1.0000
  Cd  Cd4       1.0  0.35379  0.07307  0.55965  1.0000
  Cd  Cd5       1.0  0.31625  0.06884  0.93780  1.0000
  Cd  Cd6       1.0  0.18375  0.43116  0.43780  1.0000
  Cd  Cd7       1.0  0.68375  0.93116  0.06220  1.0000
  Cd  Cd8       1.0  0.81625  0.56885  0.56220  1.0000
  H   H1        1.0  0.08701  0.88793  0.98730  1.0000
  H   H2        1.0  0.41299  0.61207  0.48730  1.0000
  H   H3        1.0  0.91299  0.11207  0.01269  1.0000
  H   H4        1.0  0.58701  0.38793  0.51270  1.0000
  H   H5        1.0  0.22126  0.85096  0.03825  1.0000
  H   H6        1.0  0.27874  0.64905  0.53825  1.0000
  H   H7        1.0  0.77874  0.14904  0.96175  1.0000
  H   H8        1.0  0.72126  0.35096  0.46175  1.0000
  H   H9        1.0  0.61545  0.57494  0.74468  1.0000
  H   H10       1.0  0.88455  0.92505  0.24468  1.0000
  H   H11       1.0  0.38455  0.42507  0.25532  1.0000
  H   H12       1.0  0.11545  0.07494  0.75532  1.0000
  H   H13       1.0  0.68505  0.41470  0.78211  1.0000
  H   H14       1.0  0.81496  0.08530  0.28210  1.0000
  H   H15       1.0  0.31495  0.58530  0.21789  1.0000
  H   H16       1.0  0.18505  0.91470  0.71789  1.0000
  H   H17       1.0  0.89077  0.57596  0.72025  1.0000
  H   H18       1.0  0.60924  0.92404  0.22025  1.0000
  H   H19       1.0  0.10923  0.42404  0.27974  1.0000
  H   H20       1.0  0.39077  0.07595  0.77975  1.0000
  H   H21       1.0  0.86256  0.72468  0.77733  1.0000
  H   H22       1.0  0.63744  0.77532  0.27732  1.0000
  H   H23       1.0  0.13744  0.27532  0.22267  1.0000
  H   H24       1.0  0.36256  0.22468  0.72267  1.0000
  H   H25       1.0  0.42369  0.42801  0.84111  1.0000
  H   H26       1.0  0.07631  0.07199  0.34111  1.0000
  H   H27       1.0  0.57631  0.57199  0.15889  1.0000
  H   H28       1.0  0.92369  0.92801  0.65889  1.0000
  H   H29       1.0  0.45804  0.49473  0.92764  1.0000
  H   H30       1.0  0.04195  0.00527  0.42765  1.0000
  H   H31       1.0  0.54195  0.50528  0.07235  1.0000
  H   H32       1.0  0.95805  0.99472  0.57235  1.0000
  H   H33       1.0  0.45975  0.73072  0.83954  1.0000
  H   H34       1.0  0.04025  0.76928  0.33954  1.0000
  H   H35       1.0  0.54025  0.26928  0.16046  1.0000
  H   H36       1.0  0.95975  0.23071  0.66046  1.0000
  H   H37       1.0  0.65802  0.80115  0.83279  1.0000
  H   H38       1.0  0.84198  0.69885  0.33279  1.0000
  H   H39       1.0  0.34198  0.19885  0.16721  1.0000
  H   H40       1.0  0.15802  0.30115  0.66721  1.0000
  H   H41       1.0  0.07748  0.37456  0.77490  1.0000
  H   H42       1.0  0.42252  0.12544  0.27491  1.0000
  H   H43       1.0  0.92252  0.62544  0.22510  1.0000
  H   H44       1.0  0.57748  0.87456  0.72510  1.0000
  H   H45       1.0  0.89276  0.32528  0.81341  1.0000
  H   H46       1.0  0.60725  0.17472  0.31341  1.0000
  H   H47       1.0  0.10724  0.67472  0.18659  1.0000
  H   H48       1.0  0.39276  0.82528  0.68659  1.0000
  H   H49       1.0  0.14698  0.68247  0.76836  1.0000
  H   H50       1.0  0.35302  0.81753  0.26836  1.0000
  H   H51       1.0  0.85302  0.31753  0.23164  1.0000
  H   H52       1.0  0.64698  0.18247  0.73164  1.0000
  H   H53       1.0  0.21123  0.58893  0.84273  1.0000
  H   H54       1.0  0.28877  0.91107  0.34273  1.0000
  H   H55       1.0  0.78877  0.41107  0.15727  1.0000
  H   H56       1.0  0.71123  0.08893  0.65727  1.0000
  C   C1        1.0  0.69037  0.53680  0.78665  1.0000
  C   C2        1.0  0.80963  0.96319  0.28665  1.0000
  C   C3        1.0  0.30963  0.46320  0.21335  1.0000
  C   C4        1.0  0.19037  0.03680  0.71335  1.0000
  C   C5        1.0  0.85681  0.60204  0.77373  1.0000
  C   C6        1.0  0.64319  0.89796  0.27373  1.0000
  C   C7        1.0  0.14319  0.39796  0.22627  1.0000
  C   C8        1.0  0.35681  0.10204  0.72626  1.0000
  C   C9        1.0  0.51510  0.45607  0.88048  1.0000
  C   C10       1.0  0.98490  0.04393  0.38048  1.0000
  C   C11       1.0  0.48490  0.54394  0.11952  1.0000
  C   C12       1.0  0.01510  0.95606  0.61952  1.0000
  C   C13       1.0  0.59103  0.31307  0.90016  1.0000
  C   C14       1.0  0.90897  0.18693  0.40016  1.0000
  C   C15       1.0  0.40897  0.68694  0.09984  1.0000
  C   C16       1.0  0.09103  0.81306  0.59984  1.0000
  C   C17       1.0  0.57735  0.72175  0.86160  1.0000
  C   C18       1.0  0.92265  0.77825  0.36160  1.0000
  C   C19       1.0  0.42265  0.27825  0.13840  1.0000
  C   C20       1.0  0.07735  0.22175  0.63840  1.0000
  C   C21       1.0  0.57993  0.77987  0.93597  1.0000
  C   C22       1.0  0.92008  0.72013  0.43597  1.0000
  C   C23       1.0  0.42008  0.22013  0.06403  1.0000
  C   C24       1.0  0.07992  0.27987  0.56403  1.0000
  C   C25       1.0  0.00267  0.39576  0.81989  1.0000
  C   C26       1.0  0.49734  0.10424  0.31990  1.0000
  C   C27       1.0  0.99734  0.60424  0.18010  1.0000
  C   C28       1.0  0.50267  0.89576  0.68011  1.0000
  C   C29       1.0  0.08203  0.33950  0.88583  1.0000
  C   C30       1.0  0.41797  0.16050  0.38583  1.0000
  C   C31       1.0  0.91796  0.66050  0.11417  1.0000
  C   C32       1.0  0.58203  0.83950  0.61417  1.0000
  C   C33       1.0  0.11543  0.65022  0.82228  1.0000
  C   C34       1.0  0.38457  0.84978  0.32228  1.0000
  C   C35       1.0  0.88457  0.34978  0.17772  1.0000
  C   C36       1.0  0.61543  0.15022  0.67772  1.0000
  C   C37       1.0  0.11602  0.78995  0.86785  1.0000
  C   C38       1.0  0.38398  0.71005  0.36785  1.0000
  C   C39       1.0  0.88398  0.21005  0.13215  1.0000
  C   C40       1.0  0.61602  0.28995  0.63215  1.0000
  N   N1        1.0  0.63197  0.57255  0.85624  1.0000
  N   N2        1.0  0.86803  0.92745  0.35625  1.0000
  N   N3        1.0  0.36803  0.42745  0.14376  1.0000
  N   N4        1.0  0.13197  0.07255  0.64375  1.0000
  N   N5        1.0  0.97024  0.55273  0.82490  1.0000
  N   N6        1.0  0.52976  0.94727  0.32490  1.0000
  N   N7        1.0  0.02976  0.44727  0.17510  1.0000
  N   N8        1.0  0.47024  0.05273  0.67510  1.0000
  O   O1        1.0  0.71709  0.32773  0.93553  1.0000
  O   O2        1.0  0.78291  0.17227  0.43553  1.0000
  O   O3        1.0  0.28290  0.67227  0.06447  1.0000
  O   O4        1.0  0.21709  0.82773  0.56447  1.0000
  O   O5        1.0  0.52569  0.18904  0.88020  1.0000
  O   O6        1.0  0.97431  0.31097  0.38020  1.0000
  O   O7        1.0  0.47431  0.81097  0.11980  1.0000
  O   O8        1.0  0.02569  0.68903  0.61980  1.0000
  O   O9        1.0  0.66750  0.72151  0.98106  1.0000
  O   O10       1.0  0.83250  0.77849  0.48106  1.0000
  O   O11       1.0  0.33250  0.27849  0.01894  1.0000
  O   O12       1.0  0.16750  0.22151  0.51894  1.0000
  O   O13       1.0  0.50328  0.88761  0.95134  1.0000
  O   O14       1.0  0.99673  0.61239  0.45134  1.0000
  O   O15       1.0  0.49672  0.11239  0.04866  1.0000
  O   O16       1.0  0.00327  0.38762  0.54866  1.0000
  O   O17       1.0  0.06682  0.41367  0.94215  1.0000
  O   O18       1.0  0.43318  0.08633  0.44215  1.0000
  O   O19       1.0  0.93318  0.58633  0.05785  1.0000
  O   O20       1.0  0.56682  0.91367  0.55785  1.0000
  O   O21       1.0  0.15419  0.22497  0.87747  1.0000
  O   O22       1.0  0.34580  0.27504  0.37747  1.0000
  O   O23       1.0  0.84581  0.77504  0.12253  1.0000
  O   O24       1.0  0.65420  0.72496  0.62253  1.0000
  O   O25       1.0  0.01330  0.79411  0.91534  1.0000
  O   O26       1.0  0.48670  0.70589  0.41534  1.0000
  O   O27       1.0  0.98670  0.20590  0.08465  1.0000
  O   O28       1.0  0.51330  0.29411  0.58466  1.0000
  O   O29       1.0  0.22669  0.88877  0.85598  1.0000
  O   O30       1.0  0.27332  0.61124  0.35598  1.0000
  O   O31       1.0  0.77332  0.11123  0.14402  1.0000
  O   O32       1.0  0.72668  0.38876  0.64402  1.0000
  O   O33       1.0  0.16693  0.93619  0.01955  1.0000
  O   O34       1.0  0.33308  0.56381  0.51956  1.0000
  O   O35       1.0  0.83307  0.06381  0.98044  1.0000
  O   O36       1.0  0.66692  0.43619  0.48045  1.0000
