data_image0
_chemical_formula_structural       Cu2H4C24N8Cl4
_chemical_formula_sum              "Cu2 H4 C24 N8 Cl4"
_cell_length_a       3.64539
_cell_length_b       11.2914
_cell_length_c       13.4728
_cell_angle_alpha    90.8278
_cell_angle_beta     89.931
_cell_angle_gamma    99.3242

_space_group_name_H-M_alt    "P 1"
_space_group_IT_number       1

loop_
  _space_group_symop_operation_xyz
  'x, y, z'

loop_
  _atom_site_type_symbol
  _atom_site_label
  _atom_site_symmetry_multiplicity
  _atom_site_fract_x
  _atom_site_fract_y
  _atom_site_fract_z
  _atom_site_occupancy
  Cu  Cu1       1.0  0.89835  0.00004  0.75009  1.0000
  Cu  Cu2       1.0  0.10167  0.99996  0.24991  1.0000
  H   H1        1.0  0.20599  0.38688  0.85446  1.0000
  H   H2        1.0  0.81915  0.61299  0.64559  1.0000
  H   H3        1.0  0.79401  0.61313  0.14554  1.0000
  H   H4        1.0  0.18083  0.38701  0.35441  1.0000
  C   C1        1.0  0.64599  0.83547  0.92128  1.0000
  C   C2        1.0  0.81330  0.16434  0.57864  1.0000
  C   C3        1.0  0.35403  0.16453  0.07872  1.0000
  C   C4        1.0  0.18670  0.83566  0.42136  1.0000
  C   C5        1.0  0.64683  0.75897  0.00196  1.0000
  C   C6        1.0  0.88994  0.24086  0.49797  1.0000
  C   C7        1.0  0.35317  0.24103  0.99803  1.0000
  C   C8        1.0  0.11005  0.75914  0.50204  1.0000
  C   C9        1.0  0.57079  0.62946  0.99825  1.0000
  C   C10       1.0  0.94230  0.37049  0.50181  1.0000
  C   C11       1.0  0.42921  0.37054  0.00175  1.0000
  C   C12       1.0  0.05768  0.62951  0.49819  1.0000
  C   C13       1.0  0.40831  0.55953  0.91615  1.0000
  C   C14       1.0  0.84925  0.44033  0.58389  1.0000
  C   C15       1.0  0.59169  0.44047  0.08385  1.0000
  C   C16       1.0  0.15072  0.55967  0.41611  1.0000
  C   C17       1.0  0.34049  0.43562  0.91850  1.0000
  C   C18       1.0  0.90492  0.56428  0.58152  1.0000
  C   C19       1.0  0.65951  0.56438  0.08150  1.0000
  C   C20       1.0  0.09506  0.43572  0.41848  1.0000
  C   C21       1.0  0.74290  0.82036  0.09170  1.0000
  C   C22       1.0  0.92293  0.17952  0.40817  1.0000
  C   C23       1.0  0.25710  0.17964  0.90830  1.0000
  C   C24       1.0  0.07707  0.82048  0.59183  1.0000
  N   N1        1.0  0.65621  0.90711  0.85853  1.0000
  N   N2        1.0  0.75024  0.09288  0.64151  1.0000
  N   N3        1.0  0.34380  0.09289  0.14147  1.0000
  N   N4        1.0  0.24977  0.90712  0.35849  1.0000
  N   N5        1.0  0.80975  0.87653  0.16538  1.0000
  N   N6        1.0  0.93119  0.12318  0.33445  1.0000
  N   N7        1.0  0.19026  0.12346  0.83462  1.0000
  N   N8        1.0  0.06882  0.87682  0.66555  1.0000
  Cl  Cl1       1.0  0.28071  0.62792  0.81088  1.0000
  Cl  Cl2       1.0  0.65130  0.37201  0.68918  1.0000
  Cl  Cl3       1.0  0.71932  0.37209  0.18912  1.0000
  Cl  Cl4       1.0  0.34870  0.62799  0.31083  1.0000
