data_image0
_chemical_formula_structural       Tb4H52C40O40
_chemical_formula_sum              "Tb4 H52 C40 O40"
_cell_length_a       6.37204
_cell_length_b       13.1655
_cell_length_c       17.5383
_cell_angle_alpha    71.5361
_cell_angle_beta     82.5179
_cell_angle_gamma    88.6995

_space_group_name_H-M_alt    "P 1"
_space_group_IT_number       1

loop_
  _space_group_symop_operation_xyz
  'x, y, z'

loop_
  _atom_site_type_symbol
  _atom_site_label
  _atom_site_symmetry_multiplicity
  _atom_site_fract_x
  _atom_site_fract_y
  _atom_site_fract_z
  _atom_site_occupancy
  Tb  Tb1       1.0  0.04431  0.60315  0.08694  1.0000
  Tb  Tb2       1.0  0.95569  0.39685  0.91306  1.0000
  Tb  Tb3       1.0  0.96209  0.88142  0.44200  1.0000
  Tb  Tb4       1.0  0.03791  0.11858  0.55800  1.0000
  H   H1        1.0  0.95452  0.99293  0.21332  1.0000
  H   H2        1.0  0.04547  0.00707  0.78668  1.0000
  H   H3        1.0  0.72475  0.51823  0.72461  1.0000
  H   H4        1.0  0.27525  0.48177  0.27539  1.0000
  H   H5        1.0  0.97420  0.61635  0.26014  1.0000
  H   H6        1.0  0.02580  0.38365  0.73986  1.0000
  H   H7        1.0  0.93391  0.72856  0.19771  1.0000
  H   H8        1.0  0.06609  0.27144  0.80229  1.0000
  H   H9        1.0  0.60198  0.67452  0.04677  1.0000
  H   H10       1.0  0.39802  0.32548  0.95323  1.0000
  H   H11       1.0  0.72238  0.62570  0.98045  1.0000
  H   H12       1.0  0.27762  0.37430  0.01955  1.0000
  H   H13       1.0  0.28022  0.88415  0.54643  1.0000
  H   H14       1.0  0.71978  0.11584  0.45357  1.0000
  H   H15       1.0  0.39437  0.81944  0.48932  1.0000
  H   H16       1.0  0.60563  0.18056  0.51068  1.0000
  H   H17       1.0  0.14880  0.82005  0.29865  1.0000
  H   H18       1.0  0.85120  0.17995  0.70135  1.0000
  H   H19       1.0  0.07813  0.70682  0.36505  1.0000
  H   H20       1.0  0.92187  0.29318  0.63495  1.0000
  H   H21       1.0  0.54341  0.26423  0.11873  1.0000
  H   H22       1.0  0.45659  0.73577  0.88127  1.0000
  H   H23       1.0  0.51889  0.37243  0.25022  1.0000
  H   H24       1.0  0.48111  0.62757  0.74978  1.0000
  H   H25       1.0  0.20632  0.21324  0.22841  1.0000
  H   H26       1.0  0.79368  0.78676  0.77158  1.0000
  H   H27       1.0  0.16803  0.28067  0.30240  1.0000
  H   H28       1.0  0.83197  0.71933  0.69760  1.0000
  H   H29       1.0  0.48091  0.19668  0.36268  1.0000
  H   H30       1.0  0.51909  0.80332  0.63732  1.0000
  H   H31       1.0  0.51272  0.07748  0.23708  1.0000
  H   H32       1.0  0.48728  0.92252  0.76292  1.0000
  H   H33       1.0  0.85428  0.17590  0.17971  1.0000
  H   H34       1.0  0.14572  0.82410  0.82029  1.0000
  H   H35       1.0  0.81990  0.24375  0.25326  1.0000
  H   H36       1.0  0.18010  0.75625  0.74674  1.0000
  H   H37       1.0  0.42686  0.94275  0.91205  1.0000
  H   H38       1.0  0.57313  0.05725  0.08795  1.0000
  H   H39       1.0  0.63394  0.85291  0.94666  1.0000
  H   H40       1.0  0.36606  0.14709  0.05334  1.0000
  H   H41       1.0  0.54519  0.86369  0.08493  1.0000
  H   H42       1.0  0.45481  0.13631  0.91507  1.0000
  H   H43       1.0  0.18435  0.00981  0.01740  1.0000
  H   H44       1.0  0.81565  0.99019  0.98260  1.0000
  H   H45       1.0  0.39429  0.67884  0.41487  1.0000
  H   H46       1.0  0.60572  0.32116  0.58513  1.0000
  H   H47       1.0  0.60093  0.59871  0.38876  1.0000
  H   H48       1.0  0.39907  0.40129  0.61124  1.0000
  H   H49       1.0  0.43923  0.60354  0.55978  1.0000
  H   H50       1.0  0.56077  0.39646  0.44022  1.0000
  H   H51       1.0  0.81513  0.48453  0.50091  1.0000
  H   H52       1.0  0.18487  0.51547  0.49909  1.0000
  C   C1        1.0  0.61255  0.29667  0.16064  1.0000
  C   C2        1.0  0.38745  0.70333  0.83936  1.0000
  C   C3        1.0  0.44011  0.33899  0.21099  1.0000
  C   C4        1.0  0.55990  0.66101  0.78901  1.0000
  C   C5        1.0  0.28847  0.24849  0.26586  1.0000
  C   C6        1.0  0.71153  0.75151  0.73413  1.0000
  C   C7        1.0  0.41187  0.16118  0.32246  1.0000
  C   C8        1.0  0.58813  0.83882  0.67754  1.0000
  C   C9        1.0  0.58715  0.11720  0.27364  1.0000
  C   C10       1.0  0.41285  0.88280  0.72636  1.0000
  C   C11       1.0  0.73534  0.20793  0.21679  1.0000
  C   C12       1.0  0.26466  0.79207  0.78321  1.0000
  C   C13       1.0  0.77092  0.38476  0.11106  1.0000
  C   C14       1.0  0.22908  0.61524  0.88894  1.0000
  C   C15       1.0  0.31351  0.42900  0.16154  1.0000
  C   C16       1.0  0.68649  0.57100  0.83846  1.0000
  C   C17       1.0  0.25527  0.07379  0.37400  1.0000
  C   C18       1.0  0.74474  0.92621  0.62600  1.0000
  C   C19       1.0  0.71558  0.03225  0.32792  1.0000
  C   C20       1.0  0.28442  0.96775  0.67208  1.0000
  C   C21       1.0  0.54314  0.92101  0.95569  1.0000
  C   C22       1.0  0.45686  0.07899  0.04431  1.0000
  C   C23       1.0  0.42572  0.88890  0.04285  1.0000
  C   C24       1.0  0.57429  0.11110  0.95715  1.0000
  C   C25       1.0  0.30444  0.98333  0.05908  1.0000
  C   C26       1.0  0.69556  0.01666  0.94092  1.0000
  C   C27       1.0  0.28285  0.79151  0.05927  1.0000
  C   C28       1.0  0.71715  0.20849  0.94073  1.0000
  C   C29       1.0  0.18606  0.95045  0.14458  1.0000
  C   C30       1.0  0.81394  0.04955  0.85543  1.0000
  C   C31       1.0  0.47375  0.60237  0.43679  1.0000
  C   C32       1.0  0.52625  0.39763  0.56321  1.0000
  C   C33       1.0  0.57003  0.59764  0.51354  1.0000
  C   C34       1.0  0.42996  0.40236  0.48646  1.0000
  C   C35       1.0  0.68362  0.49182  0.54607  1.0000
  C   C36       1.0  0.31637  0.50818  0.45393  1.0000
  C   C37       1.0  0.71072  0.69553  0.49622  1.0000
  C   C38       1.0  0.28928  0.30447  0.50378  1.0000
  C   C39       1.0  0.77279  0.48056  0.62380  1.0000
  C   C40       1.0  0.22721  0.51944  0.37620  1.0000
  O   O1        1.0  0.81914  0.45386  0.14276  1.0000
  O   O2        1.0  0.18086  0.54614  0.85724  1.0000
  O   O3        1.0  0.85426  0.38227  0.04191  1.0000
  O   O4        1.0  0.14574  0.61774  0.95809  1.0000
  O   O5        1.0  0.29512  0.44615  0.08755  1.0000
  O   O6        1.0  0.70488  0.55385  0.91245  1.0000
  O   O7        1.0  0.21430  0.49032  0.19839  1.0000
  O   O8        1.0  0.78570  0.50968  0.80161  1.0000
  O   O9        1.0  0.22329  0.99626  0.34850  1.0000
  O   O10       1.0  0.77671  0.00374  0.65150  1.0000
  O   O11       1.0  0.15190  0.08253  0.43917  1.0000
  O   O12       1.0  0.84810  0.91748  0.56083  1.0000
  O   O13       1.0  0.71592  0.02662  0.40216  1.0000
  O   O14       1.0  0.28408  0.97338  0.59784  1.0000
  O   O15       1.0  0.82598  0.96679  0.30005  1.0000
  O   O16       1.0  0.17402  0.03321  0.69995  1.0000
  O   O17       1.0  0.36730  0.69812  0.07655  1.0000
  O   O18       1.0  0.63270  0.30188  0.92345  1.0000
  O   O19       1.0  0.08510  0.79957  0.05603  1.0000
  O   O20       1.0  0.91490  0.20043  0.94397  1.0000
  O   O21       1.0  0.03429  0.01700  0.15529  1.0000
  O   O22       1.0  0.96571  0.98300  0.84471  1.0000
  O   O23       1.0  0.22987  0.86844  0.19809  1.0000
  O   O24       1.0  0.77012  0.13156  0.80191  1.0000
  O   O25       1.0  0.63427  0.78833  0.46190  1.0000
  O   O26       1.0  0.36573  0.21167  0.53810  1.0000
  O   O27       1.0  0.89934  0.68860  0.51245  1.0000
  O   O28       1.0  0.10066  0.31140  0.48755  1.0000
  O   O29       1.0  0.66535  0.53096  0.66899  1.0000
  O   O30       1.0  0.33465  0.46904  0.33101  1.0000
  O   O31       1.0  0.92704  0.42228  0.64525  1.0000
  O   O32       1.0  0.07296  0.57772  0.35475  1.0000
  O   O33       1.0  0.92017  0.65182  0.20722  1.0000
  O   O34       1.0  0.07983  0.34818  0.79277  1.0000
  O   O35       1.0  0.74612  0.66015  0.02146  1.0000
  O   O36       1.0  0.25388  0.33985  0.97854  1.0000
  O   O37       1.0  0.25295  0.83762  0.51371  1.0000
  O   O38       1.0  0.74705  0.16238  0.48629  1.0000
  O   O39       1.0  0.10064  0.78374  0.35734  1.0000
  O   O40       1.0  0.89936  0.21626  0.64266  1.0000
