data_image0
_chemical_formula_structural       Ni4H36C20N12O24
_chemical_formula_sum              "Ni4 H36 C20 N12 O24"
_cell_length_a       7.56163
_cell_length_b       8.30365
_cell_length_c       14.6184
_cell_angle_alpha    90.0002
_cell_angle_beta     90
_cell_angle_gamma    89.9995

_space_group_name_H-M_alt    "P 1"
_space_group_IT_number       1

loop_
  _space_group_symop_operation_xyz
  'x, y, z'

loop_
  _atom_site_type_symbol
  _atom_site_label
  _atom_site_symmetry_multiplicity
  _atom_site_fract_x
  _atom_site_fract_y
  _atom_site_fract_z
  _atom_site_occupancy
  Ni  Ni1       1.0  0.69045  0.36069  0.32715  1.0000
  Ni  Ni2       1.0  0.19045  0.13931  0.67285  1.0000
  Ni  Ni3       1.0  0.30955  0.86069  0.17285  1.0000
  Ni  Ni4       1.0  0.80955  0.63932  0.82715  1.0000
  H   H1        1.0  0.76884  0.43481  0.67395  1.0000
  H   H2        1.0  0.26884  0.06519  0.32605  1.0000
  H   H3        1.0  0.23116  0.93481  0.82605  1.0000
  H   H4        1.0  0.73116  0.56519  0.17395  1.0000
  H   H5        1.0  0.82431  0.85962  0.51742  1.0000
  H   H6        1.0  0.32431  0.64038  0.48258  1.0000
  H   H7        1.0  0.17570  0.35962  0.98258  1.0000
  H   H8        1.0  0.67569  0.14038  0.01742  1.0000
  H   H9        1.0  0.35853  0.39421  0.27161  1.0000
  H   H10       1.0  0.85853  0.10579  0.72839  1.0000
  H   H11       1.0  0.64147  0.89420  0.22839  1.0000
  H   H12       1.0  0.14147  0.60580  0.77161  1.0000
  H   H13       1.0  0.35301  0.34493  0.37542  1.0000
  H   H14       1.0  0.85301  0.15507  0.62459  1.0000
  H   H15       1.0  0.64699  0.84493  0.12459  1.0000
  H   H16       1.0  0.14699  0.65507  0.87542  1.0000
  H   H17       1.0  0.02263  0.28660  0.36891  1.0000
  H   H18       1.0  0.52262  0.21340  0.63109  1.0000
  H   H19       1.0  0.97737  0.78660  0.13109  1.0000
  H   H20       1.0  0.47737  0.71340  0.86891  1.0000
  H   H21       1.0  0.01608  0.34007  0.26052  1.0000
  H   H22       1.0  0.51608  0.15993  0.73948  1.0000
  H   H23       1.0  0.98392  0.84007  0.23948  1.0000
  H   H24       1.0  0.48392  0.65993  0.76052  1.0000
  H   H25       1.0  0.93760  0.16529  0.29143  1.0000
  H   H26       1.0  0.43759  0.33471  0.70857  1.0000
  H   H27       1.0  0.06240  0.66529  0.20858  1.0000
  H   H28       1.0  0.56240  0.83471  0.79142  1.0000
  H   H29       1.0  0.65983  0.16185  0.45160  1.0000
  H   H30       1.0  0.15983  0.33815  0.54841  1.0000
  H   H31       1.0  0.34017  0.66185  0.04840  1.0000
  H   H32       1.0  0.84017  0.83815  0.95160  1.0000
  H   H33       1.0  0.68447  0.03290  0.37110  1.0000
  H   H34       1.0  0.18446  0.46710  0.62890  1.0000
  H   H35       1.0  0.31554  0.53289  0.12890  1.0000
  H   H36       1.0  0.81553  0.96711  0.87110  1.0000
  C   C1        1.0  0.73490  0.40313  0.53520  1.0000
  C   C2        1.0  0.23490  0.09687  0.46480  1.0000
  C   C3        1.0  0.26511  0.90312  0.96480  1.0000
  C   C4        1.0  0.76511  0.59688  0.03520  1.0000
  C   C5        1.0  0.80107  0.65746  0.61227  1.0000
  C   C6        1.0  0.30107  0.84254  0.38773  1.0000
  C   C7        1.0  0.19893  0.15745  0.88772  1.0000
  C   C8        1.0  0.69892  0.34255  0.11228  1.0000
  C   C9        1.0  0.79632  0.73182  0.52369  1.0000
  C   C10       1.0  0.29632  0.76818  0.47631  1.0000
  C   C11       1.0  0.20368  0.23182  0.97631  1.0000
  C   C12       1.0  0.70368  0.26819  0.02369  1.0000
  C   C13       1.0  0.76019  0.63725  0.44872  1.0000
  C   C14       1.0  0.26019  0.86274  0.55128  1.0000
  C   C15       1.0  0.23981  0.13725  0.05128  1.0000
  C   C16       1.0  0.73981  0.36275  0.94872  1.0000
  C   C17       1.0  0.75851  0.70429  0.35242  1.0000
  C   C18       1.0  0.25851  0.79570  0.64758  1.0000
  C   C19       1.0  0.24149  0.20429  0.14758  1.0000
  C   C20       1.0  0.74149  0.29571  0.85242  1.0000
  N   N1        1.0  0.94536  0.28325  0.31101  1.0000
  N   N2        1.0  0.44536  0.21675  0.68899  1.0000
  N   N3        1.0  0.05464  0.78325  0.18899  1.0000
  N   N4        1.0  0.55464  0.71675  0.81101  1.0000
  N   N5        1.0  0.72989  0.47513  0.45275  1.0000
  N   N6        1.0  0.22989  0.02487  0.54725  1.0000
  N   N7        1.0  0.27011  0.97513  0.04725  1.0000
  N   N8        1.0  0.77011  0.52487  0.95275  1.0000
  N   N9        1.0  0.76091  0.49502  0.61185  1.0000
  N   N10       1.0  0.26091  0.00498  0.38815  1.0000
  N   N11       1.0  0.23910  0.99502  0.88815  1.0000
  N   N12       1.0  0.73909  0.50498  0.11185  1.0000
  O   O1        1.0  0.62250  0.13399  0.38752  1.0000
  O   O2        1.0  0.12250  0.36601  0.61248  1.0000
  O   O3        1.0  0.37750  0.63399  0.11248  1.0000
  O   O4        1.0  0.87750  0.86601  0.88752  1.0000
  O   O5        1.0  0.41739  0.41342  0.33080  1.0000
  O   O6        1.0  0.91739  0.08658  0.66920  1.0000
  O   O7        1.0  0.58262  0.91342  0.16920  1.0000
  O   O8        1.0  0.08261  0.58658  0.83080  1.0000
  O   O9        1.0  0.74397  0.59994  0.28864  1.0000
  O   O10       1.0  0.24397  0.90006  0.71136  1.0000
  O   O11       1.0  0.25603  0.09994  0.21137  1.0000
  O   O12       1.0  0.75603  0.40006  0.78864  1.0000
  O   O13       1.0  0.71557  0.25107  0.54551  1.0000
  O   O14       1.0  0.21557  0.24893  0.45449  1.0000
  O   O15       1.0  0.28444  0.75107  0.95448  1.0000
  O   O16       1.0  0.78443  0.74893  0.04551  1.0000
  O   O17       1.0  0.83885  0.72763  0.68624  1.0000
  O   O18       1.0  0.33886  0.77237  0.31376  1.0000
  O   O19       1.0  0.16114  0.22763  0.81376  1.0000
  O   O20       1.0  0.66114  0.27238  0.18624  1.0000
  O   O21       1.0  0.77730  0.85369  0.33772  1.0000
  O   O22       1.0  0.27729  0.64631  0.66228  1.0000
  O   O23       1.0  0.22270  0.35368  0.16228  1.0000
  O   O24       1.0  0.72270  0.14632  0.83772  1.0000
