data_image0
_chemical_formula_structural       K2H22C12O18
_chemical_formula_sum              "K2 H22 C12 O18"
_cell_length_a       6.10118
_cell_length_b       8.82688
_cell_length_c       10.0283
_cell_angle_alpha    100.886
_cell_angle_beta     101.565
_cell_angle_gamma    90.1147

_space_group_name_H-M_alt    "P 1"
_space_group_IT_number       1

loop_
  _space_group_symop_operation_xyz
  'x, y, z'

loop_
  _atom_site_type_symbol
  _atom_site_label
  _atom_site_symmetry_multiplicity
  _atom_site_fract_x
  _atom_site_fract_y
  _atom_site_fract_z
  _atom_site_occupancy
  K   K1        1.0  0.60972  0.72548  0.97233  1.0000
  K   K2        1.0  0.39030  0.27452  0.02768  1.0000
  H   H1        1.0  0.40484  0.58370  0.65778  1.0000
  H   H2        1.0  0.59516  0.41630  0.34222  1.0000
  H   H3        1.0  0.75036  0.70435  0.56324  1.0000
  H   H4        1.0  0.24963  0.29565  0.43676  1.0000
  H   H5        1.0  0.96117  0.80094  0.50637  1.0000
  H   H6        1.0  0.03883  0.19906  0.49363  1.0000
  H   H7        1.0  0.35735  0.12164  0.70326  1.0000
  H   H8        1.0  0.64265  0.87835  0.29674  1.0000
  H   H9        1.0  0.03855  0.86122  0.90860  1.0000
  H   H10       1.0  0.96145  0.13878  0.09140  1.0000
  H   H11       1.0  0.74897  0.02686  0.57903  1.0000
  H   H12       1.0  0.25104  0.97314  0.42097  1.0000
  H   H13       1.0  0.58225  0.93025  0.66443  1.0000
  H   H14       1.0  0.41774  0.06975  0.33557  1.0000
  H   H15       1.0  0.57084  0.39705  0.73826  1.0000
  H   H16       1.0  0.42916  0.60295  0.26174  1.0000
  H   H17       1.0  0.74345  0.50550  0.69306  1.0000
  H   H18       1.0  0.25655  0.49450  0.30694  1.0000
  H   H19       1.0  0.86674  0.47360  0.14185  1.0000
  H   H20       1.0  0.13326  0.52640  0.85814  1.0000
  H   H21       1.0  0.84245  0.37854  0.98898  1.0000
  H   H22       1.0  0.15755  0.62145  0.01101  1.0000
  C   C1        1.0  0.08093  0.63295  0.63027  1.0000
  C   C2        1.0  0.91907  0.36705  0.36973  1.0000
  C   C3        1.0  0.92162  0.75513  0.59339  1.0000
  C   C4        1.0  0.07838  0.24487  0.40661  1.0000
  C   C5        1.0  0.93085  0.89011  0.71939  1.0000
  C   C6        1.0  0.06915  0.10989  0.28061  1.0000
  C   C7        1.0  0.16159  0.97455  0.75618  1.0000
  C   C8        1.0  0.83842  0.02545  0.24383  1.0000
  C   C9        1.0  0.74122  0.99632  0.67956  1.0000
  C   C10       1.0  0.25878  0.00368  0.32044  1.0000
  C   C11       1.0  0.73610  0.14640  0.78162  1.0000
  C   C12       1.0  0.26390  0.85360  0.21839  1.0000
  O   O1        1.0  0.02044  0.51615  0.66911  1.0000
  O   O2        1.0  0.97955  0.48385  0.33088  1.0000
  O   O3        1.0  0.28876  0.66343  0.62263  1.0000
  O   O4        1.0  0.71124  0.33657  0.37737  1.0000
  O   O5        1.0  0.29432  0.96240  0.86449  1.0000
  O   O6        1.0  0.70568  0.03760  0.13550  1.0000
  O   O7        1.0  0.20094  0.05356  0.66446  1.0000
  O   O8        1.0  0.79906  0.94644  0.33555  1.0000
  O   O9        1.0  0.90032  0.83158  0.83760  1.0000
  O   O10       1.0  0.09967  0.16842  0.16240  1.0000
  O   O11       1.0  0.90436  0.20094  0.87187  1.0000
  O   O12       1.0  0.09564  0.79906  0.12813  1.0000
  O   O13       1.0  0.54699  0.21595  0.76442  1.0000
  O   O14       1.0  0.45300  0.78405  0.23557  1.0000
  O   O15       1.0  0.59516  0.50249  0.71987  1.0000
  O   O16       1.0  0.40484  0.49751  0.28013  1.0000
  O   O17       1.0  0.77115  0.45705  0.04886  1.0000
  O   O18       1.0  0.22885  0.54295  0.95114  1.0000
