data_image0
_chemical_formula_structural       V4Cu4H32C24N24O4F12
_chemical_formula_sum              "V4 Cu4 H32 C24 N24 O4 F12"
_cell_length_a       6.10711
_cell_length_b       12.3986
_cell_length_c       13.7698
_cell_angle_alpha    90
_cell_angle_beta     90
_cell_angle_gamma    101.346

_space_group_name_H-M_alt    "P 1"
_space_group_IT_number       1

loop_
  _space_group_symop_operation_xyz
  'x, y, z'

loop_
  _atom_site_type_symbol
  _atom_site_label
  _atom_site_symmetry_multiplicity
  _atom_site_fract_x
  _atom_site_fract_y
  _atom_site_fract_z
  _atom_site_occupancy
  V   V1        1.0  0.02758  0.87625  0.45863  1.0000
  V   V2        1.0  0.47244  0.62376  0.95863  1.0000
  V   V3        1.0  0.97244  0.12376  0.54137  1.0000
  V   V4        1.0  0.52757  0.37625  0.04137  1.0000
  Cu  Cu1       1.0  0.03265  0.63183  0.55773  1.0000
  Cu  Cu2       1.0  0.46735  0.86817  0.05773  1.0000
  Cu  Cu3       1.0  0.96734  0.36817  0.44227  1.0000
  Cu  Cu4       1.0  0.53265  0.13183  0.94227  1.0000
  H   H1        1.0  0.37065  0.70502  0.75386  1.0000
  H   H2        1.0  0.12934  0.79498  0.25386  1.0000
  H   H3        1.0  0.62934  0.29498  0.24614  1.0000
  H   H4        1.0  0.87064  0.20502  0.74614  1.0000
  H   H5        1.0  0.45511  0.01477  0.61336  1.0000
  H   H6        1.0  0.04491  0.48522  0.11337  1.0000
  H   H7        1.0  0.54491  0.98523  0.38663  1.0000
  H   H8        1.0  0.95510  0.51477  0.88663  1.0000
  H   H9        1.0  0.00631  0.76324  0.93980  1.0000
  H   H10       1.0  0.49368  0.73676  0.43981  1.0000
  H   H11       1.0  0.99369  0.23676  0.06020  1.0000
  H   H12       1.0  0.50632  0.26324  0.56019  1.0000
  H   H13       1.0  0.13076  0.06310  0.78425  1.0000
  H   H14       1.0  0.36925  0.43691  0.28425  1.0000
  H   H15       1.0  0.86924  0.93691  0.21575  1.0000
  H   H16       1.0  0.63074  0.56309  0.71575  1.0000
  H   H17       1.0  0.57593  0.91645  0.84640  1.0000
  H   H18       1.0  0.92408  0.58355  0.34640  1.0000
  H   H19       1.0  0.42407  0.08355  0.15360  1.0000
  H   H20       1.0  0.07591  0.41644  0.65360  1.0000
  H   H21       1.0  0.70790  0.00545  0.75190  1.0000
  H   H22       1.0  0.79210  0.49455  0.25191  1.0000
  H   H23       1.0  0.29210  0.99455  0.24810  1.0000
  H   H24       1.0  0.20789  0.50544  0.74809  1.0000
  H   H25       1.0  0.77639  0.76861  0.79053  1.0000
  H   H26       1.0  0.72362  0.73139  0.29054  1.0000
  H   H27       1.0  0.22361  0.23139  0.20947  1.0000
  H   H28       1.0  0.27638  0.26861  0.70946  1.0000
  H   H29       1.0  0.91260  0.86087  0.69882  1.0000
  H   H30       1.0  0.58741  0.63914  0.19883  1.0000
  H   H31       1.0  0.08740  0.13913  0.30118  1.0000
  H   H32       1.0  0.41259  0.36086  0.80117  1.0000
  C   C1        1.0  0.35561  0.76804  0.70066  1.0000
  C   C2        1.0  0.14438  0.73197  0.20067  1.0000
  C   C3        1.0  0.64438  0.23197  0.29933  1.0000
  C   C4        1.0  0.85561  0.26803  0.79933  1.0000
  C   C5        1.0  0.39306  0.92861  0.63001  1.0000
  C   C6        1.0  0.10695  0.57140  0.13001  1.0000
  C   C7        1.0  0.60695  0.07139  0.36999  1.0000
  C   C8        1.0  0.89306  0.42861  0.86999  1.0000
  C   C9        1.0  0.07659  0.84751  0.92020  1.0000
  C   C10       1.0  0.42341  0.65249  0.42020  1.0000
  C   C11       1.0  0.92341  0.15249  0.07980  1.0000
  C   C12       1.0  0.57660  0.34752  0.57980  1.0000
  C   C13       1.0  0.13871  0.00333  0.84157  1.0000
  C   C14       1.0  0.36130  0.49667  0.34158  1.0000
  C   C15       1.0  0.86129  0.99667  0.15843  1.0000
  C   C16       1.0  0.63870  0.50333  0.65843  1.0000
  C   C17       1.0  0.64750  0.91955  0.77317  1.0000
  C   C18       1.0  0.85250  0.58046  0.27318  1.0000
  C   C19       1.0  0.35250  0.08045  0.22683  1.0000
  C   C20       1.0  0.14749  0.41955  0.72682  1.0000
  C   C21       1.0  0.83679  0.85528  0.77125  1.0000
  C   C22       1.0  0.66321  0.64473  0.27126  1.0000
  C   C23       1.0  0.16321  0.14472  0.22875  1.0000
  C   C24       1.0  0.33679  0.35527  0.72874  1.0000
  N   N1        1.0  0.21076  0.75774  0.62834  1.0000
  N   N2        1.0  0.28925  0.74226  0.12834  1.0000
  N   N3        1.0  0.78925  0.24226  0.37166  1.0000
  N   N4        1.0  0.71074  0.25774  0.87166  1.0000
  N   N5        1.0  0.23332  0.86021  0.58401  1.0000
  N   N6        1.0  0.26669  0.63979  0.08401  1.0000
  N   N7        1.0  0.76669  0.13979  0.41599  1.0000
  N   N8        1.0  0.73332  0.36021  0.91599  1.0000
  N   N9        1.0  0.47289  0.87387  0.70376  1.0000
  N   N10       1.0  0.02711  0.62613  0.20376  1.0000
  N   N11       1.0  0.52711  0.12614  0.29624  1.0000
  N   N12       1.0  0.97288  0.37386  0.79624  1.0000
  N   N13       1.0  0.24365  0.91337  0.96440  1.0000
  N   N14       1.0  0.25635  0.58663  0.46441  1.0000
  N   N15       1.0  0.75635  0.08663  0.03560  1.0000
  N   N16       1.0  0.74364  0.41337  0.53560  1.0000
  N   N17       1.0  0.28286  0.01289  0.91412  1.0000
  N   N18       1.0  0.21714  0.48710  0.41412  1.0000
  N   N19       1.0  0.71714  0.98711  0.08588  1.0000
  N   N20       1.0  0.78286  0.51290  0.58588  1.0000
  N   N21       1.0  0.00775  0.90053  0.84267  1.0000
  N   N22       1.0  0.49225  0.59947  0.34267  1.0000
  N   N23       1.0  0.99225  0.09947  0.15733  1.0000
  N   N24       1.0  0.50774  0.40053  0.65733  1.0000
  O   O1        1.0  0.90243  0.74833  0.47909  1.0000
  O   O2        1.0  0.59758  0.75168  0.97909  1.0000
  O   O3        1.0  0.09757  0.25167  0.52091  1.0000
  O   O4        1.0  0.40242  0.24833  0.02091  1.0000
  F   F1        1.0  0.27588  0.86316  0.38002  1.0000
  F   F2        1.0  0.22413  0.63684  0.88002  1.0000
  F   F3        1.0  0.72413  0.13684  0.61998  1.0000
  F   F4        1.0  0.77586  0.36316  0.11998  1.0000
  F   F5        1.0  0.87689  0.90031  0.34179  1.0000
  F   F6        1.0  0.62313  0.59970  0.84180  1.0000
  F   F7        1.0  0.12313  0.09969  0.65820  1.0000
  F   F8        1.0  0.37687  0.40030  0.15821  1.0000
  F   F9        1.0  0.82135  0.95288  0.53293  1.0000
  F   F10       1.0  0.67866  0.54712  0.03294  1.0000
  F   F11       1.0  0.17866  0.04713  0.46706  1.0000
  F   F12       1.0  0.32134  0.45287  0.96707  1.0000
