data_image0
_chemical_formula_structural       Nd2H30C14S2N4O14
_chemical_formula_sum              "Nd2 H30 C14 S2 N4 O14"
_cell_length_a       8.09509
_cell_length_b       8.59484
_cell_length_c       11.5606
_cell_angle_alpha    99.9748
_cell_angle_beta     92.4915
_cell_angle_gamma    117.342

_space_group_name_H-M_alt    "P 1"
_space_group_IT_number       1

loop_
  _space_group_symop_operation_xyz
  'x, y, z'

loop_
  _atom_site_type_symbol
  _atom_site_label
  _atom_site_symmetry_multiplicity
  _atom_site_fract_x
  _atom_site_fract_y
  _atom_site_fract_z
  _atom_site_occupancy
  Nd  Nd1       1.0  0.78655  0.07415  0.98790  1.0000
  Nd  Nd2       1.0  0.21346  0.92585  0.01210  1.0000
  H   H1        1.0  0.09734  0.46689  0.11465  1.0000
  H   H2        1.0  0.90266  0.53311  0.88535  1.0000
  H   H3        1.0  0.18035  0.32810  0.10792  1.0000
  H   H4        1.0  0.81965  0.67190  0.89208  1.0000
  H   H5        1.0  0.19462  0.47655  0.88850  1.0000
  H   H6        1.0  0.80538  0.52345  0.11149  1.0000
  H   H7        1.0  0.32414  0.46988  0.76813  1.0000
  H   H8        1.0  0.67586  0.53012  0.23187  1.0000
  H   H9        1.0  0.37745  0.41464  0.90068  1.0000
  H   H10       1.0  0.62255  0.58536  0.09932  1.0000
  H   H11       1.0  0.72669  0.40348  0.68939  1.0000
  H   H12       1.0  0.27330  0.59652  0.31061  1.0000
  H   H13       1.0  0.51655  0.19053  0.65472  1.0000
  H   H14       1.0  0.48345  0.80947  0.34528  1.0000
  H   H15       1.0  0.72506  0.21323  0.59858  1.0000
  H   H16       1.0  0.27494  0.78677  0.40142  1.0000
  H   H17       1.0  0.07955  0.06470  0.35471  1.0000
  H   H18       1.0  0.92046  0.93531  0.64529  1.0000
  H   H19       1.0  0.84334  0.93185  0.37958  1.0000
  H   H20       1.0  0.15666  0.06815  0.62042  1.0000
  H   H21       1.0  0.96905  0.82837  0.30704  1.0000
  H   H22       1.0  0.03095  0.17164  0.69296  1.0000
  H   H23       1.0  0.07277  0.63933  0.60330  1.0000
  H   H24       1.0  0.92723  0.36067  0.39669  1.0000
  H   H25       1.0  0.27579  0.82023  0.68951  1.0000
  H   H26       1.0  0.72421  0.17977  0.31048  1.0000
  H   H27       1.0  0.56319  0.83012  0.66932  1.0000
  H   H28       1.0  0.43681  0.16988  0.33068  1.0000
  H   H29       1.0  0.57744  0.64727  0.57999  1.0000
  H   H30       1.0  0.42256  0.35273  0.42001  1.0000
  C   C1        1.0  0.47722  0.69409  0.91030  1.0000
  C   C2        1.0  0.52278  0.30591  0.08970  1.0000
  C   C3        1.0  0.33301  0.50204  0.86534  1.0000
  C   C4        1.0  0.66699  0.49796  0.13466  1.0000
  C   C5        1.0  0.72357  0.20231  0.78089  1.0000
  C   C6        1.0  0.27644  0.79769  0.21911  1.0000
  C   C7        1.0  0.67028  0.25802  0.67563  1.0000
  C   C8        1.0  0.32972  0.74198  0.32437  1.0000
  C   C9        1.0  0.87872  0.96385  0.20028  1.0000
  C   C10       1.0  0.12128  0.03614  0.79972  1.0000
  C   C11       1.0  0.94471  0.94508  0.31752  1.0000
  C   C12       1.0  0.05529  0.05492  0.68248  1.0000
  C   C13       1.0  0.31064  0.61406  0.59046  1.0000
  C   C14       1.0  0.68936  0.38594  0.40954  1.0000
  S   S1        1.0  0.19645  0.40067  0.50531  1.0000
  S   S2        1.0  0.80355  0.59934  0.49469  1.0000
  N   N1        1.0  0.21251  0.69451  0.63596  1.0000
  N   N2        1.0  0.78749  0.30549  0.36403  1.0000
  N   N3        1.0  0.49773  0.70218  0.61753  1.0000
  N   N4        1.0  0.50227  0.29782  0.38247  1.0000
  O   O1        1.0  0.65167  0.74155  0.91187  1.0000
  O   O2        1.0  0.34833  0.25845  0.08813  1.0000
  O   O3        1.0  0.42863  0.81498  0.94718  1.0000
  O   O4        1.0  0.57137  0.18502  0.05282  1.0000
  O   O5        1.0  0.65764  0.03549  0.78066  1.0000
  O   O6        1.0  0.34236  0.96451  0.21934  1.0000
  O   O7        1.0  0.83582  0.31871  0.87223  1.0000
  O   O8        1.0  0.16418  0.68129  0.12777  1.0000
  O   O9        1.0  0.96956  0.95862  0.11186  1.0000
  O   O10       1.0  0.03044  0.04138  0.88814  1.0000
  O   O11       1.0  0.73668  0.98891  0.18678  1.0000
  O   O12       1.0  0.26332  0.01109  0.81322  1.0000
  O   O13       1.0  0.06184  0.33625  0.10523  1.0000
  O   O14       1.0  0.93816  0.66375  0.89477  1.0000
