data_image0
_chemical_formula_structural       Ba2H24C24S8N4O20
_chemical_formula_sum              "Ba2 H24 C24 S8 N4 O20"
_cell_length_a       7.51258
_cell_length_b       11.4074
_cell_length_c       12.4685
_cell_angle_alpha    117.235
_cell_angle_beta     99.6317
_cell_angle_gamma    90.0075

_space_group_name_H-M_alt    "P 1"
_space_group_IT_number       1

loop_
  _space_group_symop_operation_xyz
  'x, y, z'

loop_
  _atom_site_type_symbol
  _atom_site_label
  _atom_site_symmetry_multiplicity
  _atom_site_fract_x
  _atom_site_fract_y
  _atom_site_fract_z
  _atom_site_occupancy
  Ba  Ba1       1.0  0.75014  0.21346  0.99999  1.0000
  Ba  Ba2       1.0  0.24986  0.78654  0.00001  1.0000
  H   H1        1.0  0.03341  0.32658  0.87274  1.0000
  H   H2        1.0  0.46691  0.45391  0.12728  1.0000
  H   H3        1.0  0.96659  0.67342  0.12725  1.0000
  H   H4        1.0  0.53308  0.54609  0.87272  1.0000
  H   H5        1.0  0.87817  0.41973  0.88597  1.0000
  H   H6        1.0  0.62216  0.53390  0.11412  1.0000
  H   H7        1.0  0.12184  0.58028  0.11403  1.0000
  H   H8        1.0  0.37784  0.46610  0.88589  1.0000
  H   H9        1.0  0.98378  0.75857  0.59056  1.0000
  H   H10       1.0  0.51590  0.16795  0.40931  1.0000
  H   H11       1.0  0.01621  0.24142  0.40944  1.0000
  H   H12       1.0  0.48410  0.83205  0.59069  1.0000
  H   H13       1.0  0.01839  0.68981  0.37331  1.0000
  H   H14       1.0  0.48129  0.31639  0.62647  1.0000
  H   H15       1.0  0.98161  0.31018  0.62669  1.0000
  H   H16       1.0  0.51872  0.68362  0.37353  1.0000
  H   H17       1.0  0.19427  0.83705  0.32529  1.0000
  H   H18       1.0  0.30566  0.51174  0.67474  1.0000
  H   H19       1.0  0.80573  0.16295  0.67471  1.0000
  H   H20       1.0  0.69434  0.48826  0.32526  1.0000
  H   H21       1.0  0.33909  0.05584  0.49048  1.0000
  H   H22       1.0  0.16109  0.56554  0.50962  1.0000
  H   H23       1.0  0.66091  0.94416  0.50952  1.0000
  H   H24       1.0  0.83891  0.43446  0.49038  1.0000
  C   C1        1.0  0.24668  0.02632  0.63276  1.0000
  C   C2        1.0  0.25330  0.39367  0.36727  1.0000
  C   C3        1.0  0.75332  0.97368  0.36724  1.0000
  C   C4        1.0  0.74670  0.60633  0.63273  1.0000
  C   C5        1.0  0.14739  0.94300  0.65940  1.0000
  C   C6        1.0  0.35255  0.28370  0.34052  1.0000
  C   C7        1.0  0.85260  0.05699  0.34060  1.0000
  C   C8        1.0  0.64745  0.71630  0.65948  1.0000
  C   C9        1.0  0.06239  0.82182  0.56809  1.0000
  C   C10       1.0  0.43741  0.25371  0.43177  1.0000
  C   C11       1.0  0.93762  0.17818  0.43191  1.0000
  C   C12       1.0  0.56259  0.74629  0.56823  1.0000
  C   C13       1.0  0.08220  0.78435  0.44743  1.0000
  C   C14       1.0  0.41749  0.33685  0.55243  1.0000
  C   C15       1.0  0.91780  0.21565  0.55257  1.0000
  C   C16       1.0  0.58252  0.66315  0.44757  1.0000
  C   C17       1.0  0.18090  0.86798  0.41992  1.0000
  C   C18       1.0  0.31889  0.44807  0.58007  1.0000
  C   C19       1.0  0.81910  0.13202  0.58008  1.0000
  C   C20       1.0  0.68112  0.55193  0.41993  1.0000
  C   C21       1.0  0.26322  0.99094  0.51240  1.0000
  C   C22       1.0  0.23667  0.47858  0.48764  1.0000
  C   C23       1.0  0.73678  0.00905  0.48760  1.0000
  C   C24       1.0  0.76333  0.52142  0.51236  1.0000
  S   S1        1.0  0.34175  0.17188  0.77133  1.0000
  S   S2        1.0  0.15828  0.40072  0.22875  1.0000
  S   S3        1.0  0.65825  0.82812  0.22867  1.0000
  S   S4        1.0  0.84172  0.59928  0.77125  1.0000
  S   S5        1.0  0.13940  0.01745  0.81856  1.0000
  S   S6        1.0  0.36054  0.19902  0.18136  1.0000
  S   S7        1.0  0.86059  0.98254  0.18144  1.0000
  S   S8        1.0  0.63946  0.80098  0.81864  1.0000
  N   N1        1.0  0.31256  0.12365  0.86926  1.0000
  N   N2        1.0  0.18740  0.25456  0.13073  1.0000
  N   N3        1.0  0.68743  0.87635  0.13074  1.0000
  N   N4        1.0  0.81260  0.74544  0.86927  1.0000
  O   O1        1.0  0.92928  0.35686  0.91336  1.0000
  O   O2        1.0  0.57105  0.44361  0.08669  1.0000
  O   O3        1.0  0.07073  0.64313  0.08665  1.0000
  O   O4        1.0  0.42894  0.55639  0.91331  1.0000
  O   O5        1.0  0.53578  0.19370  0.77821  1.0000
  O   O6        1.0  0.96424  0.41567  0.22189  1.0000
  O   O7        1.0  0.46422  0.80630  0.22179  1.0000
  O   O8        1.0  0.03575  0.58433  0.77811  1.0000
  O   O9        1.0  0.23959  0.28432  0.77921  1.0000
  O   O10       1.0  0.26049  0.50531  0.22091  1.0000
  O   O11       1.0  0.76041  0.71567  0.22079  1.0000
  O   O12       1.0  0.73951  0.49469  0.77909  1.0000
  O   O13       1.0  0.16686  0.92310  0.86580  1.0000
  O   O14       1.0  0.33289  0.05742  0.13408  1.0000
  O   O15       1.0  0.83313  0.07690  0.13420  1.0000
  O   O16       1.0  0.66711  0.94259  0.86592  1.0000
  O   O17       1.0  0.96791  0.07767  0.83083  1.0000
  O   O18       1.0  0.53208  0.24691  0.16908  1.0000
  O   O19       1.0  0.03208  0.92233  0.16916  1.0000
  O   O20       1.0  0.46792  0.75310  0.83092  1.0000
