data_image0
_chemical_formula_structural       La2H34C24O14
_chemical_formula_sum              "La2 H34 C24 O14"
_cell_length_a       8.09213
_cell_length_b       8.99289
_cell_length_c       10.6101
_cell_angle_alpha    71.6957
_cell_angle_beta     83.3674
_cell_angle_gamma    84.0038

_space_group_name_H-M_alt    "P 1"
_space_group_IT_number       1

loop_
  _space_group_symop_operation_xyz
  'x, y, z'

loop_
  _atom_site_type_symbol
  _atom_site_label
  _atom_site_symmetry_multiplicity
  _atom_site_fract_x
  _atom_site_fract_y
  _atom_site_fract_z
  _atom_site_occupancy
  La  La1       1.0  0.25174  0.04910  0.96981  1.0000
  La  La2       1.0  0.74826  0.95090  0.03019  1.0000
  H   H1        1.0  0.48691  0.23883  0.34184  1.0000
  H   H2        1.0  0.51309  0.76117  0.65816  1.0000
  H   H3        1.0  0.71327  0.37859  0.18843  1.0000
  H   H4        1.0  0.28673  0.62142  0.81157  1.0000
  H   H5        1.0  0.56678  0.51844  0.09628  1.0000
  H   H6        1.0  0.43321  0.48157  0.90372  1.0000
  H   H7        1.0  0.67540  0.62340  0.26337  1.0000
  H   H8        1.0  0.32460  0.37660  0.73663  1.0000
  H   H9        1.0  0.61405  0.45570  0.39205  1.0000
  H   H10       1.0  0.38595  0.54430  0.60795  1.0000
  H   H11       1.0  0.40843  0.67097  0.39056  1.0000
  H   H12       1.0  0.59157  0.32903  0.60944  1.0000
  H   H13       1.0  0.29483  0.41467  0.45334  1.0000
  H   H14       1.0  0.70517  0.58533  0.54666  1.0000
  H   H15       1.0  0.14952  0.55395  0.35967  1.0000
  H   H16       1.0  0.85048  0.44606  0.64033  1.0000
  H   H17       1.0  0.19020  0.31079  0.28755  1.0000
  H   H18       1.0  0.80980  0.68921  0.71245  1.0000
  H   H19       1.0  0.25323  0.47521  0.15630  1.0000
  H   H20       1.0  0.74677  0.52479  0.84370  1.0000
  H   H21       1.0  0.85754  0.97719  0.67578  1.0000
  H   H22       1.0  0.14246  0.02281  0.32422  1.0000
  H   H23       1.0  0.10376  0.19976  0.48637  1.0000
  H   H24       1.0  0.89624  0.80024  0.51363  1.0000
  H   H25       1.0  0.89861  0.25525  0.53842  1.0000
  H   H26       1.0  0.10139  0.74475  0.46158  1.0000
  H   H27       1.0  0.08515  0.77157  0.69092  1.0000
  H   H28       1.0  0.91485  0.22843  0.30908  1.0000
  H   H29       1.0  0.21885  0.90562  0.57806  1.0000
  H   H30       1.0  0.78115  0.09438  0.42194  1.0000
  H   H31       1.0  0.08384  0.42630  0.88930  1.0000
  H   H32       1.0  0.91615  0.57370  0.11072  1.0000
  H   H33       1.0  0.95115  0.31216  0.88068  1.0000
  H   H34       1.0  0.04885  0.68784  0.11932  1.0000
  C   C1        1.0  0.47100  0.21213  0.15366  1.0000
  C   C2        1.0  0.52900  0.78787  0.84634  1.0000
  C   C3        1.0  0.45739  0.31807  0.24249  1.0000
  C   C4        1.0  0.54261  0.68193  0.75751  1.0000
  C   C5        1.0  0.58946  0.43968  0.19690  1.0000
  C   C6        1.0  0.41053  0.56032  0.80310  1.0000
  C   C7        1.0  0.58249  0.53527  0.29403  1.0000
  C   C8        1.0  0.41751  0.46473  0.70596  1.0000
  C   C9        1.0  0.40717  0.61466  0.31191  1.0000
  C   C10       1.0  0.59283  0.38534  0.68809  1.0000
  C   C11       1.0  0.27444  0.49449  0.35276  1.0000
  C   C12       1.0  0.72556  0.50551  0.64724  1.0000
  C   C13       1.0  0.28325  0.39856  0.25562  1.0000
  C   C14       1.0  0.71675  0.60144  0.74438  1.0000
  C   C15       1.0  0.36677  0.75173  0.18956  1.0000
  C   C16       1.0  0.63323  0.24827  0.81044  1.0000
  C   C17       1.0  0.06181  0.04578  0.74876  1.0000
  C   C18       1.0  0.93819  0.95422  0.25124  1.0000
  C   C19       1.0  0.98417  0.01425  0.63738  1.0000
  C   C20       1.0  0.01583  0.98575  0.36262  1.0000
  C   C21       1.0  0.97728  0.15896  0.51400  1.0000
  C   C22       1.0  0.02272  0.84103  0.48601  1.0000
  C   C23       1.0  0.08770  0.87604  0.60247  1.0000
  C   C24       1.0  0.91230  0.12396  0.39753  1.0000
  O   O1        1.0  0.00700  0.97540  0.87075  1.0000
  O   O2        1.0  0.99300  0.02461  0.12925  1.0000
  O   O3        1.0  0.33797  0.19126  0.10937  1.0000
  O   O4        1.0  0.66202  0.80874  0.89063  1.0000
  O   O5        1.0  0.22504  0.77104  0.14397  1.0000
  O   O6        1.0  0.77496  0.22896  0.85603  1.0000
  O   O7        1.0  0.61463  0.15008  0.13048  1.0000
  O   O8        1.0  0.38537  0.84992  0.86952  1.0000
  O   O9        1.0  0.18242  0.13216  0.72414  1.0000
  O   O10       1.0  0.81759  0.86784  0.27586  1.0000
  O   O11       1.0  0.47544  0.85284  0.13686  1.0000
  O   O12       1.0  0.52456  0.14716  0.86315  1.0000
  O   O13       1.0  0.05766  0.31728  0.91647  1.0000
  O   O14       1.0  0.94235  0.68272  0.08352  1.0000
