data_image0
_chemical_formula_structural       Sm2H26C30N8O16
_chemical_formula_sum              "Sm2 H26 C30 N8 O16"
_cell_length_a       9.30301
_cell_length_b       10.0204
_cell_length_c       12.2036
_cell_angle_alpha    100.076
_cell_angle_beta     91.7208
_cell_angle_gamma    110.859

_space_group_name_H-M_alt    "P 1"
_space_group_IT_number       1

loop_
  _space_group_symop_operation_xyz
  'x, y, z'

loop_
  _atom_site_type_symbol
  _atom_site_label
  _atom_site_symmetry_multiplicity
  _atom_site_fract_x
  _atom_site_fract_y
  _atom_site_fract_z
  _atom_site_occupancy
  Sm  Sm1       1.0  0.19259  0.44330  0.01644  1.0000
  Sm  Sm2       1.0  0.80742  0.55670  0.98356  1.0000
  H   H1        1.0  0.19392  0.31131  0.23912  1.0000
  H   H2        1.0  0.80608  0.68869  0.76088  1.0000
  H   H3        1.0  0.07486  0.19627  0.14250  1.0000
  H   H4        1.0  0.92515  0.80374  0.85750  1.0000
  H   H5        1.0  0.40155  0.53394  0.22536  1.0000
  H   H6        1.0  0.59845  0.46606  0.77464  1.0000
  H   H7        1.0  0.27847  0.60831  0.26032  1.0000
  H   H8        1.0  0.72154  0.39169  0.73968  1.0000
  H   H9        1.0  0.11646  0.29262  0.77749  1.0000
  H   H10       1.0  0.88358  0.70735  0.22253  1.0000
  H   H11       1.0  0.24344  0.44754  0.76589  1.0000
  H   H12       1.0  0.75656  0.55244  0.23411  1.0000
  H   H13       1.0  0.77663  0.75662  0.49190  1.0000
  H   H14       1.0  0.22334  0.24338  0.50812  1.0000
  H   H15       1.0  0.82413  0.89931  0.33817  1.0000
  H   H16       1.0  0.17586  0.10070  0.66184  1.0000
  H   H17       1.0  0.37116  0.91986  0.35358  1.0000
  H   H18       1.0  0.62884  0.08017  0.64642  1.0000
  H   H19       1.0  0.32305  0.77617  0.50354  1.0000
  H   H20       1.0  0.67692  0.22384  0.49646  1.0000
  H   H21       1.0  0.66051  0.22329  0.17207  1.0000
  H   H22       1.0  0.33948  0.77670  0.82794  1.0000
  H   H23       1.0  0.19766  0.05731  0.00562  1.0000
  H   H24       1.0  0.80235  0.94267  0.99436  1.0000
  H   H25       1.0  0.36375  0.78122  0.16639  1.0000
  H   H26       1.0  0.63626  0.21879  0.83361  1.0000
  C   C1        1.0  0.50965  0.66832  0.59368  1.0000
  C   C2        1.0  0.49033  0.33169  0.40633  1.0000
  C   C3        1.0  0.54573  0.75559  0.50713  1.0000
  C   C4        1.0  0.45425  0.24441  0.49288  1.0000
  C   C5        1.0  0.68820  0.79285  0.46147  1.0000
  C   C6        1.0  0.31177  0.20715  0.53854  1.0000
  C   C7        1.0  0.71442  0.87031  0.37500  1.0000
  C   C8        1.0  0.28556  0.12969  0.62501  1.0000
  C   C9        1.0  0.59881  0.91243  0.33355  1.0000
  C   C10       1.0  0.40118  0.08758  0.66647  1.0000
  C   C11       1.0  0.45820  0.88031  0.38096  1.0000
  C   C12       1.0  0.54179  0.11972  0.61905  1.0000
  C   C13       1.0  0.43202  0.80128  0.46593  1.0000
  C   C14       1.0  0.56796  0.19874  0.53407  1.0000
  C   C15       1.0  0.51847  0.00404  0.18386  1.0000
  C   C16       1.0  0.48154  0.99596  0.81614  1.0000
  C   C17       1.0  0.54856  0.13519  0.14859  1.0000
  C   C18       1.0  0.45146  0.86482  0.85141  1.0000
  C   C19       1.0  0.43336  0.15278  0.08241  1.0000
  C   C20       1.0  0.56664  0.84721  0.91758  1.0000
  C   C21       1.0  0.47070  0.29186  0.04005  1.0000
  C   C22       1.0  0.52931  0.70814  0.95995  1.0000
  C   C23       1.0  0.28781  0.04125  0.05470  1.0000
  C   C24       1.0  0.71220  0.95873  0.94529  1.0000
  C   C25       1.0  0.26313  0.90657  0.08493  1.0000
  C   C26       1.0  0.73689  0.09343  0.91506  1.0000
  C   C27       1.0  0.11099  0.78462  0.05330  1.0000
  C   C28       1.0  0.88902  0.21538  0.94669  1.0000
  C   C29       1.0  0.37996  0.88704  0.14703  1.0000
  C   C30       1.0  0.62005  0.11295  0.85296  1.0000
  N   N1        1.0  0.36247  0.60142  0.61655  1.0000
  N   N2        1.0  0.63751  0.39858  0.38346  1.0000
  N   N3        1.0  0.37462  0.52947  0.69579  1.0000
  N   N4        1.0  0.62537  0.47052  0.30421  1.0000
  N   N5        1.0  0.52153  0.55140  0.72097  1.0000
  N   N6        1.0  0.47847  0.44860  0.27902  1.0000
  N   N7        1.0  0.61092  0.63885  0.65853  1.0000
  N   N8        1.0  0.38906  0.36115  0.34146  1.0000
  O   O1        1.0  0.61216  0.36946  0.04131  1.0000
  O   O2        1.0  0.38784  0.63055  0.95869  1.0000
  O   O3        1.0  0.11770  0.29979  0.17608  1.0000
  O   O4        1.0  0.88232  0.70021  0.82391  1.0000
  O   O5        1.0  0.35940  0.32302  0.00329  1.0000
  O   O6        1.0  0.64060  0.67697  0.99670  1.0000
  O   O7        1.0  0.32749  0.58136  0.19521  1.0000
  O   O8        1.0  0.67252  0.41865  0.80479  1.0000
  O   O9        1.0  0.09845  0.64910  0.03825  1.0000
  O   O10       1.0  0.90156  0.35089  0.96175  1.0000
  O   O11       1.0  0.15921  0.39453  0.81423  1.0000
  O   O12       1.0  0.84079  0.60544  0.18577  1.0000
  O   O13       1.0  0.99022  0.81456  0.04265  1.0000
  O   O14       1.0  0.00979  0.18544  0.95735  1.0000
  O   O15       1.0  0.63561  0.99186  0.24954  1.0000
  O   O16       1.0  0.36440  0.00815  0.75047  1.0000
