data_image0
_chemical_formula_structural       Gd2H26C30N8O16
_chemical_formula_sum              "Gd2 H26 C30 N8 O16"
_cell_length_a       8.9002
_cell_length_b       9.6857
_cell_length_c       12.9293
_cell_angle_alpha    99.812
_cell_angle_beta     93.7007
_cell_angle_gamma    107.238

_space_group_name_H-M_alt    "P 1"
_space_group_IT_number       1

loop_
  _space_group_symop_operation_xyz
  'x, y, z'

loop_
  _atom_site_type_symbol
  _atom_site_label
  _atom_site_symmetry_multiplicity
  _atom_site_fract_x
  _atom_site_fract_y
  _atom_site_fract_z
  _atom_site_occupancy
  Gd  Gd1       1.0  0.20668  0.44742  0.00936  1.0000
  Gd  Gd2       1.0  0.79332  0.55258  0.99064  1.0000
  H   H1        1.0  0.44886  0.52532  0.19992  1.0000
  H   H2        1.0  0.55114  0.47469  0.80009  1.0000
  H   H3        1.0  0.50599  0.62744  0.11257  1.0000
  H   H4        1.0  0.49403  0.37257  0.88744  1.0000
  H   H5        1.0  0.22193  0.46051  0.77060  1.0000
  H   H6        1.0  0.77806  0.53948  0.22940  1.0000
  H   H7        1.0  0.04145  0.38163  0.79102  1.0000
  H   H8        1.0  0.95854  0.61836  0.20898  1.0000
  H   H9        1.0  0.22459  0.35968  0.24231  1.0000
  H   H10       1.0  0.77540  0.64032  0.75769  1.0000
  H   H11       1.0  0.08902  0.25158  0.15537  1.0000
  H   H12       1.0  0.91098  0.74841  0.84463  1.0000
  H   H13       1.0  0.24774  0.28387  0.50257  1.0000
  H   H14       1.0  0.75227  0.71612  0.49743  1.0000
  H   H15       1.0  0.19434  0.14767  0.65141  1.0000
  H   H16       1.0  0.80565  0.85234  0.34858  1.0000
  H   H17       1.0  0.64768  0.07428  0.64239  1.0000
  H   H18       1.0  0.35232  0.92572  0.35760  1.0000
  H   H19       1.0  0.70400  0.21637  0.49950  1.0000
  H   H20       1.0  0.29602  0.78364  0.50049  1.0000
  H   H21       1.0  0.34015  0.79571  0.81904  1.0000
  H   H22       1.0  0.65986  0.20428  0.18096  1.0000
  H   H23       1.0  0.79913  0.95203  0.00636  1.0000
  H   H24       1.0  0.20089  0.04799  0.99364  1.0000
  H   H25       1.0  0.65654  0.22687  0.81543  1.0000
  H   H26       1.0  0.34347  0.77314  0.18458  1.0000
  C   C1        1.0  0.51771  0.33988  0.40599  1.0000
  C   C2        1.0  0.48228  0.66012  0.59401  1.0000
  C   C3        1.0  0.47949  0.25847  0.49096  1.0000
  C   C4        1.0  0.52054  0.74153  0.50904  1.0000
  C   C5        1.0  0.33448  0.23673  0.53285  1.0000
  C   C6        1.0  0.66552  0.76327  0.46715  1.0000
  C   C7        1.0  0.30428  0.16154  0.61585  1.0000
  C   C8        1.0  0.69573  0.83846  0.38416  1.0000
  C   C9        1.0  0.41797  0.10520  0.65618  1.0000
  C   C10       1.0  0.58203  0.89481  0.34381  1.0000
  C   C11       1.0  0.56196  0.12378  0.61429  1.0000
  C   C12       1.0  0.43804  0.87623  0.38571  1.0000
  C   C13       1.0  0.59247  0.20149  0.53311  1.0000
  C   C14       1.0  0.40753  0.79852  0.46689  1.0000
  C   C15       1.0  0.48996  0.01016  0.80500  1.0000
  C   C16       1.0  0.51004  0.98984  0.19501  1.0000
  C   C17       1.0  0.45368  0.88098  0.84510  1.0000
  C   C18       1.0  0.54631  0.11902  0.15490  1.0000
  C   C19       1.0  0.56489  0.86099  0.91811  1.0000
  C   C20       1.0  0.43511  0.13901  0.08190  1.0000
  C   C21       1.0  0.52236  0.72349  0.96193  1.0000
  C   C22       1.0  0.47764  0.27650  0.03808  1.0000
  C   C23       1.0  0.71206  0.96950  0.95121  1.0000
  C   C24       1.0  0.28793  0.03050  0.04880  1.0000
  C   C25       1.0  0.74307  0.10183  0.91433  1.0000
  C   C26       1.0  0.25694  0.89816  0.08568  1.0000
  C   C27       1.0  0.89370  0.22287  0.95209  1.0000
  C   C28       1.0  0.10628  0.77711  0.04791  1.0000
  C   C29       1.0  0.63251  0.12250  0.84165  1.0000
  C   C30       1.0  0.36749  0.87750  0.15836  1.0000
  N   N1        1.0  0.66791  0.39312  0.38272  1.0000
  N   N2        1.0  0.33210  0.60688  0.61727  1.0000
  N   N3        1.0  0.65479  0.46068  0.30284  1.0000
  N   N4        1.0  0.34522  0.53932  0.69716  1.0000
  N   N5        1.0  0.50456  0.44922  0.27842  1.0000
  N   N6        1.0  0.49544  0.55078  0.72157  1.0000
  N   N7        1.0  0.41378  0.37367  0.34090  1.0000
  N   N8        1.0  0.58621  0.62632  0.65910  1.0000
  O   O1        1.0  0.41030  0.57627  0.14237  1.0000
  O   O2        1.0  0.58970  0.42373  0.85763  1.0000
  O   O3        1.0  0.90270  0.35846  0.94715  1.0000
  O   O4        1.0  0.09729  0.64153  0.05284  1.0000
  O   O5        1.0  0.01581  0.19618  0.98742  1.0000
  O   O6        1.0  0.98418  0.80382  0.01258  1.0000
  O   O7        1.0  0.15097  0.40582  0.82138  1.0000
  O   O8        1.0  0.84902  0.59420  0.17862  1.0000
  O   O9        1.0  0.63175  0.69826  0.01948  1.0000
  O   O10       1.0  0.36824  0.30173  0.98053  1.0000
  O   O11       1.0  0.15419  0.35448  0.17781  1.0000
  O   O12       1.0  0.84582  0.64550  0.82218  1.0000
  O   O13       1.0  0.38094  0.63869  0.94345  1.0000
  O   O14       1.0  0.61904  0.36130  0.05655  1.0000
  O   O15       1.0  0.37519  0.02424  0.73452  1.0000
  O   O16       1.0  0.62481  0.97575  0.26548  1.0000
