data_image0
_chemical_formula_structural       Ag2H6C10N4O8
_chemical_formula_sum              "Ag2 H6 C10 N4 O8"
_cell_length_a       6.10077
_cell_length_b       4.92052
_cell_length_c       12.2529
_cell_angle_alpha    82.8695
_cell_angle_beta     105.665
_cell_angle_gamma    106.777

_space_group_name_H-M_alt    "P 1"
_space_group_IT_number       1

loop_
  _space_group_symop_operation_xyz
  'x, y, z'

loop_
  _atom_site_type_symbol
  _atom_site_label
  _atom_site_symmetry_multiplicity
  _atom_site_fract_x
  _atom_site_fract_y
  _atom_site_fract_z
  _atom_site_occupancy
  Ag  Ag1       1.0  0.21354  0.99488  0.07799  1.0000
  Ag  Ag2       1.0  0.78647  0.00512  0.92202  1.0000
  H   H1        1.0  0.17599  0.50467  0.32367  1.0000
  H   H2        1.0  0.82401  0.49534  0.67633  1.0000
  H   H3        1.0  0.80870  0.96512  0.42539  1.0000
  H   H4        1.0  0.19130  0.03488  0.57461  1.0000
  H   H5        1.0  0.52823  0.56547  0.11012  1.0000
  H   H6        1.0  0.47178  0.43453  0.88988  1.0000
  C   C1        1.0  0.01807  0.73601  0.39285  1.0000
  C   C2        1.0  0.98193  0.26400  0.60715  1.0000
  C   C3        1.0  0.63714  0.78158  0.26942  1.0000
  C   C4        1.0  0.36286  0.21841  0.73058  1.0000
  C   C5        1.0  0.66241  0.60894  0.18929  1.0000
  C   C6        1.0  0.33759  0.39106  0.81070  1.0000
  C   C7        1.0  0.85625  0.50719  0.21411  1.0000
  C   C8        1.0  0.14375  0.49281  0.78589  1.0000
  C   C9        1.0  0.90157  0.32617  0.13629  1.0000
  C   C10       1.0  0.09843  0.67383  0.86371  1.0000
  N   N1        1.0  0.02518  0.56545  0.31368  1.0000
  N   N2        1.0  0.97482  0.43456  0.68633  1.0000
  N   N3        1.0  0.81848  0.83177  0.36749  1.0000
  N   N4        1.0  0.18152  0.16823  0.63251  1.0000
  O   O1        1.0  0.09450  0.25664  0.17166  1.0000
  O   O2        1.0  0.90551  0.74337  0.82834  1.0000
  O   O3        1.0  0.74289  0.26153  0.04520  1.0000
  O   O4        1.0  0.25711  0.73845  0.95480  1.0000
  O   O5        1.0  0.18016  0.79633  0.47982  1.0000
  O   O6        1.0  0.81984  0.20368  0.52018  1.0000
  O   O7        1.0  0.46900  0.88970  0.25665  1.0000
  O   O8        1.0  0.53099  0.11029  0.74335  1.0000
