data_image0
_chemical_formula_structural       Zn3H28C42N2O14
_chemical_formula_sum              "Zn3 H28 C42 N2 O14"
_cell_length_a       10.1722
_cell_length_b       10.5846
_cell_length_c       10.6014
_cell_angle_alpha    95.4669
_cell_angle_beta     111.711
_cell_angle_gamma    111.06

_space_group_name_H-M_alt    "P 1"
_space_group_IT_number       1

loop_
  _space_group_symop_operation_xyz
  'x, y, z'

loop_
  _atom_site_type_symbol
  _atom_site_label
  _atom_site_symmetry_multiplicity
  _atom_site_fract_x
  _atom_site_fract_y
  _atom_site_fract_z
  _atom_site_occupancy
  Zn  Zn1       1.0  0.00000  0.50000  0.00000  1.0000
  Zn  Zn2       1.0  0.60709  0.24980  0.93247  1.0000
  Zn  Zn3       1.0  0.39291  0.75020  0.06754  1.0000
  H   H1        1.0  0.70973  0.87234  0.87082  1.0000
  H   H2        1.0  0.29026  0.12765  0.12918  1.0000
  H   H3        1.0  0.36662  0.39379  0.64311  1.0000
  H   H4        1.0  0.63338  0.60621  0.35689  1.0000
  H   H5        1.0  0.35875  0.94914  0.81053  1.0000
  H   H6        1.0  0.64125  0.05086  0.18947  1.0000
  H   H7        1.0  0.58298  0.81240  0.45581  1.0000
  H   H8        1.0  0.41702  0.18760  0.54419  1.0000
  H   H9        1.0  0.69647  0.23526  0.65793  1.0000
  H   H10       1.0  0.30353  0.76474  0.34207  1.0000
  H   H11       1.0  0.09759  0.66689  0.37146  1.0000
  H   H12       1.0  0.90241  0.33311  0.62854  1.0000
  H   H13       1.0  0.78786  0.57974  0.59120  1.0000
  H   H14       1.0  0.21214  0.42026  0.40880  1.0000
  H   H15       1.0  0.75258  0.28328  0.36782  1.0000
  H   H16       1.0  0.24743  0.71673  0.63219  1.0000
  H   H17       1.0  0.06855  0.83283  0.67149  1.0000
  H   H18       1.0  0.93146  0.16717  0.32851  1.0000
  H   H19       1.0  0.83935  0.92081  0.50478  1.0000
  H   H20       1.0  0.16065  0.07919  0.49521  1.0000
  H   H21       1.0  0.81585  0.87412  0.65474  1.0000
  H   H22       1.0  0.18415  0.12587  0.34526  1.0000
  H   H23       1.0  0.35881  0.34072  0.88835  1.0000
  H   H24       1.0  0.64119  0.65928  0.11165  1.0000
  H   H25       1.0  0.12373  0.26097  0.07439  1.0000
  H   H26       1.0  0.87627  0.73903  0.92561  1.0000
  H   H27       1.0  0.06965  0.24139  0.75810  1.0000
  H   H28       1.0  0.93035  0.75861  0.24190  1.0000
  C   C1        1.0  0.58697  0.48587  0.63181  1.0000
  C   C2        1.0  0.41303  0.51414  0.36819  1.0000
  C   C3        1.0  0.81073  0.15345  0.94001  1.0000
  C   C4        1.0  0.18927  0.84656  0.05999  1.0000
  C   C5        1.0  0.90803  0.07393  0.96895  1.0000
  C   C6        1.0  0.09196  0.92607  0.03105  1.0000
  C   C7        1.0  0.83690  0.92690  0.92680  1.0000
  C   C8        1.0  0.16310  0.07311  0.07319  1.0000
  C   C9        1.0  0.42430  0.44027  0.57965  1.0000
  C   C10       1.0  0.57571  0.55974  0.42035  1.0000
  C   C11       1.0  0.28960  0.00950  0.79448  1.0000
  C   C12       1.0  0.71040  0.99050  0.20552  1.0000
  C   C13       1.0  0.54826  0.89521  0.47606  1.0000
  C   C14       1.0  0.45174  0.10479  0.52395  1.0000
  C   C15       1.0  0.65806  0.02875  0.56359  1.0000
  C   C16       1.0  0.34194  0.97125  0.43641  1.0000
  C   C17       1.0  0.04485  0.02856  0.70039  1.0000
  C   C18       1.0  0.95515  0.97143  0.29960  1.0000
  C   C19       1.0  0.60949  0.13275  0.58747  1.0000
  C   C20       1.0  0.39051  0.86725  0.41254  1.0000
  C   C21       1.0  0.05562  0.59490  0.42891  1.0000
  C   C22       1.0  0.94439  0.40511  0.57109  1.0000
  C   C23       1.0  0.66201  0.54616  0.55095  1.0000
  C   C24       1.0  0.33800  0.45384  0.44905  1.0000
  C   C25       1.0  0.86151  0.37749  0.42629  1.0000
  C   C26       1.0  0.13850  0.62251  0.57371  1.0000
  C   C27       1.0  0.12793  0.94598  0.71749  1.0000
  C   C28       1.0  0.87207  0.05401  0.28251  1.0000
  C   C29       1.0  0.87039  0.96301  0.61654  1.0000
  C   C30       1.0  0.12961  0.03698  0.38345  1.0000
  C   C31       1.0  0.91711  0.47218  0.35409  1.0000
  C   C32       1.0  0.08290  0.52783  0.64592  1.0000
  C   C33       1.0  0.28978  0.22856  0.83852  1.0000
  C   C34       1.0  0.71022  0.77144  0.16148  1.0000
  C   C35       1.0  0.07132  0.14677  0.04227  1.0000
  C   C36       1.0  0.92868  0.85323  0.95773  1.0000
  C   C37       1.0  0.67718  0.46131  0.76863  1.0000
  C   C38       1.0  0.32283  0.53869  0.23137  1.0000
  C   C39       1.0  0.83409  0.44015  0.19709  1.0000
  C   C40       1.0  0.16591  0.55986  0.80292  1.0000
  C   C41       1.0  0.12845  0.17283  0.76378  1.0000
  C   C42       1.0  0.87155  0.82716  0.23622  1.0000
  N   N1        1.0  0.36957  0.14902  0.85316  1.0000
  N   N2        1.0  0.63043  0.85098  0.14684  1.0000
  O   O1        1.0  0.59166  0.38593  0.82076  1.0000
  O   O2        1.0  0.40834  0.61407  0.17924  1.0000
  O   O3        1.0  0.66488  0.08789  0.90988  1.0000
  O   O4        1.0  0.33512  0.91211  0.09012  1.0000
  O   O5        1.0  0.82485  0.51222  0.81863  1.0000
  O   O6        1.0  0.17515  0.48778  0.18137  1.0000
  O   O7        1.0  0.87143  0.28339  0.94813  1.0000
  O   O8        1.0  0.12857  0.71661  0.05187  1.0000
  O   O9        1.0  0.81639  0.06750  0.63066  1.0000
  O   O10       1.0  0.18361  0.93250  0.36934  1.0000
  O   O11       1.0  0.70649  0.32642  0.13731  1.0000
  O   O12       1.0  0.29350  0.67358  0.86269  1.0000
  O   O13       1.0  0.89253  0.52352  0.13438  1.0000
  O   O14       1.0  0.10748  0.47648  0.86562  1.0000
