data_image0
_chemical_formula_structural       Zn4H48C68N4O20
_chemical_formula_sum              "Zn4 H48 C68 N4 O20"
_cell_length_a       10.3029
_cell_length_b       10.3009
_cell_length_c       15.344
_cell_angle_alpha    75.3814
_cell_angle_beta     75.3842
_cell_angle_gamma    84.6372

_space_group_name_H-M_alt    "P 1"
_space_group_IT_number       1

loop_
  _space_group_symop_operation_xyz
  'x, y, z'

loop_
  _atom_site_type_symbol
  _atom_site_label
  _atom_site_symmetry_multiplicity
  _atom_site_fract_x
  _atom_site_fract_y
  _atom_site_fract_z
  _atom_site_occupancy
  Zn  Zn1       1.0  0.48747  0.17818  0.96874  1.0000
  Zn  Zn2       1.0  0.82182  0.51252  0.53126  1.0000
  Zn  Zn3       1.0  0.51253  0.82182  0.03126  1.0000
  Zn  Zn4       1.0  0.17818  0.48748  0.46874  1.0000
  H   H1        1.0  0.60214  0.28547  0.09714  1.0000
  H   H2        1.0  0.71452  0.39786  0.40286  1.0000
  H   H3        1.0  0.39786  0.71453  0.90285  1.0000
  H   H4        1.0  0.28547  0.60214  0.59714  1.0000
  H   H5        1.0  0.76679  0.45851  0.07868  1.0000
  H   H6        1.0  0.54149  0.23320  0.42132  1.0000
  H   H7        1.0  0.23321  0.54149  0.92132  1.0000
  H   H8        1.0  0.45851  0.76680  0.57868  1.0000
  H   H9        1.0  0.75981  0.58024  0.78862  1.0000
  H   H10       1.0  0.41976  0.24019  0.71138  1.0000
  H   H11       1.0  0.24018  0.41976  0.21138  1.0000
  H   H12       1.0  0.58024  0.75981  0.28862  1.0000
  H   H13       1.0  0.58473  0.41263  0.82182  1.0000
  H   H14       1.0  0.58737  0.41527  0.67818  1.0000
  H   H15       1.0  0.41527  0.58737  0.17818  1.0000
  H   H16       1.0  0.41263  0.58473  0.32182  1.0000
  H   H17       1.0  0.05392  0.75738  0.64582  1.0000
  H   H18       1.0  0.24262  0.94608  0.85418  1.0000
  H   H19       1.0  0.94608  0.24262  0.35418  1.0000
  H   H20       1.0  0.75738  0.05392  0.14582  1.0000
  H   H21       1.0  0.06968  0.77361  0.92099  1.0000
  H   H22       1.0  0.22639  0.93032  0.57901  1.0000
  H   H23       1.0  0.93033  0.22639  0.07901  1.0000
  H   H24       1.0  0.77361  0.06968  0.42099  1.0000
  H   H25       1.0  0.84255  0.72359  0.93426  1.0000
  H   H26       1.0  0.27642  0.15746  0.56574  1.0000
  H   H27       1.0  0.15745  0.27641  0.06574  1.0000
  H   H28       1.0  0.72358  0.84254  0.43426  1.0000
  H   H29       1.0  0.96033  0.58851  0.95605  1.0000
  H   H30       1.0  0.41148  0.03966  0.54395  1.0000
  H   H31       1.0  0.03967  0.41149  0.04395  1.0000
  H   H32       1.0  0.58851  0.96034  0.45605  1.0000
  H   H33       1.0  0.21777  0.39238  0.72945  1.0000
  H   H34       1.0  0.60762  0.78222  0.77055  1.0000
  H   H35       1.0  0.78223  0.60762  0.27055  1.0000
  H   H36       1.0  0.39238  0.21778  0.22945  1.0000
  H   H37       1.0  0.06737  0.10639  0.98507  1.0000
  H   H38       1.0  0.89361  0.93262  0.51494  1.0000
  H   H39       1.0  0.93263  0.89361  0.01493  1.0000
  H   H40       1.0  0.10640  0.06738  0.48506  1.0000
  H   H41       1.0  0.84776  0.10664  0.94132  1.0000
  H   H42       1.0  0.89336  0.15224  0.55868  1.0000
  H   H43       1.0  0.15224  0.89336  0.05868  1.0000
  H   H44       1.0  0.10664  0.84776  0.44132  1.0000
  H   H45       1.0  0.81790  0.24773  0.79184  1.0000
  H   H46       1.0  0.75227  0.18211  0.70816  1.0000
  H   H47       1.0  0.18210  0.75227  0.20816  1.0000
  H   H48       1.0  0.24773  0.81789  0.29184  1.0000
  C   C1        1.0  0.63826  0.35524  0.03057  1.0000
  C   C2        1.0  0.64476  0.36174  0.46943  1.0000
  C   C3        1.0  0.36174  0.64476  0.96943  1.0000
  C   C4        1.0  0.35524  0.63826  0.53057  1.0000
  C   C5        1.0  0.73191  0.45055  0.01889  1.0000
  C   C6        1.0  0.54945  0.26809  0.48111  1.0000
  C   C7        1.0  0.26808  0.54945  0.98111  1.0000
  C   C8        1.0  0.45055  0.73192  0.51889  1.0000
  C   C9        1.0  0.72677  0.51922  0.85849  1.0000
  C   C10       1.0  0.48079  0.27324  0.64151  1.0000
  C   C11       1.0  0.27323  0.48078  0.14151  1.0000
  C   C12       1.0  0.51921  0.72676  0.35849  1.0000
  C   C13       1.0  0.63065  0.42459  0.87574  1.0000
  C   C14       1.0  0.57542  0.36935  0.62426  1.0000
  C   C15       1.0  0.36935  0.57541  0.12426  1.0000
  C   C16       1.0  0.42458  0.63065  0.37574  1.0000
  C   C17       1.0  0.78066  0.53227  0.93054  1.0000
  C   C18       1.0  0.46773  0.21934  0.56946  1.0000
  C   C19       1.0  0.21934  0.46773  0.06946  1.0000
  C   C20       1.0  0.53227  0.78066  0.43054  1.0000
  C   C21       1.0  0.04912  0.75593  0.78694  1.0000
  C   C22       1.0  0.24407  0.95088  0.71306  1.0000
  C   C23       1.0  0.95088  0.24407  0.21306  1.0000
  C   C24       1.0  0.75593  0.04912  0.28694  1.0000
  C   C25       1.0  0.09532  0.79986  0.69093  1.0000
  C   C26       1.0  0.20014  0.90468  0.80907  1.0000
  C   C27       1.0  0.90468  0.20014  0.30907  1.0000
  C   C28       1.0  0.79986  0.09532  0.19093  1.0000
  C   C29       1.0  0.10258  0.80780  0.84606  1.0000
  C   C30       1.0  0.19220  0.89742  0.65394  1.0000
  C   C31       1.0  0.89742  0.19219  0.15394  1.0000
  C   C32       1.0  0.80781  0.10258  0.34606  1.0000
  C   C33       1.0  0.88772  0.63105  0.91333  1.0000
  C   C34       1.0  0.36895  0.11228  0.58667  1.0000
  C   C35       1.0  0.11228  0.36895  0.08667  1.0000
  C   C36       1.0  0.63105  0.88772  0.41333  1.0000
  C   C37       1.0  0.15417  0.25142  0.86088  1.0000
  C   C38       1.0  0.74858  0.84583  0.63912  1.0000
  C   C39       1.0  0.84583  0.74858  0.13912  1.0000
  C   C40       1.0  0.25142  0.15417  0.36088  1.0000
  C   C41       1.0  0.13661  0.33003  0.77559  1.0000
  C   C42       1.0  0.66997  0.86338  0.72441  1.0000
  C   C43       1.0  0.86339  0.66997  0.22441  1.0000
  C   C44       1.0  0.33003  0.13662  0.27560  1.0000
  C   C45       1.0  0.05062  0.16947  0.92008  1.0000
  C   C46       1.0  0.83053  0.94937  0.57992  1.0000
  C   C47       1.0  0.94938  0.83053  0.07992  1.0000
  C   C48       1.0  0.16947  0.05062  0.42008  1.0000
  C   C49       1.0  0.92928  0.16933  0.89555  1.0000
  C   C50       1.0  0.83067  0.07073  0.60446  1.0000
  C   C51       1.0  0.07072  0.83067  0.10445  1.0000
  C   C52       1.0  0.16933  0.92927  0.39554  1.0000
  C   C53       1.0  0.91249  0.24804  0.81062  1.0000
  C   C54       1.0  0.75197  0.08751  0.68938  1.0000
  C   C55       1.0  0.08751  0.75196  0.18938  1.0000
  C   C56       1.0  0.24803  0.91249  0.31062  1.0000
  C   C57       1.0  0.01666  0.32691  0.74919  1.0000
  C   C58       1.0  0.67309  0.98335  0.75081  1.0000
  C   C59       1.0  0.98334  0.67309  0.25081  1.0000
  C   C60       1.0  0.32691  0.01665  0.24919  1.0000
  C   C61       1.0  0.00136  0.40332  0.65528  1.0000
  C   C62       1.0  0.59669  0.99864  0.84472  1.0000
  C   C63       1.0  0.99864  0.59668  0.34472  1.0000
  C   C64       1.0  0.40331  0.00136  0.15528  1.0000
  C   C65       1.0  0.28501  0.25265  0.88648  1.0000
  C   C66       1.0  0.74735  0.71499  0.61352  1.0000
  C   C67       1.0  0.71499  0.74735  0.11352  1.0000
  C   C68       1.0  0.25265  0.28501  0.38648  1.0000
  N   N1        1.0  0.58939  0.34110  0.95984  1.0000
  N   N2        1.0  0.65890  0.41061  0.54016  1.0000
  N   N3        1.0  0.41061  0.65890  0.04016  1.0000
  N   N4        1.0  0.34110  0.58939  0.45984  1.0000
  O   O1        1.0  0.37280  0.33423  0.83745  1.0000
  O   O2        1.0  0.66577  0.62719  0.66254  1.0000
  O   O3        1.0  0.62720  0.66577  0.16255  1.0000
  O   O4        1.0  0.33423  0.37281  0.33746  1.0000
  O   O5        1.0  0.30079  0.16463  0.96122  1.0000
  O   O6        1.0  0.83536  0.69921  0.53879  1.0000
  O   O7        1.0  0.69921  0.83537  0.03878  1.0000
  O   O8        1.0  0.16464  0.30078  0.46121  1.0000
  O   O9        1.0  0.09695  0.47799  0.60331  1.0000
  O   O10       1.0  0.52201  0.90305  0.89669  1.0000
  O   O11       1.0  0.90305  0.52201  0.39669  1.0000
  O   O12       1.0  0.47799  0.09695  0.10331  1.0000
  O   O13       1.0  0.89418  0.38785  0.63200  1.0000
  O   O14       1.0  0.61216  0.10584  0.86800  1.0000
  O   O15       1.0  0.10582  0.61215  0.36800  1.0000
  O   O16       1.0  0.38784  0.89416  0.13200  1.0000
  O   O17       1.0  0.95228  0.66070  0.81717  1.0000
  O   O18       1.0  0.33929  0.04772  0.68283  1.0000
  O   O19       1.0  0.04772  0.33930  0.18283  1.0000
  O   O20       1.0  0.66071  0.95228  0.31717  1.0000
