data_image0
_chemical_formula_structural       UH12C16O12
_chemical_formula_sum              "U1 H12 C16 O12"
_cell_length_a       5.47645
_cell_length_b       6.69397
_cell_length_c       13.5688
_cell_angle_alpha    84.2528
_cell_angle_beta     84.4212
_cell_angle_gamma    114.494

_space_group_name_H-M_alt    "P 1"
_space_group_IT_number       1

loop_
  _space_group_symop_operation_xyz
  'x, y, z'

loop_
  _atom_site_type_symbol
  _atom_site_label
  _atom_site_symmetry_multiplicity
  _atom_site_fract_x
  _atom_site_fract_y
  _atom_site_fract_z
  _atom_site_occupancy
  U   U1        1.0  0.50002  0.50001  0.50000  1.0000
  H   H1        1.0  0.91631  0.82624  0.25942  1.0000
  H   H2        1.0  0.08371  0.17378  0.74058  1.0000
  H   H3        1.0  0.11706  0.75558  0.46160  1.0000
  H   H4        1.0  0.88296  0.24443  0.53840  1.0000
  H   H5        1.0  0.00954  0.84142  0.55406  1.0000
  H   H6        1.0  0.99047  0.15859  0.44594  1.0000
  H   H7        1.0  0.85210  0.08061  0.03810  1.0000
  H   H8        1.0  0.14785  0.91937  0.96190  1.0000
  H   H9        1.0  0.68111  0.27635  0.92243  1.0000
  H   H10       1.0  0.31879  0.72359  0.07758  1.0000
  H   H11       1.0  0.47091  0.57625  0.16526  1.0000
  H   H12       1.0  0.52910  0.42375  0.83473  1.0000
  C   C1        1.0  0.65776  0.36073  0.20081  1.0000
  C   C2        1.0  0.34224  0.63927  0.79918  1.0000
  C   C3        1.0  0.76329  0.21665  0.16678  1.0000
  C   C4        1.0  0.23671  0.78335  0.83322  1.0000
  C   C5        1.0  0.76894  0.19030  0.06560  1.0000
  C   C6        1.0  0.23102  0.80966  0.93441  1.0000
  C   C7        1.0  0.66945  0.30148  0.00043  1.0000
  C   C8        1.0  0.33049  0.69847  0.99958  1.0000
  C   C9        1.0  0.55625  0.44184  0.03398  1.0000
  C   C10       1.0  0.44372  0.55814  0.96603  1.0000
  C   C11       1.0  0.55454  0.46902  0.13540  1.0000
  C   C12       1.0  0.44546  0.53098  0.86460  1.0000
  C   C13       1.0  0.63588  0.39729  0.30789  1.0000
  C   C14       1.0  0.36415  0.60273  0.69210  1.0000
  C   C15       1.0  0.85279  0.09158  0.24051  1.0000
  C   C16       1.0  0.14722  0.90843  0.75948  1.0000
  O   O1        1.0  0.38373  0.68564  0.43339  1.0000
  O   O2        1.0  0.61629  0.31437  0.56661  1.0000
  O   O3        1.0  0.42879  0.26480  0.36969  1.0000
  O   O4        1.0  0.57125  0.73523  0.63030  1.0000
  O   O5        1.0  0.80732  0.57454  0.33494  1.0000
  O   O6        1.0  0.19271  0.42547  0.66506  1.0000
  O   O7        1.0  0.86339  0.12819  0.32727  1.0000
  O   O8        1.0  0.13665  0.87182  0.67273  1.0000
  O   O9        1.0  0.91037  0.93486  0.20380  1.0000
  O   O10       1.0  0.08965  0.06516  0.79620  1.0000
  O   O11       1.0  0.96169  0.78057  0.49160  1.0000
  O   O12       1.0  0.03833  0.21945  0.50840  1.0000
