data_image0
_chemical_formula_structural       Zn4H48C64O32
_chemical_formula_sum              "Zn4 H48 C64 O32"
_cell_length_a       7.29317
_cell_length_b       11.9583
_cell_length_c       17.7746
_cell_angle_alpha    104.475
_cell_angle_beta     90
_cell_angle_gamma    90

_space_group_name_H-M_alt    "P 1"
_space_group_IT_number       1

loop_
  _space_group_symop_operation_xyz
  'x, y, z'

loop_
  _atom_site_type_symbol
  _atom_site_label
  _atom_site_symmetry_multiplicity
  _atom_site_fract_x
  _atom_site_fract_y
  _atom_site_fract_z
  _atom_site_occupancy
  Zn  Zn1       1.0  0.94935  0.04116  0.19799  1.0000
  Zn  Zn2       1.0  0.44935  0.95884  0.30201  1.0000
  Zn  Zn3       1.0  0.05065  0.95884  0.80201  1.0000
  Zn  Zn4       1.0  0.55065  0.04116  0.69799  1.0000
  H   H1        1.0  0.00589  0.49113  0.41520  1.0000
  H   H2        1.0  0.50589  0.50887  0.08480  1.0000
  H   H3        1.0  0.99411  0.50887  0.58480  1.0000
  H   H4        1.0  0.49410  0.49113  0.91520  1.0000
  H   H5        1.0  0.80514  0.64043  0.49740  1.0000
  H   H6        1.0  0.30514  0.35957  0.00260  1.0000
  H   H7        1.0  0.19486  0.35957  0.50260  1.0000
  H   H8        1.0  0.69486  0.64043  0.99740  1.0000
  H   H9        1.0  0.34492  0.50590  0.35011  1.0000
  H   H10       1.0  0.84492  0.49410  0.14989  1.0000
  H   H11       1.0  0.65508  0.49410  0.64989  1.0000
  H   H12       1.0  0.15508  0.50590  0.85011  1.0000
  H   H13       1.0  0.54420  0.35579  0.26983  1.0000
  H   H14       1.0  0.04420  0.64421  0.23018  1.0000
  H   H15       1.0  0.45580  0.64421  0.73018  1.0000
  H   H16       1.0  0.95580  0.35579  0.76982  1.0000
  H   H17       1.0  0.37444  0.64311  0.52480  1.0000
  H   H18       1.0  0.87443  0.35689  0.97520  1.0000
  H   H19       1.0  0.62556  0.35689  0.47520  1.0000
  H   H20       1.0  0.12557  0.64311  0.02480  1.0000
  H   H21       1.0  0.51373  0.75424  0.50366  1.0000
  H   H22       1.0  0.01373  0.24576  0.99634  1.0000
  H   H23       1.0  0.48627  0.24576  0.49634  1.0000
  H   H24       1.0  0.98627  0.75424  0.00366  1.0000
  H   H25       1.0  0.22101  0.80345  0.57801  1.0000
  H   H26       1.0  0.72101  0.19655  0.92199  1.0000
  H   H27       1.0  0.77899  0.19655  0.42199  1.0000
  H   H28       1.0  0.27899  0.80345  0.07801  1.0000
  H   H29       1.0  0.71577  0.95018  0.52112  1.0000
  H   H30       1.0  0.21577  0.04982  0.97888  1.0000
  H   H31       1.0  0.28423  0.04982  0.47888  1.0000
  H   H32       1.0  0.78423  0.95018  0.02112  1.0000
  H   H33       1.0  0.05632  0.74631  0.33921  1.0000
  H   H34       1.0  0.55632  0.25368  0.16079  1.0000
  H   H35       1.0  0.94368  0.25368  0.66079  1.0000
  H   H36       1.0  0.44368  0.74632  0.83921  1.0000
  H   H37       1.0  0.15091  0.27027  0.26263  1.0000
  H   H38       1.0  0.65091  0.72973  0.23737  1.0000
  H   H39       1.0  0.84909  0.72973  0.73737  1.0000
  H   H40       1.0  0.34909  0.27027  0.76263  1.0000
  H   H41       1.0  0.14526  0.85847  0.20167  1.0000
  H   H42       1.0  0.64526  0.14153  0.29833  1.0000
  H   H43       1.0  0.85474  0.14153  0.79833  1.0000
  H   H44       1.0  0.35474  0.85847  0.70167  1.0000
  H   H45       1.0  0.94220  0.84351  0.22611  1.0000
  H   H46       1.0  0.44220  0.15649  0.27389  1.0000
  H   H47       1.0  0.05780  0.15649  0.77389  1.0000
  H   H48       1.0  0.55780  0.84351  0.72611  1.0000
  C   C1        1.0  0.90283  0.32280  0.28637  1.0000
  C   C2        1.0  0.40283  0.67720  0.21363  1.0000
  C   C3        1.0  0.09717  0.67719  0.71363  1.0000
  C   C4        1.0  0.59717  0.32281  0.78637  1.0000
  C   C5        1.0  0.78811  0.41341  0.33702  1.0000
  C   C6        1.0  0.28811  0.58659  0.16298  1.0000
  C   C7        1.0  0.21189  0.58659  0.66298  1.0000
  C   C8        1.0  0.71189  0.41341  0.83702  1.0000
  C   C9        1.0  0.86046  0.49382  0.40173  1.0000
  C   C10       1.0  0.36046  0.50618  0.09827  1.0000
  C   C11       1.0  0.13954  0.50618  0.59827  1.0000
  C   C12       1.0  0.63954  0.49382  0.90173  1.0000
  C   C13       1.0  0.74719  0.57752  0.44776  1.0000
  C   C14       1.0  0.24719  0.42248  0.05224  1.0000
  C   C15       1.0  0.25281  0.42248  0.55224  1.0000
  C   C16       1.0  0.75281  0.57752  0.94776  1.0000
  C   C17       1.0  0.56106  0.58317  0.42943  1.0000
  C   C18       1.0  0.06106  0.41683  0.07057  1.0000
  C   C19       1.0  0.43894  0.41683  0.57057  1.0000
  C   C20       1.0  0.93894  0.58317  0.92943  1.0000
  C   C21       1.0  0.48905  0.50212  0.36517  1.0000
  C   C22       1.0  0.98905  0.49788  0.13483  1.0000
  C   C23       1.0  0.51095  0.49788  0.63483  1.0000
  C   C24       1.0  0.01095  0.50212  0.86517  1.0000
  C   C25       1.0  0.60117  0.41802  0.31973  1.0000
  C   C26       1.0  0.10117  0.58198  0.18027  1.0000
  C   C27       1.0  0.39883  0.58198  0.68027  1.0000
  C   C28       1.0  0.89883  0.41802  0.81973  1.0000
  C   C29       1.0  0.43764  0.67437  0.47739  1.0000
  C   C30       1.0  0.93764  0.32563  0.02262  1.0000
  C   C31       1.0  0.56236  0.32563  0.52262  1.0000
  C   C32       1.0  0.06236  0.67437  0.97738  1.0000
  C   C33       1.0  0.15320  0.76399  0.45541  1.0000
  C   C34       1.0  0.65320  0.23601  0.04459  1.0000
  C   C35       1.0  0.84680  0.23601  0.54459  1.0000
  C   C36       1.0  0.34680  0.76399  0.95541  1.0000
  C   C37       1.0  0.12312  0.81346  0.53414  1.0000
  C   C38       1.0  0.62312  0.18654  0.96587  1.0000
  C   C39       1.0  0.87689  0.18654  0.46586  1.0000
  C   C40       1.0  0.37688  0.81346  0.03413  1.0000
  C   C41       1.0  0.96466  0.88010  0.55742  1.0000
  C   C42       1.0  0.46466  0.11990  0.94258  1.0000
  C   C43       1.0  0.03534  0.11990  0.44258  1.0000
  C   C44       1.0  0.53534  0.88010  0.05742  1.0000
  C   C45       1.0  0.83669  0.89696  0.50289  1.0000
  C   C46       1.0  0.33669  0.10304  0.99711  1.0000
  C   C47       1.0  0.16331  0.10304  0.49711  1.0000
  C   C48       1.0  0.66331  0.89696  0.00289  1.0000
  C   C49       1.0  0.86966  0.84754  0.42369  1.0000
  C   C50       1.0  0.36966  0.15246  0.07631  1.0000
  C   C51       1.0  0.13034  0.15246  0.57631  1.0000
  C   C52       1.0  0.63034  0.84754  0.92369  1.0000
  C   C53       1.0  0.02716  0.78227  0.40034  1.0000
  C   C54       1.0  0.52716  0.21773  0.09966  1.0000
  C   C55       1.0  0.97284  0.21773  0.59966  1.0000
  C   C56       1.0  0.47284  0.78227  0.90034  1.0000
  C   C57       1.0  0.93995  0.93646  0.64171  1.0000
  C   C58       1.0  0.43995  0.06354  0.85829  1.0000
  C   C59       1.0  0.06005  0.06354  0.35829  1.0000
  C   C60       1.0  0.56005  0.93646  0.14171  1.0000
  C   C61       1.0  0.74106  0.86574  0.36277  1.0000
  C   C62       1.0  0.24106  0.13426  0.13723  1.0000
  C   C63       1.0  0.25894  0.13426  0.63723  1.0000
  C   C64       1.0  0.75894  0.86574  0.86277  1.0000
  O   O1        1.0  0.08194  0.33573  0.29967  1.0000
  O   O2        1.0  0.58194  0.66427  0.20033  1.0000
  O   O3        1.0  0.91806  0.66427  0.70033  1.0000
  O   O4        1.0  0.41806  0.33573  0.79967  1.0000
  O   O5        1.0  0.83533  0.24165  0.23617  1.0000
  O   O6        1.0  0.33533  0.75835  0.26383  1.0000
  O   O7        1.0  0.16467  0.75835  0.76383  1.0000
  O   O8        1.0  0.66467  0.24165  0.73617  1.0000
  O   O9        1.0  0.29880  0.69647  0.42588  1.0000
  O   O10       1.0  0.79880  0.30353  0.07412  1.0000
  O   O11       1.0  0.70120  0.30353  0.57412  1.0000
  O   O12       1.0  0.20120  0.69647  0.92588  1.0000
  O   O13       1.0  0.06527  0.91650  0.68736  1.0000
  O   O14       1.0  0.56527  0.08350  0.81264  1.0000
  O   O15       1.0  0.93473  0.08350  0.31264  1.0000
  O   O16       1.0  0.43473  0.91650  0.18736  1.0000
  O   O17       1.0  0.80536  0.00287  0.66444  1.0000
  O   O18       1.0  0.30536  0.99713  0.83556  1.0000
  O   O19       1.0  0.19464  0.99713  0.33556  1.0000
  O   O20       1.0  0.69464  0.00287  0.16444  1.0000
  O   O21       1.0  0.77779  0.82178  0.29112  1.0000
  O   O22       1.0  0.27779  0.17822  0.20888  1.0000
  O   O23       1.0  0.22221  0.17822  0.70888  1.0000
  O   O24       1.0  0.72221  0.82178  0.79112  1.0000
  O   O25       1.0  0.59750  0.92655  0.38553  1.0000
  O   O26       1.0  0.09750  0.07345  0.11447  1.0000
  O   O27       1.0  0.40250  0.07345  0.61447  1.0000
  O   O28       1.0  0.90250  0.92655  0.88553  1.0000
  O   O29       1.0  0.01812  0.86534  0.18538  1.0000
  O   O30       1.0  0.51812  0.13466  0.31462  1.0000
  O   O31       1.0  0.98188  0.13466  0.81462  1.0000
  O   O32       1.0  0.48188  0.86534  0.68538  1.0000
