data_image0
_chemical_formula_structural       Zn2H36C44N12O14
_chemical_formula_sum              "Zn2 H36 C44 N12 O14"
_cell_length_a       8.63255
_cell_length_b       9.99294
_cell_length_c       12.8686
_cell_angle_alpha    94.6971
_cell_angle_beta     101.511
_cell_angle_gamma    92.5171

_space_group_name_H-M_alt    "P 1"
_space_group_IT_number       1

loop_
  _space_group_symop_operation_xyz
  'x, y, z'

loop_
  _atom_site_type_symbol
  _atom_site_label
  _atom_site_symmetry_multiplicity
  _atom_site_fract_x
  _atom_site_fract_y
  _atom_site_fract_z
  _atom_site_occupancy
  Zn  Zn1       1.0  0.38032  0.24041  0.37832  1.0000
  Zn  Zn2       1.0  0.61968  0.75959  0.62168  1.0000
  H   H1        1.0  0.19266  0.59525  0.54513  1.0000
  H   H2        1.0  0.80734  0.40475  0.45486  1.0000
  H   H3        1.0  0.06236  0.72054  0.67890  1.0000
  H   H4        1.0  0.93764  0.27946  0.32109  1.0000
  H   H5        1.0  0.02936  0.35957  0.83533  1.0000
  H   H6        1.0  0.97064  0.64043  0.16468  1.0000
  H   H7        1.0  0.16464  0.23768  0.70477  1.0000
  H   H8        1.0  0.83536  0.76232  0.29523  1.0000
  H   H9        1.0  0.89049  0.69827  0.81136  1.0000
  H   H10       1.0  0.10951  0.30173  0.18864  1.0000
  H   H11       1.0  0.89749  0.55226  0.88478  1.0000
  H   H12       1.0  0.10251  0.44774  0.11522  1.0000
  H   H13       1.0  0.78864  0.73148  0.95297  1.0000
  H   H14       1.0  0.21136  0.26852  0.04703  1.0000
  H   H15       1.0  0.93199  0.03814  0.21226  1.0000
  H   H16       1.0  0.06801  0.96186  0.78774  1.0000
  H   H17       1.0  0.28667  0.84176  0.07302  1.0000
  H   H18       1.0  0.71333  0.15824  0.92698  1.0000
  H   H19       1.0  0.55560  0.25634  0.15860  1.0000
  H   H20       1.0  0.44440  0.74366  0.84140  1.0000
  H   H21       1.0  0.59586  0.22323  0.61842  1.0000
  H   H22       1.0  0.40414  0.77677  0.38158  1.0000
  H   H23       1.0  0.63664  0.40550  0.02582  1.0000
  H   H24       1.0  0.36336  0.59450  0.97418  1.0000
  H   H25       1.0  0.64763  0.58258  0.06460  1.0000
  H   H26       1.0  0.35237  0.41742  0.93540  1.0000
  H   H27       1.0  0.67452  0.07593  0.31857  1.0000
  H   H28       1.0  0.32548  0.92408  0.68143  1.0000
  H   H29       1.0  0.05411  0.12695  0.45491  1.0000
  H   H30       1.0  0.94589  0.87305  0.54509  1.0000
  H   H31       1.0  0.94040  0.98580  0.37890  1.0000
  H   H32       1.0  0.05960  0.01420  0.62110  1.0000
  H   H33       1.0  0.34223  0.54466  0.33155  1.0000
  H   H34       1.0  0.65777  0.45534  0.66845  1.0000
  H   H35       1.0  0.53108  0.99110  0.16281  1.0000
  H   H36       1.0  0.46892  0.00890  0.83719  1.0000
  C   C1        1.0  0.26490  0.33198  0.54106  1.0000
  C   C2        1.0  0.73510  0.66802  0.45894  1.0000
  C   C3        1.0  0.18850  0.40998  0.61886  1.0000
  C   C4        1.0  0.81150  0.59002  0.38114  1.0000
  C   C5        1.0  0.15909  0.54602  0.61052  1.0000
  C   C6        1.0  0.84091  0.45398  0.38947  1.0000
  C   C7        1.0  0.08699  0.61495  0.68466  1.0000
  C   C8        1.0  0.91301  0.38505  0.31534  1.0000
  C   C9        1.0  0.04192  0.54858  0.76683  1.0000
  C   C10       1.0  0.95808  0.45142  0.23317  1.0000
  C   C11       1.0  0.06787  0.41207  0.77307  1.0000
  C   C12       1.0  0.93213  0.58793  0.22693  1.0000
  C   C13       1.0  0.14194  0.34347  0.70022  1.0000
  C   C14       1.0  0.85806  0.65653  0.29978  1.0000
  C   C15       1.0  0.96734  0.62268  0.84790  1.0000
  C   C16       1.0  0.03266  0.37732  0.15210  1.0000
  C   C17       1.0  0.04327  0.77611  0.00400  1.0000
  C   C18       1.0  0.95673  0.22389  0.99600  1.0000
  C   C19       1.0  0.88408  0.78966  0.00829  1.0000
  C   C20       1.0  0.11592  0.21033  0.99171  1.0000
  C   C21       1.0  0.67297  0.89412  0.08680  1.0000
  C   C22       1.0  0.32703  0.10588  0.91320  1.0000
  C   C23       1.0  0.84389  0.88285  0.08459  1.0000
  C   C24       1.0  0.15612  0.11715  0.91541  1.0000
  C   C25       1.0  0.96210  0.96221  0.15555  1.0000
  C   C26       1.0  0.03790  0.03778  0.84445  1.0000
  C   C27       1.0  0.12170  0.94716  0.15189  1.0000
  C   C28       1.0  0.87830  0.05284  0.84811  1.0000
  C   C29       1.0  0.16287  0.85331  0.07715  1.0000
  C   C30       1.0  0.83714  0.14669  0.92285  1.0000
  C   C31       1.0  0.24733  0.03811  0.22468  1.0000
  C   C32       1.0  0.75267  0.96189  0.77533  1.0000
  C   C33       1.0  0.50995  0.34842  0.18754  1.0000
  C   C34       1.0  0.49005  0.65158  0.81246  1.0000
  C   C35       1.0  0.65434  0.18404  0.55625  1.0000
  C   C36       1.0  0.34566  0.81596  0.44375  1.0000
  C   C37       1.0  0.56918  0.49080  0.04584  1.0000
  C   C38       1.0  0.43082  0.50920  0.95416  1.0000
  C   C39       1.0  0.68881  0.10914  0.40240  1.0000
  C   C40       1.0  0.31119  0.89086  0.59760  1.0000
  C   C41       1.0  0.96709  0.04439  0.45667  1.0000
  C   C42       1.0  0.03291  0.95561  0.54334  1.0000
  C   C43       1.0  0.40139  0.49857  0.27216  1.0000
  C   C44       1.0  0.59861  0.50143  0.72784  1.0000
  N   N1        1.0  0.44123  0.36731  0.27154  1.0000
  N   N2        1.0  0.55877  0.63269  0.72846  1.0000
  N   N3        1.0  0.44100  0.56090  0.19346  1.0000
  N   N4        1.0  0.55900  0.43910  0.80654  1.0000
  N   N5        1.0  0.51056  0.46383  0.14078  1.0000
  N   N6        1.0  0.48944  0.53617  0.85922  1.0000
  N   N7        1.0  0.80108  0.14447  0.57430  1.0000
  N   N8        1.0  0.19892  0.85553  0.42570  1.0000
  N   N9        1.0  0.58119  0.16541  0.45090  1.0000
  N   N10       1.0  0.41881  0.83459  0.54910  1.0000
  N   N11       1.0  0.82004  0.09724  0.47549  1.0000
  N   N12       1.0  0.17996  0.90276  0.52451  1.0000
  O   O1        1.0  0.29138  0.21013  0.55178  1.0000
  O   O2        1.0  0.70862  0.78987  0.44822  1.0000
  O   O3        1.0  0.29944  0.39240  0.46260  1.0000
  O   O4        1.0  0.70056  0.60760  0.53740  1.0000
  O   O5        1.0  0.09237  0.69126  0.92987  1.0000
  O   O6        1.0  0.90763  0.30874  0.07013  1.0000
  O   O7        1.0  0.56577  0.81998  0.03007  1.0000
  O   O8        1.0  0.43423  0.18002  0.96993  1.0000
  O   O9        1.0  0.64705  0.99220  0.15743  1.0000
  O   O10       1.0  0.35295  0.00780  0.84257  1.0000
  O   O11       1.0  0.39114  0.03271  0.21899  1.0000
  O   O12       1.0  0.60886  0.96728  0.78101  1.0000
  O   O13       1.0  0.20021  0.12323  0.29097  1.0000
  O   O14       1.0  0.79979  0.87677  0.70903  1.0000
