data_image0
_chemical_formula_structural       Cd2H32C60N8Cl4O8
_chemical_formula_sum              "Cd2 H32 C60 N8 Cl4 O8"
_cell_length_a       9.20238
_cell_length_b       10.8071
_cell_length_c       14.761
_cell_angle_alpha    87.9066
_cell_angle_beta     72.6195
_cell_angle_gamma    70.1467

_space_group_name_H-M_alt    "P 1"
_space_group_IT_number       1

loop_
  _space_group_symop_operation_xyz
  'x, y, z'

loop_
  _atom_site_type_symbol
  _atom_site_label
  _atom_site_symmetry_multiplicity
  _atom_site_fract_x
  _atom_site_fract_y
  _atom_site_fract_z
  _atom_site_occupancy
  Cd  Cd1       1.0  0.35784  0.24002  0.26341  1.0000
  Cd  Cd2       1.0  0.64216  0.75998  0.73659  1.0000
  H   H1        1.0  0.60859  0.24562  0.39435  1.0000
  H   H2        1.0  0.39141  0.75439  0.60565  1.0000
  H   H3        1.0  0.82877  0.08889  0.45173  1.0000
  H   H4        1.0  0.17123  0.91111  0.54827  1.0000
  H   H5        1.0  0.97318  0.28276  0.15152  1.0000
  H   H6        1.0  0.02682  0.71724  0.84848  1.0000
  H   H7        1.0  0.75859  0.18059  0.21551  1.0000
  H   H8        1.0  0.24141  0.81940  0.78449  1.0000
  H   H9        1.0  0.08834  0.07963  0.27964  1.0000
  H   H10       1.0  0.91166  0.92037  0.72036  1.0000
  H   H11       1.0  0.86676  0.84679  0.44578  1.0000
  H   H12       1.0  0.13324  0.15321  0.55422  1.0000
  H   H13       1.0  0.01929  0.46386  0.22969  1.0000
  H   H14       1.0  0.98071  0.53614  0.77031  1.0000
  H   H15       1.0  0.89671  0.50105  0.07953  1.0000
  H   H16       1.0  0.10329  0.49895  0.92047  1.0000
  H   H17       1.0  0.08179  0.84869  0.28589  1.0000
  H   H18       1.0  0.91821  0.15131  0.71410  1.0000
  H   H19       1.0  0.91831  0.68396  0.16298  1.0000
  H   H20       1.0  0.08170  0.31604  0.83702  1.0000
  H   H21       1.0  0.68696  0.68549  0.03491  1.0000
  H   H22       1.0  0.31304  0.31451  0.96509  1.0000
  H   H23       1.0  0.11901  0.79376  0.08332  1.0000
  H   H24       1.0  0.88100  0.20624  0.91668  1.0000
  H   H25       1.0  0.31050  0.66812  0.32221  1.0000
  H   H26       1.0  0.68951  0.33188  0.67778  1.0000
  H   H27       1.0  0.57179  0.60188  0.36168  1.0000
  H   H28       1.0  0.42821  0.39813  0.63832  1.0000
  H   H29       1.0  0.77577  0.66693  0.40574  1.0000
  H   H30       1.0  0.22423  0.33307  0.59426  1.0000
  H   H31       1.0  0.40112  0.79193  0.03595  1.0000
  H   H32       1.0  0.59888  0.20807  0.96405  1.0000
  C   C1        1.0  0.63370  0.90376  0.92762  1.0000
  C   C2        1.0  0.36629  0.09625  0.07238  1.0000
  C   C3        1.0  0.03899  0.39890  0.42496  1.0000
  C   C4        1.0  0.96101  0.60110  0.57503  1.0000
  C   C5        1.0  0.54046  0.03907  0.07965  1.0000
  C   C6        1.0  0.45954  0.96093  0.92035  1.0000
  C   C7        1.0  0.88024  0.44920  0.48776  1.0000
  C   C8        1.0  0.11976  0.55080  0.51224  1.0000
  C   C9        1.0  0.66294  0.95022  0.00586  1.0000
  C   C10       1.0  0.33705  0.04978  0.99414  1.0000
  C   C11       1.0  0.83188  0.54865  0.56075  1.0000
  C   C12       1.0  0.16812  0.45135  0.43925  1.0000
  C   C13       1.0  0.62809  0.14028  0.39342  1.0000
  C   C14       1.0  0.37190  0.85973  0.60658  1.0000
  C   C15       1.0  0.36533  0.51558  0.15115  1.0000
  C   C16       1.0  0.63467  0.48442  0.84885  1.0000
  C   C17       1.0  0.75183  0.05158  0.42526  1.0000
  C   C18       1.0  0.24817  0.94842  0.57475  1.0000
  C   C19       1.0  0.54264  0.97385  0.36082  1.0000
  C   C20       1.0  0.45736  0.02615  0.63918  1.0000
  C   C21       1.0  0.84928  0.33443  0.15045  1.0000
  C   C22       1.0  0.15072  0.66557  0.84955  1.0000
  C   C23       1.0  0.72872  0.27767  0.18737  1.0000
  C   C24       1.0  0.27128  0.72233  0.81263  1.0000
  C   C25       1.0  0.53203  0.45309  0.15072  1.0000
  C   C26       1.0  0.46797  0.54690  0.84928  1.0000
  C   C27       1.0  0.66689  0.87596  0.38881  1.0000
  C   C28       1.0  0.33310  0.12404  0.61119  1.0000
  C   C29       1.0  0.42302  0.93561  0.33515  1.0000
  C   C30       1.0  0.57699  0.06439  0.66485  1.0000
  C   C31       1.0  0.18358  0.99887  0.29677  1.0000
  C   C32       1.0  0.81642  0.00113  0.70323  1.0000
  C   C33       1.0  0.77247  0.91881  0.42165  1.0000
  C   C34       1.0  0.22753  0.08119  0.57835  1.0000
  C   C35       1.0  0.43332  0.80119  0.33776  1.0000
  C   C36       1.0  0.56668  0.19881  0.66224  1.0000
  C   C37       1.0  0.32098  0.63835  0.10936  1.0000
  C   C38       1.0  0.67902  0.36165  0.89064  1.0000
  C   C39       1.0  0.10214  0.51561  0.19510  1.0000
  C   C40       1.0  0.89786  0.48439  0.80490  1.0000
  C   C41       1.0  0.80706  0.45409  0.11066  1.0000
  C   C42       1.0  0.19295  0.54590  0.88934  1.0000
  C   C43       1.0  0.18120  0.86931  0.29993  1.0000
  C   C44       1.0  0.81881  0.13069  0.70007  1.0000
  C   C45       1.0  0.64610  0.51690  0.10908  1.0000
  C   C46       1.0  0.35390  0.48310  0.89092  1.0000
  C   C47       1.0  0.04627  0.63819  0.15742  1.0000
  C   C48       1.0  0.95374  0.36180  0.84258  1.0000
  C   C49       1.0  0.59657  0.63970  0.06724  1.0000
  C   C50       1.0  0.40343  0.36030  0.93276  1.0000
  C   C51       1.0  0.15674  0.69881  0.11364  1.0000
  C   C52       1.0  0.84326  0.30118  0.88636  1.0000
  C   C53       1.0  0.30708  0.77003  0.31957  1.0000
  C   C54       1.0  0.69292  0.22997  0.68043  1.0000
  C   C55       1.0  0.56555  0.70445  0.36093  1.0000
  C   C56       1.0  0.43445  0.29555  0.63907  1.0000
  C   C57       1.0  0.67797  0.74066  0.38553  1.0000
  C   C58       1.0  0.32203  0.25934  0.61447  1.0000
  C   C59       1.0  0.43983  0.69802  0.06720  1.0000
  C   C60       1.0  0.56017  0.30198  0.93280  1.0000
  N   N1        1.0  0.52795  0.10281  0.36132  1.0000
  N   N2        1.0  0.47204  0.89719  0.63868  1.0000
  N   N3        1.0  0.30105  0.03076  0.31339  1.0000
  N   N4        1.0  0.69895  0.96924  0.68661  1.0000
  N   N5        1.0  0.57522  0.33534  0.18891  1.0000
  N   N6        1.0  0.42478  0.66466  0.81109  1.0000
  N   N7        1.0  0.25623  0.45622  0.19194  1.0000
  N   N8        1.0  0.74378  0.54378  0.80806  1.0000
  Cl  Cl1       1.0  0.73373  0.39408  0.47006  1.0000
  Cl  Cl2       1.0  0.26627  0.60592  0.52994  1.0000
  Cl  Cl3       1.0  0.85808  0.89311  0.01491  1.0000
  Cl  Cl4       1.0  0.14191  0.10690  0.98509  1.0000
  O   O1        1.0  0.56674  0.07564  0.15136  1.0000
  O   O2        1.0  0.43325  0.92437  0.84864  1.0000
  O   O3        1.0  0.08189  0.31406  0.35681  1.0000
  O   O4        1.0  0.91810  0.68594  0.64319  1.0000
  O   O5        1.0  0.68833  0.59866  0.61449  1.0000
  O   O6        1.0  0.31167  0.40134  0.38551  1.0000
  O   O7        1.0  0.73882  0.81805  0.86371  1.0000
  O   O8        1.0  0.26117  0.18196  0.13629  1.0000
