data_image0
_chemical_formula_structural       K12H24C24N28O24
_chemical_formula_sum              "K12 H24 C24 N28 O24"
_cell_length_a       7.09991
_cell_length_b       10.2953
_cell_length_c       17.115
_cell_angle_alpha    90
_cell_angle_beta     90
_cell_angle_gamma    90.4757

_space_group_name_H-M_alt    "P 1"
_space_group_IT_number       1

loop_
  _space_group_symop_operation_xyz
  'x, y, z'

loop_
  _atom_site_type_symbol
  _atom_site_label
  _atom_site_symmetry_multiplicity
  _atom_site_fract_x
  _atom_site_fract_y
  _atom_site_fract_z
  _atom_site_occupancy
  K   K1        1.0  0.27090  0.62612  0.91904  1.0000
  K   K2        1.0  0.22910  0.37388  0.41904  1.0000
  K   K3        1.0  0.72910  0.37388  0.08096  1.0000
  K   K4        1.0  0.77090  0.62612  0.58096  1.0000
  K   K5        1.0  0.25659  0.98242  0.99080  1.0000
  K   K6        1.0  0.24341  0.01758  0.49080  1.0000
  K   K7        1.0  0.74341  0.01758  0.00920  1.0000
  K   K8        1.0  0.75659  0.98242  0.50920  1.0000
  K   K9        1.0  0.32990  0.77828  0.66801  1.0000
  K   K10       1.0  0.17010  0.22172  0.16801  1.0000
  K   K11       1.0  0.67010  0.22172  0.33199  1.0000
  K   K12       1.0  0.82990  0.77830  0.83199  1.0000
  H   H1        1.0  0.37028  0.50068  0.09255  1.0000
  H   H2        1.0  0.12972  0.49932  0.59255  1.0000
  H   H3        1.0  0.62972  0.49932  0.90745  1.0000
  H   H4        1.0  0.87027  0.50068  0.40745  1.0000
  H   H5        1.0  0.17850  0.47143  0.05100  1.0000
  H   H6        1.0  0.32150  0.52857  0.55100  1.0000
  H   H7        1.0  0.82150  0.52857  0.94900  1.0000
  H   H8        1.0  0.67850  0.47143  0.44900  1.0000
  H   H9        1.0  0.60182  0.70216  0.98980  1.0000
  H   H10       1.0  0.89818  0.29784  0.48980  1.0000
  H   H11       1.0  0.39818  0.29784  0.01020  1.0000
  H   H12       1.0  0.10182  0.70216  0.51020  1.0000
  H   H13       1.0  0.50025  0.77264  0.06127  1.0000
  H   H14       1.0  0.99975  0.22736  0.56127  1.0000
  H   H15       1.0  0.49975  0.22736  0.93873  1.0000
  H   H16       1.0  0.00025  0.77264  0.43873  1.0000
  H   H17       1.0  0.16996  0.93307  0.81007  1.0000
  H   H18       1.0  0.33004  0.06693  0.31007  1.0000
  H   H19       1.0  0.83004  0.06694  0.18993  1.0000
  H   H20       1.0  0.66996  0.93306  0.68993  1.0000
  H   H21       1.0  0.37214  0.89005  0.83675  1.0000
  H   H22       1.0  0.12786  0.10996  0.33675  1.0000
  H   H23       1.0  0.62786  0.10996  0.16325  1.0000
  H   H24       1.0  0.87214  0.89005  0.66325  1.0000
  C   C1        1.0  0.01440  0.39474  0.84116  1.0000
  C   C2        1.0  0.48561  0.60526  0.34116  1.0000
  C   C3        1.0  0.98561  0.60526  0.15884  1.0000
  C   C4        1.0  0.51439  0.39474  0.65884  1.0000
  C   C5        1.0  0.01661  0.24741  0.94399  1.0000
  C   C6        1.0  0.48339  0.75259  0.44399  1.0000
  C   C7        1.0  0.98339  0.75259  0.05601  1.0000
  C   C8        1.0  0.51661  0.24740  0.55601  1.0000
  C   C9        1.0  0.03593  0.16271  0.81799  1.0000
  C   C10       1.0  0.46407  0.83729  0.31800  1.0000
  C   C11       1.0  0.96407  0.83729  0.18201  1.0000
  C   C12       1.0  0.53593  0.16270  0.68201  1.0000
  C   C13       1.0  0.06093  0.08849  0.68941  1.0000
  C   C14       1.0  0.43907  0.91152  0.18941  1.0000
  C   C15       1.0  0.93907  0.91152  0.31058  1.0000
  C   C16       1.0  0.56093  0.08848  0.81059  1.0000
  C   C17       1.0  0.03601  0.31268  0.70792  1.0000
  C   C18       1.0  0.46399  0.68732  0.20792  1.0000
  C   C19       1.0  0.96399  0.68732  0.29208  1.0000
  C   C20       1.0  0.53601  0.31268  0.79208  1.0000
  C   C21       1.0  0.01541  0.53471  0.73428  1.0000
  C   C22       1.0  0.48459  0.46529  0.23428  1.0000
  C   C23       1.0  0.98459  0.46529  0.26572  1.0000
  C   C24       1.0  0.51541  0.53471  0.76572  1.0000
  N   N1        1.0  0.02859  0.28995  0.78883  1.0000
  N   N2        1.0  0.47141  0.71005  0.28883  1.0000
  N   N3        1.0  0.97141  0.71005  0.21117  1.0000
  N   N4        1.0  0.52859  0.28995  0.71117  1.0000
  N   N5        1.0  0.00950  0.37339  0.91776  1.0000
  N   N6        1.0  0.49051  0.62660  0.41776  1.0000
  N   N7        1.0  0.99050  0.62660  0.08224  1.0000
  N   N8        1.0  0.50950  0.37339  0.58224  1.0000
  N   N9        1.0  0.02887  0.14226  0.89439  1.0000
  N   N10       1.0  0.47113  0.85774  0.39439  1.0000
  N   N11       1.0  0.97113  0.85774  0.10561  1.0000
  N   N12       1.0  0.52887  0.14226  0.60561  1.0000
  N   N13       1.0  0.05164  0.06369  0.76811  1.0000
  N   N14       1.0  0.44836  0.93631  0.26811  1.0000
  N   N15       1.0  0.94836  0.93631  0.23189  1.0000
  N   N16       1.0  0.55163  0.06368  0.73189  1.0000
  N   N17       1.0  0.05143  0.21215  0.65948  1.0000
  N   N18       1.0  0.44857  0.78785  0.15948  1.0000
  N   N19       1.0  0.94857  0.78786  0.34051  1.0000
  N   N20       1.0  0.55143  0.21214  0.84051  1.0000
  N   N21       1.0  0.02793  0.43371  0.68118  1.0000
  N   N22       1.0  0.47207  0.56629  0.18117  1.0000
  N   N23       1.0  0.97207  0.56629  0.31883  1.0000
  N   N24       1.0  0.52794  0.43371  0.81883  1.0000
  N   N25       1.0  0.00763  0.51528  0.81355  1.0000
  N   N26       1.0  0.49237  0.48472  0.31355  1.0000
  N   N27       1.0  0.99237  0.48472  0.18645  1.0000
  N   N28       1.0  0.50763  0.51527  0.68645  1.0000
  O   O1        1.0  0.00964  0.64907  0.70830  1.0000
  O   O2        1.0  0.49036  0.35093  0.20829  1.0000
  O   O3        1.0  0.99036  0.35093  0.29171  1.0000
  O   O4        1.0  0.50964  0.64907  0.79170  1.0000
  O   O5        1.0  0.00936  0.22450  0.01666  1.0000
  O   O6        1.0  0.49064  0.77550  0.51666  1.0000
  O   O7        1.0  0.99063  0.77549  0.98334  1.0000
  O   O8        1.0  0.50937  0.22450  0.48334  1.0000
  O   O9        1.0  0.07711  0.99393  0.64228  1.0000
  O   O10       1.0  0.42289  0.00608  0.14229  1.0000
  O   O11       1.0  0.92289  0.00608  0.35771  1.0000
  O   O12       1.0  0.57711  0.99392  0.85771  1.0000
  O   O13       1.0  0.31368  0.45320  0.04703  1.0000
  O   O14       1.0  0.18632  0.54680  0.54703  1.0000
  O   O15       1.0  0.68632  0.54680  0.95297  1.0000
  O   O16       1.0  0.81368  0.45320  0.45297  1.0000
  O   O17       1.0  0.52902  0.78043  0.00381  1.0000
  O   O18       1.0  0.97098  0.21957  0.50381  1.0000
  O   O19       1.0  0.47098  0.21957  0.99619  1.0000
  O   O20       1.0  0.02902  0.78043  0.49619  1.0000
  O   O21       1.0  0.24049  0.85862  0.83357  1.0000
  O   O22       1.0  0.25951  0.14138  0.33357  1.0000
  O   O23       1.0  0.75951  0.14138  0.16643  1.0000
  O   O24       1.0  0.74050  0.85862  0.66643  1.0000
