data_image0
_chemical_formula_structural       Rb12H24C24N28O24
_chemical_formula_sum              "Rb12 H24 C24 N28 O24"
_cell_length_a       7.38375
_cell_length_b       10.5102
_cell_length_c       17.436
_cell_angle_alpha    90
_cell_angle_beta     90
_cell_angle_gamma    90

_space_group_name_H-M_alt    "P 1"
_space_group_IT_number       1

loop_
  _space_group_symop_operation_xyz
  'x, y, z'

loop_
  _atom_site_type_symbol
  _atom_site_label
  _atom_site_symmetry_multiplicity
  _atom_site_fract_x
  _atom_site_fract_y
  _atom_site_fract_z
  _atom_site_occupancy
  Rb  Rb1       1.0  0.75874  0.87980  0.08105  1.0000
  Rb  Rb2       1.0  0.74126  0.12020  0.58104  1.0000
  Rb  Rb3       1.0  0.24126  0.12020  0.91895  1.0000
  Rb  Rb4       1.0  0.25874  0.87980  0.41895  1.0000
  Rb  Rb5       1.0  0.81014  0.72275  0.33568  1.0000
  Rb  Rb6       1.0  0.68986  0.27725  0.83568  1.0000
  Rb  Rb7       1.0  0.18986  0.27725  0.66432  1.0000
  Rb  Rb8       1.0  0.31014  0.72275  0.16432  1.0000
  Rb  Rb9       1.0  0.74112  0.48336  0.50949  1.0000
  Rb  Rb10      1.0  0.75888  0.51664  0.00949  1.0000
  Rb  Rb11      1.0  0.25888  0.51664  0.49051  1.0000
  Rb  Rb12      1.0  0.24112  0.48336  0.99051  1.0000
  H   H1        1.0  0.65476  0.56460  0.19367  1.0000
  H   H2        1.0  0.84524  0.43540  0.69367  1.0000
  H   H3        1.0  0.34524  0.43540  0.80633  1.0000
  H   H4        1.0  0.15476  0.56460  0.30633  1.0000
  H   H5        1.0  0.85111  0.60203  0.16743  1.0000
  H   H6        1.0  0.64889  0.39797  0.66743  1.0000
  H   H7        1.0  0.14889  0.39796  0.83257  1.0000
  H   H8        1.0  0.35111  0.60203  0.33257  1.0000
  H   H9        1.0  0.01385  0.73508  0.93922  1.0000
  H   H10       1.0  0.48615  0.26492  0.43922  1.0000
  H   H11       1.0  0.98615  0.26492  0.06078  1.0000
  H   H12       1.0  0.51385  0.73508  0.56078  1.0000
  H   H13       1.0  0.10480  0.80888  0.00961  1.0000
  H   H14       1.0  0.39520  0.19112  0.50961  1.0000
  H   H15       1.0  0.89521  0.19111  0.99039  1.0000
  H   H16       1.0  0.60479  0.80889  0.49039  1.0000
  H   H17       1.0  0.68656  0.01253  0.93923  1.0000
  H   H18       1.0  0.81344  0.98747  0.43923  1.0000
  H   H19       1.0  0.31344  0.98747  0.06077  1.0000
  H   H20       1.0  0.18656  0.01253  0.56077  1.0000
  H   H21       1.0  0.87739  0.99654  0.90248  1.0000
  H   H22       1.0  0.62261  0.00346  0.40248  1.0000
  H   H23       1.0  0.12261  0.00346  0.09752  1.0000
  H   H24       1.0  0.37739  0.99654  0.59752  1.0000
  C   C1        1.0  0.50064  0.11041  0.16132  1.0000
  C   C2        1.0  0.99936  0.88958  0.66132  1.0000
  C   C3        1.0  0.49936  0.88959  0.83868  1.0000
  C   C4        1.0  0.00065  0.11042  0.33868  1.0000
  C   C5        1.0  0.50068  0.97146  0.26526  1.0000
  C   C6        1.0  0.99932  0.02854  0.76526  1.0000
  C   C7        1.0  0.49932  0.02854  0.73474  1.0000
  C   C8        1.0  0.00068  0.97146  0.23474  1.0000
  C   C9        1.0  0.52073  0.18890  0.29246  1.0000
  C   C10       1.0  0.97927  0.81110  0.79246  1.0000
  C   C11       1.0  0.47927  0.81110  0.70754  1.0000
  C   C12       1.0  0.02073  0.18890  0.20754  1.0000
  C   C13       1.0  0.53849  0.40873  0.31187  1.0000
  C   C14       1.0  0.96151  0.59127  0.81188  1.0000
  C   C15       1.0  0.46151  0.59127  0.68813  1.0000
  C   C16       1.0  0.03849  0.40873  0.18812  1.0000
  C   C17       1.0  0.52304  0.33749  0.18513  1.0000
  C   C18       1.0  0.97696  0.66251  0.68513  1.0000
  C   C19       1.0  0.47696  0.66251  0.81487  1.0000
  C   C20       1.0  0.02304  0.33750  0.31487  1.0000
  C   C21       1.0  0.51026  0.25580  0.06083  1.0000
  C   C22       1.0  0.98974  0.74420  0.56083  1.0000
  C   C23       1.0  0.48974  0.74420  0.93917  1.0000
  C   C24       1.0  0.01026  0.25580  0.43917  1.0000
  N   N1        1.0  0.51505  0.21239  0.21313  1.0000
  N   N2        1.0  0.98495  0.78761  0.71313  1.0000
  N   N3        1.0  0.48495  0.78761  0.78687  1.0000
  N   N4        1.0  0.01505  0.21239  0.28687  1.0000
  N   N5        1.0  0.49153  0.99213  0.18769  1.0000
  N   N6        1.0  0.00848  0.00787  0.68769  1.0000
  N   N7        1.0  0.50847  0.00787  0.81231  1.0000
  N   N8        1.0  0.99152  0.99213  0.31231  1.0000
  N   N9        1.0  0.51430  0.06968  0.31795  1.0000
  N   N10       1.0  0.98570  0.93032  0.81795  1.0000
  N   N11       1.0  0.48570  0.93032  0.68206  1.0000
  N   N12       1.0  0.01430  0.06968  0.18205  1.0000
  N   N13       1.0  0.53202  0.28689  0.34066  1.0000
  N   N14       1.0  0.96798  0.71311  0.84066  1.0000
  N   N15       1.0  0.46798  0.71311  0.65934  1.0000
  N   N16       1.0  0.03202  0.28689  0.15934  1.0000
  N   N17       1.0  0.53539  0.43404  0.23462  1.0000
  N   N18       1.0  0.96461  0.56596  0.73462  1.0000
  N   N19       1.0  0.46461  0.56596  0.76538  1.0000
  N   N20       1.0  0.03539  0.43404  0.26538  1.0000
  N   N21       1.0  0.51962  0.35833  0.11015  1.0000
  N   N22       1.0  0.98037  0.64167  0.61015  1.0000
  N   N23       1.0  0.48038  0.64167  0.88985  1.0000
  N   N24       1.0  0.01963  0.35833  0.38985  1.0000
  N   N25       1.0  0.49763  0.13208  0.08608  1.0000
  N   N26       1.0  0.00238  0.86792  0.58608  1.0000
  N   N27       1.0  0.50237  0.86792  0.91392  1.0000
  N   N28       1.0  0.99763  0.13208  0.41392  1.0000
  O   O1        1.0  0.49546  0.85884  0.28988  1.0000
  O   O2        1.0  0.00454  0.14116  0.78988  1.0000
  O   O3        1.0  0.50454  0.14116  0.71012  1.0000
  O   O4        1.0  0.99546  0.85884  0.21012  1.0000
  O   O5        1.0  0.54587  0.50130  0.35868  1.0000
  O   O6        1.0  0.95414  0.49870  0.85868  1.0000
  O   O7        1.0  0.45412  0.49870  0.64132  1.0000
  O   O8        1.0  0.04586  0.50130  0.14132  1.0000
  O   O9        1.0  0.51064  0.27862  0.98950  1.0000
  O   O10       1.0  0.98936  0.72138  0.48950  1.0000
  O   O11       1.0  0.48937  0.72138  0.01051  1.0000
  O   O12       1.0  0.01064  0.27862  0.51050  1.0000
  O   O13       1.0  0.72698  0.63651  0.17161  1.0000
  O   O14       1.0  0.77302  0.36349  0.67160  1.0000
  O   O15       1.0  0.27302  0.36349  0.82839  1.0000
  O   O16       1.0  0.22698  0.63651  0.32840  1.0000
  O   O17       1.0  0.03643  0.73131  0.99602  1.0000
  O   O18       1.0  0.46357  0.26869  0.49602  1.0000
  O   O19       1.0  0.96358  0.26869  0.00398  1.0000
  O   O20       1.0  0.53642  0.73131  0.50398  1.0000
  O   O21       1.0  0.81239  0.04192  0.94486  1.0000
  O   O22       1.0  0.68761  0.95808  0.44486  1.0000
  O   O23       1.0  0.18761  0.95808  0.05514  1.0000
  O   O24       1.0  0.31239  0.04192  0.55514  1.0000
