data_image0
_chemical_formula_structural       ZnH30C36N8O10
_chemical_formula_sum              "Zn1 H30 C36 N8 O10"
_cell_length_a       8.11349
_cell_length_b       9.41859
_cell_length_c       12.5784
_cell_angle_alpha    74.0908
_cell_angle_beta     78.5903
_cell_angle_gamma    73.618

_space_group_name_H-M_alt    "P 1"
_space_group_IT_number       1

loop_
  _space_group_symop_operation_xyz
  'x, y, z'

loop_
  _atom_site_type_symbol
  _atom_site_label
  _atom_site_symmetry_multiplicity
  _atom_site_fract_x
  _atom_site_fract_y
  _atom_site_fract_z
  _atom_site_occupancy
  Zn  Zn1       1.0  0.99999  0.00000  1.00000  1.0000
  H   H1        1.0  0.02555  0.47227  0.70974  1.0000
  H   H2        1.0  0.97446  0.52773  0.29026  1.0000
  H   H3        1.0  0.69752  0.07550  0.94728  1.0000
  H   H4        1.0  0.30246  0.92451  0.05271  1.0000
  H   H5        1.0  0.73527  0.88757  0.99260  1.0000
  H   H6        1.0  0.26471  0.11244  0.00739  1.0000
  H   H7        1.0  0.99307  0.68239  0.99230  1.0000
  H   H8        1.0  0.00691  0.31761  0.00770  1.0000
  H   H9        1.0  0.06305  0.51617  0.85808  1.0000
  H   H10       1.0  0.93695  0.48383  0.14192  1.0000
  H   H11       1.0  0.22331  0.88304  0.60582  1.0000
  H   H12       1.0  0.77671  0.11695  0.39418  1.0000
  H   H13       1.0  0.13590  0.03946  0.74911  1.0000
  H   H14       1.0  0.86410  0.96054  0.25089  1.0000
  H   H15       1.0  0.91445  0.31618  0.64127  1.0000
  H   H16       1.0  0.08555  0.68383  0.35872  1.0000
  H   H17       1.0  0.96844  0.12554  0.53055  1.0000
  H   H18       1.0  0.03158  0.87445  0.46945  1.0000
  H   H19       1.0  0.45910  0.23191  0.38058  1.0000
  H   H20       1.0  0.54092  0.76808  0.61943  1.0000
  H   H21       1.0  0.40739  0.41772  0.49238  1.0000
  H   H22       1.0  0.59262  0.58228  0.50763  1.0000
  H   H23       1.0  0.30768  0.28443  0.21682  1.0000
  H   H24       1.0  0.69232  0.71556  0.78319  1.0000
  H   H25       1.0  0.52304  0.24832  0.05136  1.0000
  H   H26       1.0  0.47693  0.75169  0.94864  1.0000
  H   H27       1.0  0.65638  0.76462  0.19100  1.0000
  H   H28       1.0  0.34362  0.23538  0.80899  1.0000
  H   H29       1.0  0.43836  0.80113  0.35755  1.0000
  H   H30       1.0  0.56166  0.19886  0.64245  1.0000
  C   C1        1.0  0.04244  0.72323  0.90526  1.0000
  C   C2        1.0  0.95755  0.27678  0.09474  1.0000
  C   C3        1.0  0.08366  0.63058  0.83018  1.0000
  C   C4        1.0  0.91634  0.36943  0.16982  1.0000
  C   C5        1.0  0.14890  0.68753  0.71972  1.0000
  C   C6        1.0  0.85109  0.31247  0.28028  1.0000
  C   C7        1.0  0.17072  0.83607  0.69071  1.0000
  C   C8        1.0  0.82929  0.16393  0.30930  1.0000
  C   C9        1.0  0.12397  0.92240  0.77029  1.0000
  C   C10       1.0  0.87603  0.07760  0.22971  1.0000
  C   C11       1.0  0.20327  0.59810  0.63094  1.0000
  C   C12       1.0  0.79676  0.40190  0.36905  1.0000
  C   C13       1.0  0.15895  0.37901  0.57716  1.0000
  C   C14       1.0  0.84105  0.62100  0.42284  1.0000
  C   C15       1.0  0.03613  0.29541  0.58645  1.0000
  C   C16       1.0  0.96388  0.70459  0.41355  1.0000
  C   C17       1.0  0.06475  0.18946  0.52259  1.0000
  C   C18       1.0  0.93526  0.81054  0.47741  1.0000
  C   C19       1.0  0.21660  0.16612  0.44759  1.0000
  C   C20       1.0  0.78341  0.83388  0.55242  1.0000
  C   C21       1.0  0.33918  0.24901  0.43741  1.0000
  C   C22       1.0  0.66083  0.75098  0.56259  1.0000
  C   C23       1.0  0.30995  0.35541  0.50125  1.0000
  C   C24       1.0  0.69005  0.64459  0.49874  1.0000
  C   C25       1.0  0.36135  0.04379  0.29766  1.0000
  C   C26       1.0  0.63866  0.95621  0.70234  1.0000
  C   C27       1.0  0.38304  0.17029  0.21162  1.0000
  C   C28       1.0  0.61695  0.82970  0.78839  1.0000
  C   C29       1.0  0.50497  0.15002  0.11851  1.0000
  C   C30       1.0  0.49501  0.84998  0.88149  1.0000
  C   C31       1.0  0.60430  0.00423  0.11012  1.0000
  C   C32       1.0  0.39568  0.99577  0.88987  1.0000
  C   C33       1.0  0.58013  0.87869  0.19641  1.0000
  C   C34       1.0  0.41986  0.12131  0.80358  1.0000
  C   C35       1.0  0.45879  0.89808  0.28997  1.0000
  C   C36       1.0  0.54122  0.10191  0.71003  1.0000
  N   N1        1.0  0.06112  0.86714  0.87670  1.0000
  N   N2        1.0  0.93888  0.13286  0.12330  1.0000
  N   N3        1.0  0.12778  0.48029  0.64707  1.0000
  N   N4        1.0  0.87222  0.51971  0.35293  1.0000
  N   N5        1.0  0.73021  0.98565  0.01439  1.0000
  N   N6        1.0  0.26977  0.01436  0.98559  1.0000
  N   N7        1.0  0.81714  0.31792  0.84705  1.0000
  N   N8        1.0  0.18284  0.68209  0.15295  1.0000
  O   O1        1.0  0.31034  0.63526  0.55004  1.0000
  O   O2        1.0  0.68967  0.36473  0.44998  1.0000
  O   O3        1.0  0.23717  0.05414  0.39053  1.0000
  O   O4        1.0  0.76286  0.94584  0.60949  1.0000
  O   O5        1.0  0.96195  0.21986  0.86724  1.0000
  O   O6        1.0  0.03803  0.78014  0.13277  1.0000
  O   O7        1.0  0.82020  0.45576  0.80814  1.0000
  O   O8        1.0  0.17980  0.54425  0.19186  1.0000
  O   O9        1.0  0.67827  0.27646  0.86432  1.0000
  O   O10       1.0  0.32170  0.72356  0.13569  1.0000
