data_image0
_chemical_formula_structural       Hg2H20C14S4Cl4
_chemical_formula_sum              "Hg2 H20 C14 S4 Cl4"
_cell_length_a       4.90208
_cell_length_b       8.70772
_cell_length_c       12.0564
_cell_angle_alpha    90.0005
_cell_angle_beta     89.9997
_cell_angle_gamma    90.0002

_space_group_name_H-M_alt    "P 1"
_space_group_IT_number       1

loop_
  _space_group_symop_operation_xyz
  'x, y, z'

loop_
  _atom_site_type_symbol
  _atom_site_label
  _atom_site_symmetry_multiplicity
  _atom_site_fract_x
  _atom_site_fract_y
  _atom_site_fract_z
  _atom_site_occupancy
  Hg  Hg1       1.0  0.80577  0.74999  0.24999  1.0000
  Hg  Hg2       1.0  0.19425  0.25001  0.75000  1.0000
  H   H1        1.0  0.68159  0.45526  0.41430  1.0000
  H   H2        1.0  0.68170  0.45523  0.08570  1.0000
  H   H3        1.0  0.68174  0.04475  0.41429  1.0000
  H   H4        1.0  0.68178  0.04474  0.08573  1.0000
  H   H5        1.0  0.31828  0.54475  0.58572  1.0000
  H   H6        1.0  0.31830  0.54476  0.91429  1.0000
  H   H7        1.0  0.31826  0.95524  0.58571  1.0000
  H   H8        1.0  0.31829  0.95527  0.91427  1.0000
  H   H9        1.0  0.34068  0.38318  0.41570  1.0000
  H   H10       1.0  0.34076  0.38315  0.08428  1.0000
  H   H11       1.0  0.34080  0.11680  0.41572  1.0000
  H   H12       1.0  0.34085  0.11679  0.08428  1.0000
  H   H13       1.0  0.65923  0.61679  0.58429  1.0000
  H   H14       1.0  0.65923  0.61681  0.91572  1.0000
  H   H15       1.0  0.65919  0.88319  0.58427  1.0000
  H   H16       1.0  0.65922  0.88321  0.91571  1.0000
  H   H17       1.0  0.99984  0.14390  0.25002  1.0000
  H   H18       1.0  0.99978  0.35616  0.25000  1.0000
  H   H19       1.0  0.00021  0.85613  0.75000  1.0000
  H   H20       1.0  0.00022  0.64388  0.75000  1.0000
  C   C1        1.0  0.61661  0.25001  0.31317  1.0000
  C   C2        1.0  0.61662  0.24999  0.18685  1.0000
  C   C3        1.0  0.38341  0.75000  0.68685  1.0000
  C   C4        1.0  0.38340  0.75000  0.81316  1.0000
  C   C5        1.0  0.52308  0.39969  0.36417  1.0000
  C   C6        1.0  0.52314  0.39967  0.13583  1.0000
  C   C7        1.0  0.52317  0.10030  0.36418  1.0000
  C   C8        1.0  0.52320  0.10030  0.13583  1.0000
  C   C9        1.0  0.47686  0.60030  0.63583  1.0000
  C   C10       1.0  0.47685  0.60031  0.86419  1.0000
  C   C11       1.0  0.47684  0.89969  0.63581  1.0000
  C   C12       1.0  0.47685  0.89971  0.86417  1.0000
  C   C13       1.0  0.88135  0.25001  0.25001  1.0000
  C   C14       1.0  0.11865  0.75001  0.75000  1.0000
  S   S1        1.0  0.43030  0.52890  0.24999  1.0000
  S   S2        1.0  0.43034  0.97110  0.25001  1.0000
  S   S3        1.0  0.56968  0.47110  0.75000  1.0000
  S   S4        1.0  0.56968  0.02890  0.74998  1.0000
  Cl  Cl1       1.0  0.01736  0.75001  0.06416  1.0000
  Cl  Cl2       1.0  0.01737  0.74999  0.43584  1.0000
  Cl  Cl3       1.0  0.98265  0.24999  0.93584  1.0000
  Cl  Cl4       1.0  0.98262  0.25001  0.56416  1.0000
