data_image0
_chemical_formula_structural       Hg2H28C20S4Cl4
_chemical_formula_sum              "Hg2 H28 C20 S4 Cl4"
_cell_length_a       7.5843
_cell_length_b       8.68764
_cell_length_c       11.3871
_cell_angle_alpha    83.081
_cell_angle_beta     76.2098
_cell_angle_gamma    63.62

_space_group_name_H-M_alt    "P 1"
_space_group_IT_number       1

loop_
  _space_group_symop_operation_xyz
  'x, y, z'

loop_
  _atom_site_type_symbol
  _atom_site_label
  _atom_site_symmetry_multiplicity
  _atom_site_fract_x
  _atom_site_fract_y
  _atom_site_fract_z
  _atom_site_occupancy
  Hg  Hg1       1.0  0.98216  0.78605  0.92938  1.0000
  Hg  Hg2       1.0  0.01784  0.21395  0.07062  1.0000
  H   H1        1.0  0.55286  0.39393  0.82050  1.0000
  H   H2        1.0  0.44713  0.60607  0.17950  1.0000
  H   H3        1.0  0.38265  0.54584  0.73278  1.0000
  H   H4        1.0  0.61735  0.45416  0.26722  1.0000
  H   H5        1.0  0.31485  0.95746  0.86306  1.0000
  H   H6        1.0  0.68514  0.04255  0.13694  1.0000
  H   H7        1.0  0.54320  0.82989  0.91345  1.0000
  H   H8        1.0  0.45680  0.17012  0.08655  1.0000
  H   H9        1.0  0.69494  0.95801  0.72548  1.0000
  H   H10       1.0  0.30507  0.04198  0.27452  1.0000
  H   H11       1.0  0.76166  0.85170  0.58539  1.0000
  H   H12       1.0  0.23835  0.14830  0.41460  1.0000
  H   H13       1.0  0.93615  0.39002  0.76450  1.0000
  H   H14       1.0  0.06384  0.60998  0.23550  1.0000
  H   H15       1.0  0.77660  0.53522  0.88341  1.0000
  H   H16       1.0  0.22339  0.46478  0.11659  1.0000
  H   H17       1.0  0.88819  0.50050  0.55877  1.0000
  H   H18       1.0  0.11182  0.49950  0.44124  1.0000
  H   H19       1.0  0.74414  0.38434  0.59065  1.0000
  H   H20       1.0  0.25585  0.61565  0.40935  1.0000
  H   H21       1.0  0.65014  0.57058  0.41068  1.0000
  H   H22       1.0  0.34987  0.42942  0.58933  1.0000
  H   H23       1.0  0.37730  0.85277  0.45305  1.0000
  H   H24       1.0  0.62273  0.14722  0.54694  1.0000
  H   H25       1.0  0.36682  0.00497  0.62844  1.0000
  H   H26       1.0  0.63319  0.99503  0.37156  1.0000
  H   H27       1.0  0.25156  0.87171  0.69113  1.0000
  H   H28       1.0  0.74844  0.12829  0.30886  1.0000
  C   C1        1.0  0.65170  0.58424  0.71922  1.0000
  C   C2        1.0  0.34830  0.41576  0.28077  1.0000
  C   C3        1.0  0.49067  0.52786  0.78812  1.0000
  C   C4        1.0  0.50932  0.47214  0.21188  1.0000
  C   C5        1.0  0.44475  0.83142  0.85611  1.0000
  C   C6        1.0  0.55525  0.16859  0.14389  1.0000
  C   C7        1.0  0.55267  0.78405  0.72383  1.0000
  C   C8        1.0  0.44733  0.21595  0.27618  1.0000
  C   C9        1.0  0.72580  0.83830  0.68424  1.0000
  C   C10       1.0  0.27420  0.16170  0.31576  1.0000
  C   C11       1.0  0.82681  0.52322  0.78479  1.0000
  C   C12       1.0  0.17319  0.47677  0.21521  1.0000
  C   C13       1.0  0.73203  0.51577  0.58943  1.0000
  C   C14       1.0  0.26798  0.48422  0.41057  1.0000
  C   C15       1.0  0.61033  0.62512  0.49984  1.0000
  C   C16       1.0  0.38968  0.37486  0.50017  1.0000
  C   C17       1.0  0.46069  0.78229  0.52323  1.0000
  C   C18       1.0  0.53931  0.21772  0.47676  1.0000
  C   C19       1.0  0.39777  0.86819  0.64219  1.0000
  C   C20       1.0  0.60224  0.13182  0.35780  1.0000
  S   S1        1.0  0.36183  0.66488  0.92027  1.0000
  S   S2        1.0  0.63817  0.33512  0.07973  1.0000
  S   S3        1.0  0.95009  0.66377  0.72828  1.0000
  S   S4        1.0  0.04991  0.33623  0.27172  1.0000
  Cl  Cl1       1.0  0.88321  0.08746  0.84112  1.0000
  Cl  Cl2       1.0  0.11677  0.91255  0.15889  1.0000
  Cl  Cl3       1.0  0.75389  0.70690  0.08899  1.0000
  Cl  Cl4       1.0  0.24610  0.29310  0.91101  1.0000
