data_image0
_chemical_formula_structural       Cu2H24C18N8Cl4
_chemical_formula_sum              "Cu2 H24 C18 N8 Cl4"
_cell_length_a       8.02723
_cell_length_b       8.02724
_cell_length_c       10.09
_cell_angle_alpha    106.905
_cell_angle_beta     106.906
_cell_angle_gamma    101.261

_space_group_name_H-M_alt    "P 1"
_space_group_IT_number       1

loop_
  _space_group_symop_operation_xyz
  'x, y, z'

loop_
  _atom_site_type_symbol
  _atom_site_label
  _atom_site_symmetry_multiplicity
  _atom_site_fract_x
  _atom_site_fract_y
  _atom_site_fract_z
  _atom_site_occupancy
  Cu  Cu1       1.0  0.38209  0.38209  0.30749  1.0000
  Cu  Cu2       1.0  0.61790  0.61790  0.69248  1.0000
  H   H1        1.0  0.87009  0.31699  0.06861  1.0000
  H   H2        1.0  0.68300  0.12991  0.93139  1.0000
  H   H3        1.0  0.12991  0.68300  0.93139  1.0000
  H   H4        1.0  0.31700  0.87009  0.06861  1.0000
  H   H5        1.0  0.46701  0.26985  0.03060  1.0000
  H   H6        1.0  0.73015  0.53299  0.96940  1.0000
  H   H7        1.0  0.53299  0.73016  0.96940  1.0000
  H   H8        1.0  0.26986  0.46701  0.03060  1.0000
  H   H9        1.0  0.65799  0.45560  0.17038  1.0000
  H   H10       1.0  0.54440  0.34201  0.82961  1.0000
  H   H11       1.0  0.34201  0.54440  0.82961  1.0000
  H   H12       1.0  0.45561  0.65799  0.17038  1.0000
  H   H13       1.0  0.81329  0.05931  0.14638  1.0000
  H   H14       1.0  0.94070  0.18670  0.85364  1.0000
  H   H15       1.0  0.18670  0.94070  0.85364  1.0000
  H   H16       1.0  0.05931  0.81329  0.14637  1.0000
  H   H17       1.0  0.74566  0.92429  0.35642  1.0000
  H   H18       1.0  0.07574  0.25433  0.64360  1.0000
  H   H19       1.0  0.25433  0.07574  0.64359  1.0000
  H   H20       1.0  0.92428  0.74565  0.35641  1.0000
  H   H21       1.0  0.51102  0.10112  0.44324  1.0000
  H   H22       1.0  0.89890  0.48896  0.55677  1.0000
  H   H23       1.0  0.48895  0.89890  0.55676  1.0000
  H   H24       1.0  0.10112  0.51101  0.44323  1.0000
  C   C1        1.0  0.72398  0.27601  0.00000  1.0000
  C   C2        1.0  0.27602  0.72398  1.00000  1.0000
  C   C3        1.0  0.61350  0.30994  0.09891  1.0000
  C   C4        1.0  0.69006  0.38649  0.90109  1.0000
  C   C5        1.0  0.38649  0.69007  0.90109  1.0000
  C   C6        1.0  0.30995  0.61351  0.09891  1.0000
  C   C7        1.0  0.72719  0.08712  0.21035  1.0000
  C   C8        1.0  0.91290  0.27281  0.78965  1.0000
  C   C9        1.0  0.27281  0.91290  0.78965  1.0000
  C   C10       1.0  0.08712  0.72718  0.21035  1.0000
  C   C11       1.0  0.69173  0.02091  0.31549  1.0000
  C   C12       1.0  0.97910  0.30826  0.68453  1.0000
  C   C13       1.0  0.30825  0.97910  0.68452  1.0000
  C   C14       1.0  0.02091  0.69172  0.31548  1.0000
  C   C15       1.0  0.57204  0.10855  0.36155  1.0000
  C   C16       1.0  0.89147  0.42795  0.63846  1.0000
  C   C17       1.0  0.42794  0.89146  0.63845  1.0000
  C   C18       1.0  0.10855  0.57204  0.36154  1.0000
  N   N1        1.0  0.53726  0.22217  0.28983  1.0000
  N   N2        1.0  0.77783  0.46274  0.71017  1.0000
  N   N3        1.0  0.46274  0.77783  0.71016  1.0000
  N   N4        1.0  0.22217  0.53726  0.28983  1.0000
  N   N5        1.0  0.63126  0.20719  0.19706  1.0000
  N   N6        1.0  0.79282  0.36872  0.80295  1.0000
  N   N7        1.0  0.36873  0.79282  0.80294  1.0000
  N   N8        1.0  0.20719  0.63126  0.19706  1.0000
  Cl  Cl1       1.0  0.34905  0.34905  0.54870  1.0000
  Cl  Cl2       1.0  0.65091  0.65091  0.45129  1.0000
  Cl  Cl3       1.0  0.14428  0.14428  0.10923  1.0000
  Cl  Cl4       1.0  0.85575  0.85575  0.89080  1.0000
