data_image0
_chemical_formula_structural       Gd4H48C40N4O44
_chemical_formula_sum              "Gd4 H48 C40 N4 O44"
_cell_length_a       6.07306
_cell_length_b       15.3375
_cell_length_c       16.5527
_cell_angle_alpha    115.08
_cell_angle_beta     90
_cell_angle_gamma    90

_space_group_name_H-M_alt    "P 1"
_space_group_IT_number       1

loop_
  _space_group_symop_operation_xyz
  'x, y, z'

loop_
  _atom_site_type_symbol
  _atom_site_label
  _atom_site_symmetry_multiplicity
  _atom_site_fract_x
  _atom_site_fract_y
  _atom_site_fract_z
  _atom_site_occupancy
  Gd  Gd1       1.0  0.04886  0.85038  0.59467  1.0000
  Gd  Gd2       1.0  0.54885  0.14961  0.90532  1.0000
  Gd  Gd3       1.0  0.95115  0.14962  0.40533  1.0000
  Gd  Gd4       1.0  0.45114  0.85039  0.09468  1.0000
  H   H1        1.0  0.82966  0.82201  0.83890  1.0000
  H   H2        1.0  0.32966  0.17799  0.66110  1.0000
  H   H3        1.0  0.17034  0.17799  0.16110  1.0000
  H   H4        1.0  0.67034  0.82201  0.33890  1.0000
  H   H5        1.0  0.59315  0.78840  0.76731  1.0000
  H   H6        1.0  0.09315  0.21160  0.73269  1.0000
  H   H7        1.0  0.40685  0.21160  0.23269  1.0000
  H   H8        1.0  0.90685  0.78839  0.26731  1.0000
  H   H9        1.0  0.68896  0.64724  0.76407  1.0000
  H   H10       1.0  0.18896  0.35276  0.73593  1.0000
  H   H11       1.0  0.31104  0.35276  0.23593  1.0000
  H   H12       1.0  0.81104  0.64724  0.26407  1.0000
  H   H13       1.0  0.77944  0.47422  0.71284  1.0000
  H   H14       1.0  0.27944  0.52579  0.78715  1.0000
  H   H15       1.0  0.22055  0.52578  0.28716  1.0000
  H   H16       1.0  0.72056  0.47421  0.21284  1.0000
  H   H17       1.0  0.07558  0.39945  0.59944  1.0000
  H   H18       1.0  0.57558  0.60056  0.90056  1.0000
  H   H19       1.0  0.92442  0.60055  0.40056  1.0000
  H   H20       1.0  0.42442  0.39944  0.09944  1.0000
  H   H21       1.0  0.27479  0.49689  0.53665  1.0000
  H   H22       1.0  0.77479  0.50312  0.96334  1.0000
  H   H23       1.0  0.72521  0.50311  0.46335  1.0000
  H   H24       1.0  0.22521  0.49689  0.03666  1.0000
  H   H25       1.0  0.39984  0.60526  0.47445  1.0000
  H   H26       1.0  0.89984  0.39474  0.02555  1.0000
  H   H27       1.0  0.60016  0.39474  0.52555  1.0000
  H   H28       1.0  0.10016  0.60526  0.97445  1.0000
  H   H29       1.0  0.50930  0.62587  0.58206  1.0000
  H   H30       1.0  0.00929  0.37413  0.91794  1.0000
  H   H31       1.0  0.49071  0.37413  0.41794  1.0000
  H   H32       1.0  0.99070  0.62587  0.08206  1.0000
  H   H33       1.0  0.62353  0.90276  0.54717  1.0000
  H   H34       1.0  0.12353  0.09724  0.95283  1.0000
  H   H35       1.0  0.37647  0.09724  0.45283  1.0000
  H   H36       1.0  0.87647  0.90276  0.04717  1.0000
  H   H37       1.0  0.28045  0.95371  0.76217  1.0000
  H   H38       1.0  0.78045  0.04629  0.73783  1.0000
  H   H39       1.0  0.71955  0.04629  0.23783  1.0000
  H   H40       1.0  0.21955  0.95371  0.26217  1.0000
  H   H41       1.0  0.77223  0.98895  0.54298  1.0000
  H   H42       1.0  0.27223  0.01105  0.95702  1.0000
  H   H43       1.0  0.22777  0.01105  0.45702  1.0000
  H   H44       1.0  0.72776  0.98895  0.04298  1.0000
  H   H45       1.0  0.23608  0.85404  0.77124  1.0000
  H   H46       1.0  0.73608  0.14596  0.72876  1.0000
  H   H47       1.0  0.76392  0.14596  0.22876  1.0000
  H   H48       1.0  0.26391  0.85404  0.27124  1.0000
  C   C1        1.0  0.73891  0.92041  0.78168  1.0000
  C   C2        1.0  0.23891  0.07959  0.71831  1.0000
  C   C3        1.0  0.26109  0.07959  0.21831  1.0000
  C   C4        1.0  0.76109  0.92041  0.28169  1.0000
  C   C5        1.0  0.75964  0.81958  0.77665  1.0000
  C   C6        1.0  0.25964  0.18043  0.72335  1.0000
  C   C7        1.0  0.24036  0.18043  0.22335  1.0000
  C   C8        1.0  0.74036  0.81957  0.27665  1.0000
  C   C9        1.0  0.93124  0.66964  0.67913  1.0000
  C   C10       1.0  0.43124  0.33036  0.82087  1.0000
  C   C11       1.0  0.06876  0.33036  0.32087  1.0000
  C   C12       1.0  0.56876  0.66964  0.17913  1.0000
  C   C13       1.0  0.81669  0.61458  0.71399  1.0000
  C   C14       1.0  0.31669  0.38542  0.78601  1.0000
  C   C15       1.0  0.18331  0.38542  0.28601  1.0000
  C   C16       1.0  0.68331  0.61458  0.21399  1.0000
  C   C17       1.0  0.86917  0.51693  0.68523  1.0000
  C   C18       1.0  0.36917  0.48307  0.81477  1.0000
  C   C19       1.0  0.13083  0.48307  0.31477  1.0000
  C   C20       1.0  0.63084  0.51693  0.18523  1.0000
  C   C21       1.0  0.03537  0.47531  0.62267  1.0000
  C   C22       1.0  0.53537  0.52469  0.87733  1.0000
  C   C23       1.0  0.96463  0.52469  0.37733  1.0000
  C   C24       1.0  0.46464  0.47531  0.12267  1.0000
  C   C25       1.0  0.14966  0.53058  0.58742  1.0000
  C   C26       1.0  0.64965  0.46942  0.91258  1.0000
  C   C27       1.0  0.85034  0.46942  0.41258  1.0000
  C   C28       1.0  0.35034  0.53058  0.08742  1.0000
  C   C29       1.0  0.09811  0.62719  0.61513  1.0000
  C   C30       1.0  0.59811  0.37281  0.88487  1.0000
  C   C31       1.0  0.90189  0.37281  0.38487  1.0000
  C   C32       1.0  0.40189  0.62719  0.11513  1.0000
  C   C33       1.0  0.41654  0.65815  0.54455  1.0000
  C   C34       1.0  0.91654  0.34185  0.95545  1.0000
  C   C35       1.0  0.58346  0.34185  0.45545  1.0000
  C   C36       1.0  0.08346  0.65815  0.04455  1.0000
  C   C37       1.0  0.54218  0.74558  0.54760  1.0000
  C   C38       1.0  0.04216  0.25442  0.95240  1.0000
  C   C39       1.0  0.45783  0.25442  0.45241  1.0000
  C   C40       1.0  0.95783  0.74558  0.04760  1.0000
  N   N1        1.0  0.18082  0.80626  0.40612  1.0000
  N   N2        1.0  0.68082  0.19374  0.09388  1.0000
  N   N3        1.0  0.81918  0.19374  0.59388  1.0000
  N   N4        1.0  0.31918  0.80626  0.90612  1.0000
  O   O1        1.0  0.79977  0.93274  0.71347  1.0000
  O   O2        1.0  0.29976  0.06725  0.78652  1.0000
  O   O3        1.0  0.20023  0.06726  0.28653  1.0000
  O   O4        1.0  0.70023  0.93274  0.21348  1.0000
  O   O5        1.0  0.65945  0.98478  0.85203  1.0000
  O   O6        1.0  0.15944  0.01522  0.64796  1.0000
  O   O7        1.0  0.34055  0.01522  0.14796  1.0000
  O   O8        1.0  0.84056  0.98478  0.35204  1.0000
  O   O9        1.0  0.89723  0.76549  0.70210  1.0000
  O   O10       1.0  0.39722  0.23451  0.79790  1.0000
  O   O11       1.0  0.10277  0.23452  0.29790  1.0000
  O   O12       1.0  0.60277  0.76549  0.20210  1.0000
  O   O13       1.0  0.20224  0.68751  0.58392  1.0000
  O   O14       1.0  0.70224  0.31250  0.91608  1.0000
  O   O15       1.0  0.79776  0.31249  0.41608  1.0000
  O   O16       1.0  0.29776  0.68751  0.08392  1.0000
  O   O17       1.0  0.43379  0.82100  0.55959  1.0000
  O   O18       1.0  0.93379  0.17901  0.94041  1.0000
  O   O19       1.0  0.56621  0.17900  0.44041  1.0000
  O   O20       1.0  0.06621  0.82100  0.05959  1.0000
  O   O21       1.0  0.74795  0.73613  0.53703  1.0000
  O   O22       1.0  0.24795  0.26388  0.96298  1.0000
  O   O23       1.0  0.25205  0.26388  0.46297  1.0000
  O   O24       1.0  0.75204  0.73612  0.03703  1.0000
  O   O25       1.0  0.09518  0.74626  0.43150  1.0000
  O   O26       1.0  0.59518  0.25374  0.06850  1.0000
  O   O27       1.0  0.90482  0.25374  0.56850  1.0000
  O   O28       1.0  0.40482  0.74626  0.93150  1.0000
  O   O29       1.0  0.20006  0.89301  0.46396  1.0000
  O   O30       1.0  0.70005  0.10699  0.03604  1.0000
  O   O31       1.0  0.79994  0.10699  0.53604  1.0000
  O   O32       1.0  0.29995  0.89301  0.96396  1.0000
  O   O33       1.0  0.24394  0.77919  0.32709  1.0000
  O   O34       1.0  0.74393  0.22081  0.17291  1.0000
  O   O35       1.0  0.75607  0.22081  0.67291  1.0000
  O   O36       1.0  0.25607  0.77919  0.82709  1.0000
  O   O37       1.0  0.77294  0.92236  0.53697  1.0000
  O   O38       1.0  0.27294  0.07763  0.96302  1.0000
  O   O39       1.0  0.22706  0.07764  0.46303  1.0000
  O   O40       1.0  0.72706  0.92236  0.03698  1.0000
  O   O41       1.0  0.25696  0.88272  0.72863  1.0000
  O   O42       1.0  0.75695  0.11728  0.77137  1.0000
  O   O43       1.0  0.74305  0.11728  0.27137  1.0000
  O   O44       1.0  0.24304  0.88272  0.22863  1.0000
