data_image0
_chemical_formula_structural       Cu2H28C20S2N4O14
_chemical_formula_sum              "Cu2 H28 C20 S2 N4 O14"
_cell_length_a       7.17888
_cell_length_b       10.1485
_cell_length_c       11.117
_cell_angle_alpha    62.8365
_cell_angle_beta     83.4939
_cell_angle_gamma    75.521

_space_group_name_H-M_alt    "P 1"
_space_group_IT_number       1

loop_
  _space_group_symop_operation_xyz
  'x, y, z'

loop_
  _atom_site_type_symbol
  _atom_site_label
  _atom_site_symmetry_multiplicity
  _atom_site_fract_x
  _atom_site_fract_y
  _atom_site_fract_z
  _atom_site_occupancy
  Cu  Cu1       1.0  0.47456  0.83026  0.54268  1.0000
  Cu  Cu2       1.0  0.97462  0.37298  0.45735  1.0000
  H   H1        1.0  0.55015  0.04331  0.25014  1.0000
  H   H2        1.0  0.05067  0.29324  0.75018  1.0000
  H   H3        1.0  0.52307  0.05565  0.02977  1.0000
  H   H4        1.0  0.02333  0.08515  0.97037  1.0000
  H   H5        1.0  0.43414  0.59393  0.23868  1.0000
  H   H6        1.0  0.93512  0.83254  0.76105  1.0000
  H   H7        1.0  0.44429  0.60932  0.45080  1.0000
  H   H8        1.0  0.94517  0.06026  0.54905  1.0000
  H   H9        1.0  0.41924  0.60498  0.83014  1.0000
  H   H10       1.0  0.91953  0.43497  0.16995  1.0000
  H   H11       1.0  0.42386  0.59386  0.05607  1.0000
  H   H12       1.0  0.92465  0.64953  0.94393  1.0000
  H   H13       1.0  0.50356  0.05739  0.85505  1.0000
  H   H14       1.0  0.00285  0.91263  0.14483  1.0000
  H   H15       1.0  0.50262  0.04483  0.64061  1.0000
  H   H16       1.0  0.00147  0.68583  0.35937  1.0000
  H   H17       1.0  0.81441  0.70813  0.55615  1.0000
  H   H18       1.0  0.31449  0.26412  0.44387  1.0000
  H   H19       1.0  0.82039  0.88179  0.46612  1.0000
  H   H20       1.0  0.32071  0.34770  0.53386  1.0000
  H   H21       1.0  0.13018  0.85390  0.48353  1.0000
  H   H22       1.0  0.63031  0.33750  0.51646  1.0000
  H   H23       1.0  0.21504  0.68380  0.60699  1.0000
  H   H24       1.0  0.71483  0.29118  0.39287  1.0000
  H   H25       1.0  0.28596  0.13078  0.36790  1.0000
  H   H26       1.0  0.78575  0.49865  0.63215  1.0000
  H   H27       1.0  0.51375  0.13421  0.37277  1.0000
  H   H28       1.0  0.01352  0.50693  0.62718  1.0000
  C   C1        1.0  0.51766  0.94754  0.24420  1.0000
  C   C2        1.0  0.01817  0.19161  0.75596  1.0000
  C   C3        1.0  0.50711  0.95162  0.11883  1.0000
  C   C4        1.0  0.00751  0.07026  0.88126  1.0000
  C   C5        1.0  0.47530  0.82475  0.11085  1.0000
  C   C6        1.0  0.97577  0.93545  0.88909  1.0000
  C   C7        1.0  0.45527  0.69882  0.23353  1.0000
  C   C8        1.0  0.95606  0.93225  0.76633  1.0000
  C   C9        1.0  0.46206  0.70506  0.35495  1.0000
  C   C10       1.0  0.96284  0.06001  0.64498  1.0000
  C   C11       1.0  0.43715  0.70233  0.84112  1.0000
  C   C12       1.0  0.93726  0.54336  0.15892  1.0000
  C   C13       1.0  0.44113  0.69776  0.96762  1.0000
  C   C14       1.0  0.94152  0.66517  0.03235  1.0000
  C   C15       1.0  0.46747  0.82440  0.97870  1.0000
  C   C16       1.0  0.96761  0.80299  0.02123  1.0000
  C   C17       1.0  0.48728  0.95228  0.85768  1.0000
  C   C18       1.0  0.98679  0.81004  0.14226  1.0000
  C   C19       1.0  0.48485  0.94765  0.73516  1.0000
  C   C20       1.0  0.98410  0.68302  0.26483  1.0000
  S   S1        1.0  0.42677  0.39847  0.72435  1.0000
  S   S2        1.0  0.92659  0.12323  0.27569  1.0000
  N   N1        1.0  0.49201  0.82768  0.36112  1.0000
  N   N2        1.0  0.99261  0.18878  0.63896  1.0000
  N   N3        1.0  0.46035  0.82527  0.72639  1.0000
  N   N4        1.0  0.95996  0.55179  0.27363  1.0000
  O   O1        1.0  0.75625  0.81298  0.54918  1.0000
  O   O2        1.0  0.25633  0.36202  0.45079  1.0000
  O   O3        1.0  0.20908  0.79652  0.56884  1.0000
  O   O4        1.0  0.70899  0.36559  0.43116  1.0000
  O   O5        1.0  0.39660  0.10808  0.42747  1.0000
  O   O6        1.0  0.89613  0.53568  0.57254  1.0000
  O   O7        1.0  0.56481  0.49895  0.68874  1.0000
  O   O8        1.0  0.06461  0.18766  0.31196  1.0000
  O   O9        1.0  0.42653  0.29495  0.86786  1.0000
  O   O10       1.0  0.92689  0.16349  0.13211  1.0000
  O   O11       1.0  0.47650  0.30840  0.64257  1.0000
  O   O12       1.0  0.97598  0.95128  0.35740  1.0000
  O   O13       1.0  0.22956  0.50240  0.67788  1.0000
  O   O14       1.0  0.72930  0.18095  0.32166  1.0000
