data_image0
_chemical_formula_structural       Cd2H10C12N16
_chemical_formula_sum              "Cd2 H10 C12 N16"
_cell_length_a       6.65127
_cell_length_b       7.70824
_cell_length_c       9.72325
_cell_angle_alpha    81.9722
_cell_angle_beta     89.5213
_cell_angle_gamma    70.3856

_space_group_name_H-M_alt    "P 1"
_space_group_IT_number       1

loop_
  _space_group_symop_operation_xyz
  'x, y, z'

loop_
  _atom_site_type_symbol
  _atom_site_label
  _atom_site_symmetry_multiplicity
  _atom_site_fract_x
  _atom_site_fract_y
  _atom_site_fract_z
  _atom_site_occupancy
  Cd  Cd1       1.0  0.21073  0.10379  0.95039  1.0000
  Cd  Cd2       1.0  0.78927  0.89621  0.04961  1.0000
  H   H1        1.0  0.32924  0.03327  0.63024  1.0000
  H   H2        1.0  0.67076  0.96673  0.36976  1.0000
  H   H3        1.0  0.37198  0.20813  0.40207  1.0000
  H   H4        1.0  0.62801  0.79188  0.59793  1.0000
  H   H5        1.0  0.29562  0.55250  0.38232  1.0000
  H   H6        1.0  0.70438  0.44751  0.61768  1.0000
  H   H7        1.0  0.15884  0.71100  0.58932  1.0000
  H   H8        1.0  0.84115  0.28900  0.41068  1.0000
  H   H9        1.0  0.05496  0.69254  0.83276  1.0000
  H   H10       1.0  0.94505  0.30746  0.16725  1.0000
  C   C1        1.0  0.29320  0.18348  0.61737  1.0000
  C   C2        1.0  0.70679  0.81652  0.38263  1.0000
  C   C3        1.0  0.31832  0.28196  0.49025  1.0000
  C   C4        1.0  0.68167  0.71805  0.50975  1.0000
  C   C5        1.0  0.27342  0.47318  0.47951  1.0000
  C   C6        1.0  0.72657  0.52682  0.52049  1.0000
  C   C7        1.0  0.19906  0.56090  0.59506  1.0000
  C   C8        1.0  0.80093  0.43910  0.40494  1.0000
  C   C9        1.0  0.17401  0.45346  0.71804  1.0000
  C   C10       1.0  0.82599  0.54654  0.28197  1.0000
  C   C11       1.0  0.08697  0.54254  0.83807  1.0000
  C   C12       1.0  0.91303  0.45746  0.16193  1.0000
  N   N1        1.0  0.22448  0.26655  0.72872  1.0000
  N   N2        1.0  0.77551  0.73346  0.27127  1.0000
  N   N3        1.0  0.04338  0.44812  0.94817  1.0000
  N   N4        1.0  0.95662  0.55188  0.05184  1.0000
  N   N5        1.0  0.94983  0.99905  0.85609  1.0000
  N   N6        1.0  0.05018  0.00095  0.14391  1.0000
  N   N7        1.0  0.87445  0.03734  0.73847  1.0000
  N   N8        1.0  0.12556  0.96265  0.26155  1.0000
  N   N9        1.0  0.80514  0.07026  0.62447  1.0000
  N   N10       1.0  0.19486  0.92975  0.37553  1.0000
  N   N11       1.0  0.51537  0.85216  0.91740  1.0000
  N   N12       1.0  0.48464  0.14784  0.08259  1.0000
  N   N13       1.0  0.52349  0.70855  0.87731  1.0000
  N   N14       1.0  0.47652  0.29143  0.12268  1.0000
  N   N15       1.0  0.53467  0.57002  0.83733  1.0000
  N   N16       1.0  0.46533  0.42998  0.16267  1.0000
