data_image0
_chemical_formula_structural       Cd4H48C56O24
_chemical_formula_sum              "Cd4 H48 C56 O24"
_cell_length_a       5.73347
_cell_length_b       7.69796
_cell_length_c       29.141
_cell_angle_alpha    90
_cell_angle_beta     90
_cell_angle_gamma    90

_space_group_name_H-M_alt    "P 1"
_space_group_IT_number       1

loop_
  _space_group_symop_operation_xyz
  'x, y, z'

loop_
  _atom_site_type_symbol
  _atom_site_label
  _atom_site_symmetry_multiplicity
  _atom_site_fract_x
  _atom_site_fract_y
  _atom_site_fract_z
  _atom_site_occupancy
  Cd  Cd1       1.0  0.46348  0.94328  0.24999  1.0000
  Cd  Cd2       1.0  0.03654  0.44327  0.75001  1.0000
  Cd  Cd3       1.0  0.96347  0.55673  0.25001  1.0000
  Cd  Cd4       1.0  0.53654  0.05671  0.74999  1.0000
  H   H1        1.0  0.48571  0.59248  0.27684  1.0000
  H   H2        1.0  0.01431  0.09246  0.72316  1.0000
  H   H3        1.0  0.98570  0.90754  0.22316  1.0000
  H   H4        1.0  0.51429  0.40751  0.77684  1.0000
  H   H5        1.0  0.51428  0.40753  0.72319  1.0000
  H   H6        1.0  0.98571  0.90755  0.27681  1.0000
  H   H7        1.0  0.01430  0.09243  0.77681  1.0000
  H   H8        1.0  0.48571  0.59246  0.22319  1.0000
  H   H9        1.0  0.29688  0.27729  0.27649  1.0000
  H   H10       1.0  0.20314  0.77726  0.72351  1.0000
  H   H11       1.0  0.79687  0.22273  0.22351  1.0000
  H   H12       1.0  0.70312  0.72272  0.77649  1.0000
  H   H13       1.0  0.70314  0.72269  0.72353  1.0000
  H   H14       1.0  0.79688  0.22270  0.27647  1.0000
  H   H15       1.0  0.20313  0.77729  0.77647  1.0000
  H   H16       1.0  0.29688  0.27731  0.22353  1.0000
  H   H17       1.0  0.06553  0.12374  0.36617  1.0000
  H   H18       1.0  0.43448  0.62372  0.63383  1.0000
  H   H19       1.0  0.56553  0.37633  0.13382  1.0000
  H   H20       1.0  0.93447  0.87626  0.86618  1.0000
  H   H21       1.0  0.93457  0.87635  0.63380  1.0000
  H   H22       1.0  0.56546  0.37639  0.36620  1.0000
  H   H23       1.0  0.43452  0.62359  0.86619  1.0000
  H   H24       1.0  0.06546  0.12363  0.13380  1.0000
  H   H25       1.0  0.22863  0.14235  0.44344  1.0000
  H   H26       1.0  0.27137  0.64234  0.55655  1.0000
  H   H27       1.0  0.72860  0.35769  0.05655  1.0000
  H   H28       1.0  0.77137  0.85766  0.94345  1.0000
  H   H29       1.0  0.77146  0.85774  0.55653  1.0000
  H   H30       1.0  0.72857  0.35776  0.44347  1.0000
  H   H31       1.0  0.27139  0.64222  0.94346  1.0000
  H   H32       1.0  0.22856  0.14226  0.05653  1.0000
  H   H33       1.0  0.63615  0.85536  0.49564  1.0000
  H   H34       1.0  0.86389  0.35536  0.50436  1.0000
  H   H35       1.0  0.13607  0.64464  0.00435  1.0000
  H   H36       1.0  0.36389  0.14464  0.99564  1.0000
  H   H37       1.0  0.36390  0.14481  0.50433  1.0000
  H   H38       1.0  0.13618  0.64485  0.49567  1.0000
  H   H39       1.0  0.86381  0.35515  0.99566  1.0000
  H   H40       1.0  0.63612  0.85519  0.00434  1.0000
  H   H41       1.0  0.47073  0.84643  0.41805  1.0000
  H   H42       1.0  0.02928  0.34643  0.58195  1.0000
  H   H43       1.0  0.97070  0.65361  0.08195  1.0000
  H   H44       1.0  0.52929  0.15355  0.91805  1.0000
  H   H45       1.0  0.52930  0.15375  0.58194  1.0000
  H   H46       1.0  0.97076  0.65381  0.41807  1.0000
  H   H47       1.0  0.02922  0.34620  0.91806  1.0000
  H   H48       1.0  0.47073  0.84625  0.08194  1.0000
  C   C1        1.0  0.65863  0.97324  0.33938  1.0000
  C   C2        1.0  0.84137  0.47322  0.66062  1.0000
  C   C3        1.0  0.15864  0.52681  0.16062  1.0000
  C   C4        1.0  0.34137  0.02675  0.83939  1.0000
  C   C5        1.0  0.34143  0.02684  0.66059  1.0000
  C   C6        1.0  0.15858  0.52689  0.33941  1.0000
  C   C7        1.0  0.84140  0.47311  0.83941  1.0000
  C   C8        1.0  0.65859  0.97315  0.16059  1.0000
  C   C9        1.0  0.75593  0.98468  0.38672  1.0000
  C   C10       1.0  0.74408  0.48467  0.61329  1.0000
  C   C11       1.0  0.25593  0.51536  0.11329  1.0000
  C   C12       1.0  0.24407  0.01531  0.88671  1.0000
  C   C13       1.0  0.24414  0.01543  0.61326  1.0000
  C   C14       1.0  0.25589  0.51546  0.38674  1.0000
  C   C15       1.0  0.74407  0.48455  0.88674  1.0000
  C   C16       1.0  0.75588  0.98457  0.11326  1.0000
  C   C17       1.0  0.97000  0.06744  0.39484  1.0000
  C   C18       1.0  0.53002  0.56742  0.60516  1.0000
  C   C19       1.0  0.46996  0.43261  0.10516  1.0000
  C   C20       1.0  0.03001  0.93256  0.89484  1.0000
  C   C21       1.0  0.03008  0.93264  0.60513  1.0000
  C   C22       1.0  0.46992  0.43269  0.39486  1.0000
  C   C23       1.0  0.53005  0.56730  0.89486  1.0000
  C   C24       1.0  0.96993  0.06733  0.10514  1.0000
  C   C25       1.0  0.06267  0.07579  0.43891  1.0000
  C   C26       1.0  0.43734  0.57578  0.56109  1.0000
  C   C27       1.0  0.56263  0.42424  0.06109  1.0000
  C   C28       1.0  0.93733  0.92422  0.93891  1.0000
  C   C29       1.0  0.93742  0.92429  0.56107  1.0000
  C   C30       1.0  0.56261  0.42432  0.43894  1.0000
  C   C31       1.0  0.43736  0.57568  0.93893  1.0000
  C   C32       1.0  0.06261  0.07570  0.06107  1.0000
  C   C33       1.0  0.94832  0.99853  0.47661  1.0000
  C   C34       1.0  0.55172  0.49852  0.52338  1.0000
  C   C35       1.0  0.44825  0.50148  0.02338  1.0000
  C   C36       1.0  0.05169  0.00148  0.97661  1.0000
  C   C37       1.0  0.05178  0.00157  0.52336  1.0000
  C   C38       1.0  0.44827  0.50158  0.47664  1.0000
  C   C39       1.0  0.55171  0.49842  0.97663  1.0000
  C   C40       1.0  0.94825  0.99843  0.02336  1.0000
  C   C41       1.0  0.73224  0.91699  0.46788  1.0000
  C   C42       1.0  0.76778  0.41698  0.53212  1.0000
  C   C43       1.0  0.23217  0.58303  0.03212  1.0000
  C   C44       1.0  0.26779  0.08302  0.96788  1.0000
  C   C45       1.0  0.26783  0.08314  0.53210  1.0000
  C   C46       1.0  0.23220  0.58318  0.46790  1.0000
  C   C47       1.0  0.76777  0.41683  0.96790  1.0000
  C   C48       1.0  0.73219  0.91686  0.03210  1.0000
  C   C49       1.0  0.63703  0.91094  0.42400  1.0000
  C   C50       1.0  0.86300  0.41092  0.57601  1.0000
  C   C51       1.0  0.13699  0.58911  0.07600  1.0000
  C   C52       1.0  0.36298  0.08906  0.92400  1.0000
  C   C53       1.0  0.36303  0.08920  0.57599  1.0000
  C   C54       1.0  0.13701  0.58924  0.42402  1.0000
  C   C55       1.0  0.86297  0.41075  0.92402  1.0000
  C   C56       1.0  0.63699  0.91080  0.07599  1.0000
  O   O1        1.0  0.78922  0.02426  0.30549  1.0000
  O   O2        1.0  0.71077  0.52423  0.69451  1.0000
  O   O3        1.0  0.28923  0.47578  0.19450  1.0000
  O   O4        1.0  0.21078  0.97574  0.80549  1.0000
  O   O5        1.0  0.21084  0.97578  0.69448  1.0000
  O   O6        1.0  0.28918  0.47583  0.30552  1.0000
  O   O7        1.0  0.71082  0.52419  0.80552  1.0000
  O   O8        1.0  0.78919  0.02421  0.19448  1.0000
  O   O9        1.0  0.45437  0.91651  0.33250  1.0000
  O   O10       1.0  0.04562  0.41651  0.66750  1.0000
  O   O11       1.0  0.95437  0.58352  0.16751  1.0000
  O   O12       1.0  0.54562  0.08347  0.83250  1.0000
  O   O13       1.0  0.54567  0.08358  0.66749  1.0000
  O   O14       1.0  0.95435  0.58364  0.33252  1.0000
  O   O15       1.0  0.04566  0.41638  0.83252  1.0000
  O   O16       1.0  0.45434  0.91640  0.16749  1.0000
  O   O17       1.0  0.56490  0.65011  0.25001  1.0000
  O   O18       1.0  0.93512  0.15009  0.74999  1.0000
  O   O19       1.0  0.06490  0.84990  0.24999  1.0000
  O   O20       1.0  0.43510  0.34987  0.75001  1.0000
  O   O21       1.0  0.27158  0.19852  0.25001  1.0000
  O   O22       1.0  0.22845  0.69849  0.74999  1.0000
  O   O23       1.0  0.77158  0.30149  0.24999  1.0000
  O   O24       1.0  0.72843  0.80148  0.75001  1.0000
