data_image0
_chemical_formula_structural       Zn2H24C28O12
_chemical_formula_sum              "Zn2 H24 C28 O12"
_cell_length_a       6.23126
_cell_length_b       7.09039
_cell_length_c       15.6132
_cell_angle_alpha    76.9291
_cell_angle_beta     84.9433
_cell_angle_gamma    67.297

_space_group_name_H-M_alt    "P 1"
_space_group_IT_number       1

loop_
  _space_group_symop_operation_xyz
  'x, y, z'

loop_
  _atom_site_type_symbol
  _atom_site_label
  _atom_site_symmetry_multiplicity
  _atom_site_fract_x
  _atom_site_fract_y
  _atom_site_fract_z
  _atom_site_occupancy
  Zn  Zn1       1.0  0.99999  0.00001  0.00000  1.0000
  Zn  Zn2       1.0  0.49998  0.00001  0.00000  1.0000
  H   H1        1.0  0.89687  0.88723  0.27625  1.0000
  H   H2        1.0  0.60360  0.83412  0.27611  1.0000
  H   H3        1.0  0.10312  0.11274  0.72376  1.0000
  H   H4        1.0  0.39637  0.16589  0.72389  1.0000
  H   H5        1.0  0.89171  0.81378  0.43896  1.0000
  H   H6        1.0  0.60830  0.74591  0.43885  1.0000
  H   H7        1.0  0.10828  0.18620  0.56105  1.0000
  H   H8        1.0  0.39170  0.25409  0.56116  1.0000
  H   H9        1.0  0.95501  0.62928  0.56315  1.0000
  H   H10       1.0  0.54357  0.80937  0.56290  1.0000
  H   H11       1.0  0.04500  0.37073  0.43685  1.0000
  H   H12       1.0  0.45645  0.19062  0.43710  1.0000
  H   H13       1.0  0.95034  0.55880  0.72530  1.0000
  H   H14       1.0  0.54835  0.71841  0.72509  1.0000
  H   H15       1.0  0.04969  0.44117  0.27470  1.0000
  H   H16       1.0  0.45168  0.28157  0.27491  1.0000
  H   H17       1.0  0.08502  0.29371  0.04439  1.0000
  H   H18       1.0  0.41507  0.66194  0.04440  1.0000
  H   H19       1.0  0.91496  0.70630  0.95561  1.0000
  H   H20       1.0  0.58491  0.33806  0.95560  1.0000
  H   H21       1.0  0.11311  0.36639  0.93977  1.0000
  H   H22       1.0  0.38705  0.69377  0.93976  1.0000
  H   H23       1.0  0.88688  0.63361  0.06023  1.0000
  H   H24       1.0  0.61294  0.30624  0.06024  1.0000
  C   C1        1.0  0.25004  0.91554  0.16820  1.0000
  C   C2        1.0  0.74992  0.08447  0.83180  1.0000
  C   C3        1.0  0.25019  0.86562  0.26620  1.0000
  C   C4        1.0  0.74981  0.13439  0.73380  1.0000
  C   C5        1.0  0.05156  0.85535  0.31301  1.0000
  C   C6        1.0  0.44869  0.82939  0.31291  1.0000
  C   C7        1.0  0.94843  0.14465  0.68699  1.0000
  C   C8        1.0  0.55131  0.17060  0.68709  1.0000
  C   C9        1.0  0.05134  0.81161  0.40422  1.0000
  C   C10       1.0  0.44865  0.78268  0.40417  1.0000
  C   C11       1.0  0.94866  0.18837  0.59578  1.0000
  C   C12       1.0  0.55135  0.21732  0.59583  1.0000
  C   C13       1.0  0.24982  0.77350  0.45226  1.0000
  C   C14       1.0  0.75019  0.22650  0.54774  1.0000
  C   C15       1.0  0.24942  0.72580  0.54938  1.0000
  C   C16       1.0  0.75061  0.27419  0.45063  1.0000
  C   C17       1.0  0.08211  0.65610  0.59740  1.0000
  C   C18       1.0  0.41640  0.74836  0.59729  1.0000
  C   C19       1.0  0.91793  0.34389  0.40259  1.0000
  C   C20       1.0  0.58365  0.25164  0.40272  1.0000
  C   C21       1.0  0.07966  0.61352  0.68864  1.0000
  C   C22       1.0  0.41879  0.70023  0.68855  1.0000
  C   C23       1.0  0.92036  0.38648  0.31136  1.0000
  C   C24       1.0  0.58125  0.29977  0.31144  1.0000
  C   C25       1.0  0.24922  0.63355  0.73526  1.0000
  C   C26       1.0  0.75080  0.36644  0.26475  1.0000
  C   C27       1.0  0.24975  0.58398  0.83308  1.0000
  C   C28       1.0  0.75026  0.41603  0.16692  1.0000
  O   O1        1.0  0.06356  0.94202  0.13027  1.0000
  O   O2        1.0  0.43603  0.92827  0.13024  1.0000
  O   O3        1.0  0.93641  0.05799  0.86973  1.0000
  O   O4        1.0  0.56393  0.07177  0.86976  1.0000
  O   O5        1.0  0.06509  0.57058  0.87253  1.0000
  O   O6        1.0  0.43493  0.55714  0.87235  1.0000
  O   O7        1.0  0.93493  0.42942  0.12747  1.0000
  O   O8        1.0  0.56505  0.44287  0.12765  1.0000
  O   O9        1.0  0.14491  0.23703  0.99014  1.0000
  O   O10       1.0  0.35520  0.77275  0.99025  1.0000
  O   O11       1.0  0.85507  0.76298  0.00986  1.0000
  O   O12       1.0  0.64478  0.22727  0.00975  1.0000
