data_image0
_chemical_formula_structural       CoH30C28N4O12
_chemical_formula_sum              "Co1 H30 C28 N4 O12"
_cell_length_a       7.07883
_cell_length_b       9.23426
_cell_length_c       11.5284
_cell_angle_alpha    87.6589
_cell_angle_beta     89.2405
_cell_angle_gamma    66.1998

_space_group_name_H-M_alt    "P 1"
_space_group_IT_number       1

loop_
  _space_group_symop_operation_xyz
  'x, y, z'

loop_
  _atom_site_type_symbol
  _atom_site_label
  _atom_site_symmetry_multiplicity
  _atom_site_fract_x
  _atom_site_fract_y
  _atom_site_fract_z
  _atom_site_occupancy
  Co  Co1       1.0  1.00000  0.50000  0.00000  1.0000
  H   H1        1.0  0.57176  0.43236  0.71726  1.0000
  H   H2        1.0  0.42825  0.56763  0.28275  1.0000
  H   H3        1.0  0.39058  0.39028  0.03621  1.0000
  H   H4        1.0  0.60942  0.60972  0.96379  1.0000
  H   H5        1.0  0.26940  0.55646  0.08318  1.0000
  H   H6        1.0  0.73060  0.44353  0.91682  1.0000
  H   H7        1.0  0.31983  0.08443  0.74077  1.0000
  H   H8        1.0  0.68018  0.91557  0.25923  1.0000
  H   H9        1.0  0.65075  0.52266  0.55701  1.0000
  H   H10       1.0  0.34926  0.47733  0.44300  1.0000
  H   H11       1.0  0.12838  0.99866  0.23846  1.0000
  H   H12       1.0  0.87161  0.00134  0.76154  1.0000
  H   H13       1.0  0.98535  0.29280  0.19577  1.0000
  H   H14       1.0  0.01463  0.70721  0.80422  1.0000
  H   H15       1.0  0.22846  0.23084  0.86526  1.0000
  H   H16       1.0  0.77154  0.76916  0.13474  1.0000
  H   H17       1.0  0.30687  0.81562  0.07928  1.0000
  H   H18       1.0  0.69312  0.18438  0.92071  1.0000
  H   H19       1.0  0.53756  0.75546  0.67793  1.0000
  H   H20       1.0  0.46245  0.24454  0.32208  1.0000
  H   H21       1.0  0.50429  0.93090  0.59432  1.0000
  H   H22       1.0  0.49572  0.06910  0.40569  1.0000
  H   H23       1.0  0.18007  0.79216  0.63618  1.0000
  H   H24       1.0  0.81993  0.20785  0.36382  1.0000
  H   H25       1.0  0.32220  0.77848  0.50800  1.0000
  H   H26       1.0  0.67782  0.22152  0.49200  1.0000
  H   H27       1.0  0.01740  0.09306  0.60385  1.0000
  H   H28       1.0  0.98262  0.90695  0.39614  1.0000
  H   H29       1.0  0.15828  0.07229  0.47413  1.0000
  H   H30       1.0  0.84174  0.92771  0.52586  1.0000
  C   C1        1.0  0.80495  0.51103  0.53231  1.0000
  C   C2        1.0  0.19506  0.48896  0.46770  1.0000
  C   C3        1.0  0.96280  0.46050  0.61514  1.0000
  C   C4        1.0  0.03720  0.53950  0.38487  1.0000
  C   C5        1.0  0.15998  0.44838  0.58148  1.0000
  C   C6        1.0  0.84002  0.55161  0.41853  1.0000
  C   C7        1.0  0.34274  0.38256  0.66150  1.0000
  C   C8        1.0  0.65726  0.61743  0.33850  1.0000
  C   C9        1.0  0.92197  0.43625  0.74142  1.0000
  C   C10       1.0  0.07803  0.56374  0.25858  1.0000
  C   C11       1.0  0.14955  0.04545  0.15340  1.0000
  C   C12       1.0  0.85045  0.95455  0.84660  1.0000
  C   C13       1.0  0.07242  0.20835  0.13163  1.0000
  C   C14       1.0  0.92757  0.79165  0.86837  1.0000
  C   C15       1.0  0.20390  0.17298  0.94445  1.0000
  C   C16       1.0  0.79609  0.82702  0.05555  1.0000
  C   C17       1.0  0.27357  0.00867  0.95753  1.0000
  C   C18       1.0  0.72642  0.99133  0.04247  1.0000
  C   C19       1.0  0.24989  0.94355  0.06556  1.0000
  C   C20       1.0  0.75010  0.05645  0.93443  1.0000
  C   C21       1.0  0.36423  0.89991  0.85935  1.0000
  C   C22       1.0  0.63577  0.10010  0.14065  1.0000
  C   C23       1.0  0.42458  0.87293  0.64923  1.0000
  C   C24       1.0  0.57542  0.12708  0.35077  1.0000
  C   C25       1.0  0.25098  0.85604  0.58055  1.0000
  C   C26       1.0  0.74902  0.14397  0.41945  1.0000
  C   C27       1.0  0.08595  0.01178  0.53268  1.0000
  C   C28       1.0  0.91406  0.98822  0.46732  1.0000
  N   N1        1.0  0.35134  0.96643  0.75191  1.0000
  N   N2        1.0  0.64866  0.03357  0.24809  1.0000
  N   N3        1.0  0.10277  0.27226  0.02879  1.0000
  N   N4        1.0  0.89722  0.72774  0.97121  1.0000
  O   O1        1.0  0.78163  0.38814  0.77259  1.0000
  O   O2        1.0  0.21837  0.61186  0.22741  1.0000
  O   O3        1.0  0.03493  0.46822  0.81106  1.0000
  O   O4        1.0  0.96507  0.53178  0.18895  1.0000
  O   O5        1.0  0.41241  0.24452  0.70140  1.0000
  O   O6        1.0  0.58759  0.75547  0.29861  1.0000
  O   O7        1.0  0.43064  0.48266  0.67447  1.0000
  O   O8        1.0  0.56936  0.51733  0.32553  1.0000
  O   O9        1.0  0.43779  0.75301  0.87747  1.0000
  O   O10       1.0  0.56221  0.24699  0.12253  1.0000
  O   O11       1.0  0.28208  0.49574  0.01149  1.0000
  O   O12       1.0  0.71791  0.50426  0.98851  1.0000
