data_image0
_chemical_formula_structural       CdH30C28N4O12
_chemical_formula_sum              "Cd1 H30 C28 N4 O12"
_cell_length_a       7.21743
_cell_length_b       9.11466
_cell_length_c       12.0481
_cell_angle_alpha    89.9697
_cell_angle_beta     95.0818
_cell_angle_gamma    68.4481

_space_group_name_H-M_alt    "P 1"
_space_group_IT_number       1

loop_
  _space_group_symop_operation_xyz
  'x, y, z'

loop_
  _atom_site_type_symbol
  _atom_site_label
  _atom_site_symmetry_multiplicity
  _atom_site_fract_x
  _atom_site_fract_y
  _atom_site_fract_z
  _atom_site_occupancy
  Cd  Cd1       1.0  0.50000  0.00001  1.00000  1.0000
  H   H1        1.0  0.11530  0.90042  0.68875  1.0000
  H   H2        1.0  0.88471  0.09959  0.31124  1.0000
  H   H3        1.0  0.92243  0.92981  0.07315  1.0000
  H   H4        1.0  0.07757  0.07020  0.92685  1.0000
  H   H5        1.0  0.76584  0.07301  0.12756  1.0000
  H   H6        1.0  0.23417  0.92700  0.87244  1.0000
  H   H7        1.0  0.15454  0.42912  0.25397  1.0000
  H   H8        1.0  0.84547  0.57088  0.74603  1.0000
  H   H9        1.0  0.44683  0.27269  0.81577  1.0000
  H   H10       1.0  0.55320  0.72733  0.18423  1.0000
  H   H11       1.0  0.31573  0.57052  0.79370  1.0000
  H   H12       1.0  0.68429  0.42950  0.20630  1.0000
  H   H13       1.0  0.17267  0.73058  0.95742  1.0000
  H   H14       1.0  0.82734  0.26943  0.04258  1.0000
  H   H15       1.0  0.27329  0.29180  0.13415  1.0000
  H   H16       1.0  0.72671  0.70820  0.86583  1.0000
  H   H17       1.0  0.00189  0.56575  0.40022  1.0000
  H   H18       1.0  0.99807  0.43425  0.59976  1.0000
  H   H19       1.0  0.96054  0.74853  0.32915  1.0000
  H   H20       1.0  0.03947  0.25147  0.67084  1.0000
  H   H21       1.0  0.31356  0.71695  0.37559  1.0000
  H   H22       1.0  0.68645  0.28302  0.62444  1.0000
  H   H23       1.0  0.19272  0.71902  0.49645  1.0000
  H   H24       1.0  0.80723  0.28097  0.50357  1.0000
  H   H25       1.0  0.46824  0.41824  0.39255  1.0000
  H   H26       1.0  0.53172  0.58173  0.60749  1.0000
  H   H27       1.0  0.34680  0.42202  0.51366  1.0000
  H   H28       1.0  0.65314  0.57798  0.48637  1.0000
  H   H29       1.0  0.83545  0.96307  0.44548  1.0000
  H   H30       1.0  0.16456  0.03692  0.55451  1.0000
  C   C1        1.0  0.37543  0.34897  0.88169  1.0000
  C   C2        1.0  0.62459  0.65104  0.11830  1.0000
  C   C3        1.0  0.30506  0.51290  0.87074  1.0000
  C   C4        1.0  0.69495  0.48712  0.12926  1.0000
  C   C5        1.0  0.22390  0.60206  0.96057  1.0000
  C   C6        1.0  0.77611  0.39795  0.03943  1.0000
  C   C7        1.0  0.21263  0.52497  0.05880  1.0000
  C   C8        1.0  0.78737  0.47503  0.94119  1.0000
  C   C9        1.0  0.28097  0.36027  0.06164  1.0000
  C   C10       1.0  0.71904  0.63974  0.93835  1.0000
  C   C11       1.0  0.13828  0.62281  0.15723  1.0000
  C   C12       1.0  0.86172  0.37720  0.84277  1.0000
  C   C13       1.0  0.07251  0.63117  0.35314  1.0000
  C   C14       1.0  0.92747  0.36882  0.64685  1.0000
  C   C15       1.0  0.24991  0.64781  0.42434  1.0000
  C   C16       1.0  0.75006  0.35217  0.57568  1.0000
  C   C17       1.0  0.41218  0.49022  0.46468  1.0000
  C   C18       1.0  0.58778  0.50976  0.53535  1.0000
  C   C19       1.0  0.55284  0.06453  0.26973  1.0000
  C   C20       1.0  0.44716  0.93547  0.73026  1.0000
  C   C21       1.0  0.52192  0.03800  0.38911  1.0000
  C   C22       1.0  0.47810  0.96199  0.61088  1.0000
  C   C23       1.0  0.68691  0.98064  0.46868  1.0000
  C   C24       1.0  0.31311  0.01935  0.53132  1.0000
  C   C25       1.0  0.66773  0.94193  0.57832  1.0000
  C   C26       1.0  0.33229  0.05807  0.42167  1.0000
  C   C27       1.0  0.85605  0.87222  0.65468  1.0000
  C   C28       1.0  0.14396  0.12778  0.34531  1.0000
  N   N1        1.0  0.36165  0.27450  0.97544  1.0000
  N   N2        1.0  0.63836  0.72550  0.02455  1.0000
  N   N3        1.0  0.13062  0.54688  0.25163  1.0000
  N   N4        1.0  0.86939  0.45312  0.74837  1.0000
  O   O1        1.0  0.45738  0.01504  0.19561  1.0000
  O   O2        1.0  0.54262  0.98498  0.80438  1.0000
  O   O3        1.0  0.67429  0.13317  0.25076  1.0000
  O   O4        1.0  0.32572  0.86684  0.74924  1.0000
  O   O5        1.0  0.89830  0.75211  0.71432  1.0000
  O   O6        1.0  0.10172  0.24789  0.28567  1.0000
  O   O7        1.0  0.97704  0.95000  0.64465  1.0000
  O   O8        1.0  0.02296  0.04999  0.35534  1.0000
  O   O9        1.0  0.09270  0.76901  0.15166  1.0000
  O   O10       1.0  0.90729  0.23099  0.84834  1.0000
  O   O11       1.0  0.80510  0.02858  0.05363  1.0000
  O   O12       1.0  0.19491  0.97142  0.94637  1.0000
