data_image0
_chemical_formula_structural       Zn2H50C46N8O14
_chemical_formula_sum              "Zn2 H50 C46 N8 O14"
_cell_length_a       9.66436
_cell_length_b       9.85636
_cell_length_c       14.531
_cell_angle_alpha    80.1573
_cell_angle_beta     76.8408
_cell_angle_gamma    61.8289

_space_group_name_H-M_alt    "P 1"
_space_group_IT_number       1

loop_
  _space_group_symop_operation_xyz
  'x, y, z'

loop_
  _atom_site_type_symbol
  _atom_site_label
  _atom_site_symmetry_multiplicity
  _atom_site_fract_x
  _atom_site_fract_y
  _atom_site_fract_z
  _atom_site_occupancy
  Zn  Zn1       1.0  0.84351  0.81364  0.51512  1.0000
  Zn  Zn2       1.0  0.15649  0.18636  0.48488  1.0000
  H   H1        1.0  0.83488  0.93437  0.33610  1.0000
  H   H2        1.0  0.16512  0.06563  0.66390  1.0000
  H   H3        1.0  0.81814  0.05778  0.40345  1.0000
  H   H4        1.0  0.18187  0.94222  0.59655  1.0000
  H   H5        1.0  0.24976  0.41069  0.71405  1.0000
  H   H6        1.0  0.75024  0.58931  0.28595  1.0000
  H   H7        1.0  0.55002  0.24362  0.98334  1.0000
  H   H8        1.0  0.44998  0.75637  0.01667  1.0000
  H   H9        1.0  0.40907  0.77852  0.50865  1.0000
  H   H10       1.0  0.59093  0.22148  0.49135  1.0000
  H   H11       1.0  0.89986  0.00740  0.62852  1.0000
  H   H12       1.0  0.10014  0.99260  0.37148  1.0000
  H   H13       1.0  0.73213  0.21345  0.74285  1.0000
  H   H14       1.0  0.26787  0.78655  0.25715  1.0000
  H   H15       1.0  0.33588  0.12969  0.73204  1.0000
  H   H16       1.0  0.66412  0.87032  0.26796  1.0000
  H   H17       1.0  0.51949  0.92627  0.62147  1.0000
  H   H18       1.0  0.48051  0.07373  0.37853  1.0000
  H   H19       1.0  0.22101  0.65509  0.79686  1.0000
  H   H20       1.0  0.77899  0.34491  0.20314  1.0000
  H   H21       1.0  0.17582  0.54398  0.89691  1.0000
  H   H22       1.0  0.82418  0.45603  0.10309  1.0000
  H   H23       1.0  0.96135  0.54874  0.82218  1.0000
  H   H24       1.0  0.03865  0.45127  0.17782  1.0000
  H   H25       1.0  0.00818  0.65862  0.72262  1.0000
  H   H26       1.0  0.99182  0.34138  0.27738  1.0000
  H   H27       1.0  0.93480  0.87095  0.82468  1.0000
  H   H28       1.0  0.06520  0.12906  0.17531  1.0000
  H   H29       1.0  0.77485  0.83062  0.82609  1.0000
  H   H30       1.0  0.22516  0.16938  0.17390  1.0000
  H   H31       1.0  0.84090  0.66012  0.97898  1.0000
  H   H32       1.0  0.15910  0.33989  0.02101  1.0000
  H   H33       1.0  0.97610  0.73049  0.98340  1.0000
  H   H34       1.0  0.02390  0.26951  0.01659  1.0000
  H   H35       1.0  0.62179  0.93407  0.97537  1.0000
  H   H36       1.0  0.37821  0.06594  0.02463  1.0000
  H   H37       1.0  0.70054  0.86914  0.08181  1.0000
  H   H38       1.0  0.29946  0.13085  0.91819  1.0000
  H   H39       1.0  0.85695  0.01317  0.03676  1.0000
  H   H40       1.0  0.14304  0.98683  0.96324  1.0000
  H   H41       1.0  0.80193  0.06799  0.92194  1.0000
  H   H42       1.0  0.19808  0.93202  0.07807  1.0000
  H   H43       1.0  0.20120  0.54818  0.34360  1.0000
  H   H44       1.0  0.79880  0.45182  0.65641  1.0000
  H   H45       1.0  0.44627  0.30622  0.29770  1.0000
  H   H46       1.0  0.55373  0.69377  0.70230  1.0000
  H   H47       1.0  0.38577  0.45694  0.00551  1.0000
  H   H48       1.0  0.61423  0.54305  0.99450  1.0000
  H   H49       1.0  0.15638  0.69606  0.06280  1.0000
  H   H50       1.0  0.84361  0.30394  0.93720  1.0000
  C   C1        1.0  0.16362  0.71388  0.53134  1.0000
  C   C2        1.0  0.83638  0.28611  0.46866  1.0000
  C   C3        1.0  0.33627  0.60049  0.51824  1.0000
  C   C4        1.0  0.66374  0.39950  0.48175  1.0000
  C   C5        1.0  0.44907  0.65580  0.50536  1.0000
  C   C6        1.0  0.55093  0.34420  0.49464  1.0000
  C   C7        1.0  0.61210  0.55802  0.48633  1.0000
  C   C8        1.0  0.38791  0.44197  0.51367  1.0000
  C   C9        1.0  0.72284  0.63144  0.46515  1.0000
  C   C10       1.0  0.27717  0.36856  0.53484  1.0000
  C   C11       1.0  0.77430  0.03986  0.65392  1.0000
  C   C12       1.0  0.22570  0.96014  0.34608  1.0000
  C   C13       1.0  0.68039  0.15358  0.71652  1.0000
  C   C14       1.0  0.31961  0.84642  0.28348  1.0000
  C   C15       1.0  0.51850  0.19252  0.74311  1.0000
  C   C16       1.0  0.48150  0.80749  0.25689  1.0000
  C   C17       1.0  0.45946  0.10788  0.71049  1.0000
  C   C18       1.0  0.54054  0.89213  0.28951  1.0000
  C   C19       1.0  0.56143  0.99357  0.64913  1.0000
  C   C20       1.0  0.43857  0.00643  0.35087  1.0000
  C   C21       1.0  0.41553  0.32580  0.80351  1.0000
  C   C22       1.0  0.58447  0.67420  0.19649  1.0000
  C   C23       1.0  0.17362  0.57016  0.82054  1.0000
  C   C24       1.0  0.82638  0.42985  0.17946  1.0000
  C   C25       1.0  0.00528  0.63586  0.79969  1.0000
  C   C26       1.0  0.99471  0.36414  0.20030  1.0000
  C   C27       1.0  0.89108  0.78367  0.84902  1.0000
  C   C28       1.0  0.10892  0.21634  0.15098  1.0000
  C   C29       1.0  0.86590  0.76023  0.95741  1.0000
  C   C30       1.0  0.13410  0.23977  0.04259  1.0000
  C   C31       1.0  0.72886  0.90001  0.00594  1.0000
  C   C32       1.0  0.27114  0.09999  0.99406  1.0000
  C   C33       1.0  0.76250  0.03940  0.99657  1.0000
  C   C34       1.0  0.23750  0.96060  0.00343  1.0000
  C   C35       1.0  0.58768  0.21299  0.12250  1.0000
  C   C36       1.0  0.41232  0.78700  0.87750  1.0000
  C   C37       1.0  0.24750  0.52522  0.26903  1.0000
  C   C38       1.0  0.75250  0.47478  0.73097  1.0000
  C   C39       1.0  0.38304  0.38884  0.24366  1.0000
  C   C40       1.0  0.61696  0.61116  0.75634  1.0000
  C   C41       1.0  0.43793  0.35945  0.14792  1.0000
  C   C42       1.0  0.56207  0.64054  0.85209  1.0000
  C   C43       1.0  0.35206  0.47066  0.08153  1.0000
  C   C44       1.0  0.64794  0.52934  0.91848  1.0000
  C   C45       1.0  0.22113  0.60576  0.11391  1.0000
  C   C46       1.0  0.77887  0.39423  0.88609  1.0000
  N   N1        1.0  0.71587  0.96210  0.61954  1.0000
  N   N2        1.0  0.28413  0.03790  0.38046  1.0000
  N   N3        1.0  0.27872  0.42776  0.77428  1.0000
  N   N4        1.0  0.72128  0.57224  0.22572  1.0000
  N   N5        1.0  0.62261  0.17662  0.03171  1.0000
  N   N6        1.0  0.37740  0.82338  0.96829  1.0000
  N   N7        1.0  0.16775  0.63524  0.20557  1.0000
  N   N8        1.0  0.83225  0.36476  0.79443  1.0000
  O   O1        1.0  0.07216  0.67813  0.49937  1.0000
  O   O2        1.0  0.92784  0.32187  0.50063  1.0000
  O   O3        1.0  0.11567  0.83765  0.56937  1.0000
  O   O4        1.0  0.88433  0.16234  0.43063  1.0000
  O   O5        1.0  0.80665  0.62615  0.38517  1.0000
  O   O6        1.0  0.19335  0.37385  0.61483  1.0000
  O   O7        1.0  0.71232  0.70635  0.53337  1.0000
  O   O8        1.0  0.28768  0.29365  0.46663  1.0000
  O   O9        1.0  0.46158  0.33972  0.87361  1.0000
  O   O10       1.0  0.53841  0.66027  0.12639  1.0000
  O   O11       1.0  0.67319  0.13269  0.18317  1.0000
  O   O12       1.0  0.32681  0.86730  0.81683  1.0000
  O   O13       1.0  0.79220  0.97067  0.39959  1.0000
  O   O14       1.0  0.20780  0.02933  0.60041  1.0000
