data_image0
_chemical_formula_structural       Zn2H30C40N2O8
_chemical_formula_sum              "Zn2 H30 C40 N2 O8"
_cell_length_a       9.30397
_cell_length_b       10.1152
_cell_length_c       11.1334
_cell_angle_alpha    83.0818
_cell_angle_beta     75.6697
_cell_angle_gamma    66.1517

_space_group_name_H-M_alt    "P 1"
_space_group_IT_number       1

loop_
  _space_group_symop_operation_xyz
  'x, y, z'

loop_
  _atom_site_type_symbol
  _atom_site_label
  _atom_site_symmetry_multiplicity
  _atom_site_fract_x
  _atom_site_fract_y
  _atom_site_fract_z
  _atom_site_occupancy
  Zn  Zn1       1.0  0.55272  0.61716  0.50229  1.0000
  Zn  Zn2       1.0  0.44727  0.38284  0.49771  1.0000
  H   H1        1.0  0.87925  0.07397  0.25727  1.0000
  H   H2        1.0  0.12075  0.92603  0.74274  1.0000
  H   H3        1.0  0.12992  0.95580  0.09753  1.0000
  H   H4        1.0  0.87007  0.04421  0.90247  1.0000
  H   H5        1.0  0.31443  0.08264  0.01369  1.0000
  H   H6        1.0  0.68555  0.91737  0.98629  1.0000
  H   H7        1.0  0.24883  0.32738  0.08789  1.0000
  H   H8        1.0  0.75115  0.67263  0.91207  1.0000
  H   H9        1.0  0.99720  0.44429  0.24678  1.0000
  H   H10       1.0  0.00278  0.55573  0.75319  1.0000
  H   H11       1.0  0.51519  0.79841  0.12902  1.0000
  H   H12       1.0  0.48480  0.20159  0.87100  1.0000
  H   H13       1.0  0.48734  0.84860  0.90755  1.0000
  H   H14       1.0  0.51263  0.15143  0.09248  1.0000
  H   H15       1.0  0.34055  0.73772  0.82351  1.0000
  H   H16       1.0  0.65945  0.26230  0.17650  1.0000
  H   H17       1.0  0.21039  0.58516  0.96012  1.0000
  H   H18       1.0  0.78967  0.41481  0.03987  1.0000
  H   H19       1.0  0.24592  0.53073  0.17934  1.0000
  H   H20       1.0  0.75415  0.46922  0.82065  1.0000
  H   H21       1.0  0.87527  0.61152  0.39792  1.0000
  H   H22       1.0  0.12474  0.38846  0.60210  1.0000
  H   H23       1.0  0.03781  0.75379  0.40170  1.0000
  H   H24       1.0  0.96219  0.24621  0.59830  1.0000
  H   H25       1.0  0.62035  0.05056  0.64540  1.0000
  H   H26       1.0  0.37966  0.94942  0.35461  1.0000
  H   H27       1.0  0.47739  0.88919  0.63454  1.0000
  H   H28       1.0  0.52260  0.11081  0.36546  1.0000
  H   H29       1.0  0.85089  0.10532  0.58716  1.0000
  H   H30       1.0  0.14911  0.89467  0.41284  1.0000
  C   C1        1.0  0.77042  0.33954  0.35437  1.0000
  C   C2        1.0  0.22958  0.66046  0.64563  1.0000
  C   C3        1.0  0.92332  0.26605  0.26169  1.0000
  C   C4        1.0  0.07666  0.73397  0.73831  1.0000
  C   C5        1.0  0.96122  0.12836  0.21941  1.0000
  C   C6        1.0  0.03878  0.87165  0.78060  1.0000
  C   C7        1.0  0.10122  0.06265  0.13037  1.0000
  C   C8        1.0  0.89878  0.93736  0.86961  1.0000
  C   C9        1.0  0.20470  0.13442  0.08318  1.0000
  C   C10       1.0  0.79528  0.86559  0.91679  1.0000
  C   C11       1.0  0.16789  0.27174  0.12475  1.0000
  C   C12       1.0  0.83209  0.72828  0.87522  1.0000
  C   C13       1.0  0.02794  0.33708  0.21379  1.0000
  C   C14       1.0  0.97205  0.66295  0.78619  1.0000
  C   C15       1.0  0.41188  0.61990  0.29435  1.0000
  C   C16       1.0  0.58811  0.38008  0.70567  1.0000
  C   C17       1.0  0.38184  0.66203  0.16642  1.0000
  C   C18       1.0  0.61817  0.33794  0.83359  1.0000
  C   C19       1.0  0.44857  0.75293  0.09057  1.0000
  C   C20       1.0  0.55143  0.24707  0.90944  1.0000
  C   C21       1.0  0.43251  0.78041  0.96777  1.0000
  C   C22       1.0  0.56750  0.21960  0.03225  1.0000
  C   C23       1.0  0.34854  0.71911  0.92041  1.0000
  C   C24       1.0  0.65146  0.28092  0.07960  1.0000
  C   C25       1.0  0.27738  0.63183  0.99690  1.0000
  C   C26       1.0  0.72265  0.36817  0.00309  1.0000
  C   C27       1.0  0.29528  0.60244  0.11900  1.0000
  C   C28       1.0  0.70475  0.39753  0.88099  1.0000
  C   C29       1.0  0.82475  0.70976  0.45120  1.0000
  C   C30       1.0  0.17525  0.29023  0.54882  1.0000
  C   C31       1.0  0.91340  0.79063  0.45392  1.0000
  C   C32       1.0  0.08660  0.20937  0.54608  1.0000
  C   C33       1.0  0.84172  0.91713  0.52398  1.0000
  C   C34       1.0  0.15828  0.08286  0.47603  1.0000
  C   C35       1.0  0.68172  0.95264  0.59095  1.0000
  C   C36       1.0  0.31827  0.04736  0.40905  1.0000
  C   C37       1.0  0.60154  0.86493  0.58433  1.0000
  C   C38       1.0  0.39847  0.13507  0.41568  1.0000
  C   C39       1.0  0.92369  0.01078  0.52992  1.0000
  C   C40       1.0  0.07631  0.98923  0.47008  1.0000
  N   N1        1.0  0.67048  0.74615  0.51438  1.0000
  N   N2        1.0  0.32952  0.25385  0.48563  1.0000
  O   O1        1.0  0.74760  0.46225  0.39087  1.0000
  O   O2        1.0  0.25238  0.53778  0.60911  1.0000
  O   O3        1.0  0.67278  0.27545  0.38860  1.0000
  O   O4        1.0  0.32724  0.72454  0.61143  1.0000
  O   O5        1.0  0.46563  0.69393  0.34279  1.0000
  O   O6        1.0  0.53432  0.30607  0.65723  1.0000
  O   O7        1.0  0.61598  0.48961  0.65553  1.0000
  O   O8        1.0  0.38405  0.51035  0.34446  1.0000
