data_image0
_chemical_formula_structural       Zn2H40C52N4O8
_chemical_formula_sum              "Zn2 H40 C52 N4 O8"
_cell_length_a       10.7095
_cell_length_b       10.7292
_cell_length_c       12.175
_cell_angle_alpha    96.6829
_cell_angle_beta     106.486
_cell_angle_gamma    105.008

_space_group_name_H-M_alt    "P 1"
_space_group_IT_number       1

loop_
  _space_group_symop_operation_xyz
  'x, y, z'

loop_
  _atom_site_type_symbol
  _atom_site_label
  _atom_site_symmetry_multiplicity
  _atom_site_fract_x
  _atom_site_fract_y
  _atom_site_fract_z
  _atom_site_occupancy
  Zn  Zn1       1.0  0.89052  0.88704  0.56871  1.0000
  Zn  Zn2       1.0  0.10948  0.11296  0.43129  1.0000
  H   H1        1.0  0.99834  0.00260  0.82836  1.0000
  H   H2        1.0  0.00167  0.99741  0.17164  1.0000
  H   H3        1.0  0.18047  0.00390  0.01076  1.0000
  H   H4        1.0  0.81953  0.99611  0.98924  1.0000
  H   H5        1.0  0.31364  0.75145  0.79450  1.0000
  H   H6        1.0  0.68636  0.24855  0.20551  1.0000
  H   H7        1.0  0.12464  0.75971  0.62339  1.0000
  H   H8        1.0  0.87536  0.24028  0.37662  1.0000
  H   H9        1.0  0.43853  0.81409  0.99384  1.0000
  H   H10       1.0  0.56147  0.18591  0.00616  1.0000
  H   H11       1.0  0.78412  0.79321  0.30056  1.0000
  H   H12       1.0  0.21588  0.20679  0.69944  1.0000
  H   H13       1.0  0.59698  0.79524  0.12762  1.0000
  H   H14       1.0  0.40302  0.20476  0.87238  1.0000
  H   H15       1.0  0.47818  0.04551  0.35740  1.0000
  H   H16       1.0  0.52182  0.95450  0.64260  1.0000
  H   H17       1.0  0.67220  0.03131  0.52231  1.0000
  H   H18       1.0  0.32780  0.96868  0.47769  1.0000
  H   H19       1.0  0.34470  0.98865  0.15491  1.0000
  H   H20       1.0  0.65531  0.01136  0.84509  1.0000
  H   H21       1.0  0.79631  0.15805  0.72193  1.0000
  H   H22       1.0  0.20368  0.84196  0.27807  1.0000
  H   H23       1.0  0.67695  0.31489  0.77816  1.0000
  H   H24       1.0  0.32305  0.68512  0.22183  1.0000
  H   H25       1.0  0.72509  0.53648  0.72803  1.0000
  H   H26       1.0  0.27491  0.46353  0.27196  1.0000
  H   H27       1.0  0.89214  0.60387  0.62473  1.0000
  H   H28       1.0  0.10786  0.39614  0.37527  1.0000
  H   H29       1.0  0.01231  0.44659  0.56948  1.0000
  H   H30       1.0  0.98769  0.55340  0.43051  1.0000
  H   H31       1.0  0.49319  0.61333  0.53507  1.0000
  H   H32       1.0  0.50682  0.38666  0.46494  1.0000
  H   H33       1.0  0.30647  0.44255  0.56695  1.0000
  H   H34       1.0  0.69353  0.55745  0.43305  1.0000
  H   H35       1.0  0.30042  0.43596  0.76932  1.0000
  H   H36       1.0  0.69958  0.56404  0.23068  1.0000
  H   H37       1.0  0.48237  0.59650  0.93901  1.0000
  H   H38       1.0  0.51762  0.40350  0.06099  1.0000
  H   H39       1.0  0.66693  0.77022  0.90501  1.0000
  H   H40       1.0  0.33307  0.22977  0.09499  1.0000
  C   C1        1.0  0.07185  0.94948  0.82598  1.0000
  C   C2        1.0  0.92816  0.05053  0.17401  1.0000
  C   C3        1.0  0.17333  0.94926  0.92661  1.0000
  C   C4        1.0  0.82667  0.05075  0.07339  1.0000
  C   C5        1.0  0.26480  0.87766  0.91846  1.0000
  C   C6        1.0  0.73520  0.12235  0.08154  1.0000
  C   C7        1.0  0.24639  0.80878  0.80664  1.0000
  C   C8        1.0  0.75362  0.19122  0.19337  1.0000
  C   C9        1.0  0.14148  0.81315  0.71067  1.0000
  C   C10       1.0  0.85852  0.18685  0.28933  1.0000
  C   C11       1.0  0.37605  0.87174  0.01743  1.0000
  C   C12       1.0  0.62396  0.12826  0.98257  1.0000
  C   C13       1.0  0.71340  0.84728  0.30933  1.0000
  C   C14       1.0  0.28660  0.15272  0.69067  1.0000
  C   C15       1.0  0.60815  0.84938  0.21300  1.0000
  C   C16       1.0  0.39185  0.15063  0.78700  1.0000
  C   C17       1.0  0.51906  0.92141  0.22665  1.0000
  C   C18       1.0  0.48094  0.07860  0.77335  1.0000
  C   C19       1.0  0.54332  0.98759  0.34120  1.0000
  C   C20       1.0  0.45668  0.01241  0.65880  1.0000
  C   C21       1.0  0.65108  0.97990  0.43318  1.0000
  C   C22       1.0  0.34892  0.02010  0.56682  1.0000
  C   C23       1.0  0.40628  0.93012  0.13034  1.0000
  C   C24       1.0  0.59373  0.06988  0.86966  1.0000
  C   C25       1.0  0.97203  0.19533  0.59908  1.0000
  C   C26       1.0  0.02796  0.80467  0.40092  1.0000
  C   C27       1.0  0.90930  0.29291  0.64054  1.0000
  C   C28       1.0  0.09070  0.70708  0.35946  1.0000
  C   C29       1.0  0.81605  0.25589  0.70084  1.0000
  C   C30       1.0  0.18394  0.74411  0.29916  1.0000
  C   C31       1.0  0.75045  0.34379  0.73246  1.0000
  C   C32       1.0  0.24954  0.65622  0.26754  1.0000
  C   C33       1.0  0.77782  0.46867  0.70473  1.0000
  C   C34       1.0  0.22218  0.53134  0.29527  1.0000
  C   C35       1.0  0.87214  0.50659  0.64637  1.0000
  C   C36       1.0  0.12786  0.49341  0.35363  1.0000
  C   C37       1.0  0.93806  0.41912  0.61469  1.0000
  C   C38       1.0  0.06194  0.58088  0.38531  1.0000
  C   C39       1.0  0.70671  0.80295  0.69968  1.0000
  C   C40       1.0  0.29329  0.19705  0.30033  1.0000
  C   C41       1.0  0.59087  0.70234  0.71806  1.0000
  C   C42       1.0  0.40913  0.29765  0.28195  1.0000
  C   C43       1.0  0.48895  0.60994  0.62309  1.0000
  C   C44       1.0  0.51105  0.39005  0.37691  1.0000
  C   C45       1.0  0.38448  0.51458  0.64126  1.0000
  C   C46       1.0  0.61552  0.48541  0.35874  1.0000
  C   C47       1.0  0.38211  0.51013  0.75501  1.0000
  C   C48       1.0  0.61789  0.48986  0.24499  1.0000
  C   C49       1.0  0.48390  0.60137  0.85028  1.0000
  C   C50       1.0  0.51610  0.39863  0.14972  1.0000
  C   C51       1.0  0.58692  0.69812  0.83180  1.0000
  C   C52       1.0  0.41308  0.30187  0.16821  1.0000
  N   N1        1.0  0.05509  0.88236  0.71904  1.0000
  N   N2        1.0  0.94491  0.11764  0.28096  1.0000
  N   N3        1.0  0.73602  0.91117  0.41840  1.0000
  N   N4        1.0  0.26398  0.08883  0.58160  1.0000
  O   O1        1.0  0.94738  0.08495  0.62982  1.0000
  O   O2        1.0  0.05261  0.91505  0.37018  1.0000
  O   O3        1.0  0.04638  0.22973  0.53512  1.0000
  O   O4        1.0  0.95361  0.77026  0.46488  1.0000
  O   O5        1.0  0.73845  0.76709  0.60874  1.0000
  O   O6        1.0  0.26155  0.23291  0.39126  1.0000
  O   O7        1.0  0.76380  0.91135  0.77114  1.0000
  O   O8        1.0  0.23621  0.08865  0.22887  1.0000
