data_image0
_chemical_formula_structural       Zn2H40C52N4O8
_chemical_formula_sum              "Zn2 H40 C52 N4 O8"
_cell_length_a       9.91339
_cell_length_b       10.359
_cell_length_c       11.848
_cell_angle_alpha    92.205
_cell_angle_beta     98.4948
_cell_angle_gamma    95.2603

_space_group_name_H-M_alt    "P 1"
_space_group_IT_number       1

loop_
  _space_group_symop_operation_xyz
  'x, y, z'

loop_
  _atom_site_type_symbol
  _atom_site_label
  _atom_site_symmetry_multiplicity
  _atom_site_fract_x
  _atom_site_fract_y
  _atom_site_fract_z
  _atom_site_occupancy
  Zn  Zn1       1.0  0.64676  0.92876  0.58855  1.0000
  Zn  Zn2       1.0  0.35323  0.07124  0.41145  1.0000
  H   H1        1.0  0.91255  0.55390  0.82942  1.0000
  H   H2        1.0  0.08745  0.44610  0.17058  1.0000
  H   H3        1.0  0.11639  0.54045  0.98130  1.0000
  H   H4        1.0  0.88361  0.45955  0.01869  1.0000
  H   H5        1.0  0.25593  0.74247  0.06357  1.0000
  H   H6        1.0  0.74407  0.25753  0.93642  1.0000
  H   H7        1.0  0.19327  0.95781  0.99587  1.0000
  H   H8        1.0  0.80672  0.04219  0.00413  1.0000
  H   H9        1.0  0.99023  0.96808  0.84568  1.0000
  H   H10       1.0  0.00977  0.03192  0.15432  1.0000
  H   H11       1.0  0.57815  0.09071  0.86494  1.0000
  H   H12       1.0  0.42185  0.90929  0.13506  1.0000
  H   H13       1.0  0.52745  0.15367  0.05829  1.0000
  H   H14       1.0  0.47255  0.84633  0.94171  1.0000
  H   H15       1.0  0.30350  0.23566  0.07911  1.0000
  H   H16       1.0  0.69650  0.76434  0.92089  1.0000
  H   H17       1.0  0.12987  0.25235  0.90689  1.0000
  H   H18       1.0  0.87013  0.74765  0.09311  1.0000
  H   H19       1.0  0.18548  0.19422  0.71313  1.0000
  H   H20       1.0  0.81452  0.80578  0.28687  1.0000
  H   H21       1.0  0.51053  0.68362  0.45478  1.0000
  H   H22       1.0  0.48947  0.31639  0.54522  1.0000
  H   H23       1.0  0.32567  0.50902  0.46554  1.0000
  H   H24       1.0  0.67433  0.49098  0.53446  1.0000
  H   H25       1.0  0.26054  0.70108  0.78206  1.0000
  H   H26       1.0  0.73947  0.29892  0.21794  1.0000
  H   H27       1.0  0.44690  0.87047  0.75403  1.0000
  H   H28       1.0  0.55310  0.12953  0.24598  1.0000
  H   H29       1.0  0.11663  0.50665  0.71625  1.0000
  H   H30       1.0  0.88337  0.49335  0.28375  1.0000
  H   H31       1.0  0.16419  0.38178  0.48570  1.0000
  H   H32       1.0  0.83581  0.61822  0.51430  1.0000
  H   H33       1.0  0.03433  0.19278  0.41461  1.0000
  H   H34       1.0  0.96567  0.80722  0.58539  1.0000
  H   H35       1.0  0.84493  0.01944  0.42365  1.0000
  H   H36       1.0  0.15507  0.98057  0.57635  1.0000
  H   H37       1.0  0.75787  0.18215  0.72504  1.0000
  H   H38       1.0  0.24213  0.81785  0.27497  1.0000
  H   H39       1.0  0.94071  0.36391  0.72907  1.0000
  H   H40       1.0  0.05929  0.63609  0.27093  1.0000
  C   C1        1.0  0.81942  0.76611  0.73504  1.0000
  C   C2        1.0  0.18058  0.23389  0.26495  1.0000
  C   C3        1.0  0.94017  0.76115  0.82873  1.0000
  C   C4        1.0  0.05982  0.23885  0.17127  1.0000
  C   C5        1.0  0.97587  0.64092  0.86732  1.0000
  C   C6        1.0  0.02412  0.35908  0.13268  1.0000
  C   C7        1.0  0.08873  0.63426  0.95180  1.0000
  C   C8        1.0  0.91127  0.36574  0.04819  1.0000
  C   C9        1.0  0.16714  0.74818  0.99832  1.0000
  C   C10       1.0  0.83286  0.25182  0.00167  1.0000
  C   C11       1.0  0.13241  0.86859  0.96020  1.0000
  C   C12       1.0  0.86758  0.13141  0.03980  1.0000
  C   C13       1.0  0.01912  0.87501  0.87597  1.0000
  C   C14       1.0  0.98088  0.12499  0.12403  1.0000
  C   C15       1.0  0.42174  0.10879  0.66198  1.0000
  C   C16       1.0  0.57827  0.89121  0.33802  1.0000
  C   C17       1.0  0.38614  0.14176  0.77759  1.0000
  C   C18       1.0  0.61386  0.85825  0.22241  1.0000
  C   C19       1.0  0.48146  0.12861  0.87533  1.0000
  C   C20       1.0  0.51854  0.87139  0.12467  1.0000
  C   C21       1.0  0.45201  0.16317  0.98314  1.0000
  C   C22       1.0  0.54799  0.83683  0.01686  1.0000
  C   C23       1.0  0.32626  0.20909  0.99463  1.0000
  C   C24       1.0  0.67374  0.79091  0.00537  1.0000
  C   C25       1.0  0.22919  0.21907  0.89766  1.0000
  C   C26       1.0  0.77081  0.78093  0.10234  1.0000
  C   C27       1.0  0.25924  0.18597  0.78953  1.0000
  C   C28       1.0  0.74077  0.81403  0.21047  1.0000
  C   C29       1.0  0.45145  0.68407  0.52527  1.0000
  C   C30       1.0  0.54855  0.31593  0.47473  1.0000
  C   C31       1.0  0.34871  0.58623  0.53274  1.0000
  C   C32       1.0  0.65129  0.41377  0.46726  1.0000
  C   C33       1.0  0.27538  0.58958  0.62596  1.0000
  C   C34       1.0  0.72462  0.41042  0.37404  1.0000
  C   C35       1.0  0.31350  0.69337  0.70800  1.0000
  C   C36       1.0  0.68650  0.30664  0.29200  1.0000
  C   C37       1.0  0.41695  0.78783  0.69302  1.0000
  C   C38       1.0  0.58305  0.21218  0.30698  1.0000
  C   C39       1.0  0.16342  0.49312  0.63926  1.0000
  C   C40       1.0  0.83658  0.50688  0.36074  1.0000
  C   C41       1.0  0.11638  0.39353  0.56247  1.0000
  C   C42       1.0  0.88362  0.60647  0.43753  1.0000
  C   C43       1.0  0.00498  0.29475  0.57080  1.0000
  C   C44       1.0  0.99502  0.70525  0.42920  1.0000
  C   C45       1.0  0.97483  0.19485  0.48468  1.0000
  C   C46       1.0  0.02517  0.80515  0.51532  1.0000
  C   C47       1.0  0.86987  0.09800  0.48921  1.0000
  C   C48       1.0  0.13013  0.90200  0.51079  1.0000
  C   C49       1.0  0.82206  0.18887  0.65799  1.0000
  C   C50       1.0  0.17794  0.81113  0.34201  1.0000
  C   C51       1.0  0.92462  0.28963  0.65952  1.0000
  C   C52       1.0  0.07538  0.71037  0.34048  1.0000
  N   N1        1.0  0.48471  0.78488  0.60275  1.0000
  N   N2        1.0  0.51529  0.21512  0.39726  1.0000
  N   N3        1.0  0.79367  0.09413  0.57410  1.0000
  N   N4        1.0  0.20633  0.90587  0.42590  1.0000
  O   O1        1.0  0.78124  0.88137  0.71999  1.0000
  O   O2        1.0  0.21876  0.11863  0.28001  1.0000
  O   O3        1.0  0.76845  0.66395  0.67874  1.0000
  O   O4        1.0  0.23155  0.33605  0.32125  1.0000
  O   O5        1.0  0.33496  0.12937  0.57495  1.0000
  O   O6        1.0  0.66504  0.87063  0.42505  1.0000
  O   O7        1.0  0.53631  0.06472  0.65819  1.0000
  O   O8        1.0  0.46370  0.93529  0.34181  1.0000
