data_image0
_chemical_formula_structural       Zn4H16C12S4N16O12
_chemical_formula_sum              "Zn4 H16 C12 S4 N16 O12"
_cell_length_a       6.63429
_cell_length_b       8.58899
_cell_length_c       12.7423
_cell_angle_alpha    90
_cell_angle_beta     103.184
_cell_angle_gamma    90

_space_group_name_H-M_alt    "P 1"
_space_group_IT_number       1

loop_
  _space_group_symop_operation_xyz
  'x, y, z'

loop_
  _atom_site_type_symbol
  _atom_site_label
  _atom_site_symmetry_multiplicity
  _atom_site_fract_x
  _atom_site_fract_y
  _atom_site_fract_z
  _atom_site_occupancy
  Zn  Zn1       1.0  0.99257  0.51313  0.30962  1.0000
  Zn  Zn2       1.0  0.00742  0.01314  0.19038  1.0000
  Zn  Zn3       1.0  0.00743  0.48686  0.69038  1.0000
  Zn  Zn4       1.0  0.99258  0.98686  0.80962  1.0000
  H   H1        1.0  0.88582  0.63978  0.47395  1.0000
  H   H2        1.0  0.11418  0.13979  0.02605  1.0000
  H   H3        1.0  0.11418  0.36021  0.52605  1.0000
  H   H4        1.0  0.88582  0.86022  0.97395  1.0000
  H   H5        1.0  0.91833  0.77744  0.39489  1.0000
  H   H6        1.0  0.08168  0.27744  0.10512  1.0000
  H   H7        1.0  0.08168  0.22256  0.60512  1.0000
  H   H8        1.0  0.91833  0.72256  0.89489  1.0000
  H   H9        1.0  0.38231  0.88033  0.02480  1.0000
  H   H10       1.0  0.61768  0.38033  0.47520  1.0000
  H   H11       1.0  0.61768  0.11968  0.97520  1.0000
  H   H12       1.0  0.38231  0.61967  0.52479  1.0000
  H   H13       1.0  0.46951  0.71263  0.96649  1.0000
  H   H14       1.0  0.53049  0.21262  0.53351  1.0000
  H   H15       1.0  0.53049  0.28738  0.03351  1.0000
  H   H16       1.0  0.46951  0.78737  0.46649  1.0000
  C   C1        1.0  0.67676  0.79199  0.11441  1.0000
  C   C2        1.0  0.32324  0.29198  0.38559  1.0000
  C   C3        1.0  0.32324  0.20802  0.88559  1.0000
  C   C4        1.0  0.67677  0.70801  0.61440  1.0000
  C   C5        1.0  0.46009  0.76746  0.04308  1.0000
  C   C6        1.0  0.53990  0.26746  0.45692  1.0000
  C   C7        1.0  0.53990  0.23254  0.95692  1.0000
  C   C8        1.0  0.46009  0.73254  0.54308  1.0000
  C   C9        1.0  0.25807  0.70059  0.18195  1.0000
  C   C10       1.0  0.74192  0.20059  0.31805  1.0000
  C   C11       1.0  0.74193  0.29941  0.81805  1.0000
  C   C12       1.0  0.25808  0.79941  0.68195  1.0000
  S   S1        1.0  0.30112  0.86887  0.25532  1.0000
  S   S2        1.0  0.69888  0.36887  0.24468  1.0000
  S   S3        1.0  0.69888  0.13113  0.74468  1.0000
  S   S4        1.0  0.30112  0.63113  0.75532  1.0000
  N   N1        1.0  0.33454  0.66802  0.09376  1.0000
  N   N2        1.0  0.66546  0.16801  0.40624  1.0000
  N   N3        1.0  0.66546  0.33199  0.90624  1.0000
  N   N4        1.0  0.33454  0.83198  0.59376  1.0000
  N   N5        1.0  0.27900  0.52330  0.05778  1.0000
  N   N6        1.0  0.72100  0.02329  0.44223  1.0000
  N   N7        1.0  0.72100  0.47671  0.94223  1.0000
  N   N8        1.0  0.27900  0.97670  0.55777  1.0000
  N   N9        1.0  0.17033  0.46700  0.12119  1.0000
  N   N10       1.0  0.82967  0.96700  0.37881  1.0000
  N   N11       1.0  0.82968  0.53300  0.87881  1.0000
  N   N12       1.0  0.17033  0.03300  0.62119  1.0000
  N   N13       1.0  0.15444  0.57110  0.19845  1.0000
  N   N14       1.0  0.84557  0.07110  0.30156  1.0000
  N   N15       1.0  0.84557  0.42890  0.80156  1.0000
  N   N16       1.0  0.15444  0.92890  0.69845  1.0000
  O   O1        1.0  0.73883  0.71536  0.19772  1.0000
  O   O2        1.0  0.26117  0.21536  0.30228  1.0000
  O   O3        1.0  0.26117  0.28464  0.80228  1.0000
  O   O4        1.0  0.73884  0.78464  0.69772  1.0000
  O   O5        1.0  0.78039  0.90121  0.07855  1.0000
  O   O6        1.0  0.21960  0.40121  0.42145  1.0000
  O   O7        1.0  0.21960  0.09879  0.92145  1.0000
  O   O8        1.0  0.78039  0.59879  0.57855  1.0000
  O   O9        1.0  0.96977  0.67132  0.42162  1.0000
  O   O10       1.0  0.03023  0.17133  0.07838  1.0000
  O   O11       1.0  0.03023  0.32867  0.57838  1.0000
  O   O12       1.0  0.96977  0.82868  0.92162  1.0000
