data_image0
_chemical_formula_structural       Mn4H40C24S8N32O24
_chemical_formula_sum              "Mn4 H40 C24 S8 N32 O24"
_cell_length_a       7.03885
_cell_length_b       7.60369
_cell_length_c       27.104
_cell_angle_alpha    91.2094
_cell_angle_beta     90
_cell_angle_gamma    90

_space_group_name_H-M_alt    "P 1"
_space_group_IT_number       1

loop_
  _space_group_symop_operation_xyz
  'x, y, z'

loop_
  _atom_site_type_symbol
  _atom_site_label
  _atom_site_symmetry_multiplicity
  _atom_site_fract_x
  _atom_site_fract_y
  _atom_site_fract_z
  _atom_site_occupancy
  Mn  Mn1       1.0  0.76301  0.74985  0.75013  1.0000
  Mn  Mn2       1.0  0.26300  0.25014  0.74988  1.0000
  Mn  Mn3       1.0  0.23700  0.25015  0.24988  1.0000
  Mn  Mn4       1.0  0.73700  0.74985  0.25013  1.0000
  H   H1        1.0  0.94480  0.88590  0.66188  1.0000
  H   H2        1.0  0.44480  0.11410  0.83812  1.0000
  H   H3        1.0  0.05520  0.11409  0.33812  1.0000
  H   H4        1.0  0.55519  0.88591  0.16188  1.0000
  H   H5        1.0  0.58062  0.61198  0.83865  1.0000
  H   H6        1.0  0.08061  0.38803  0.66135  1.0000
  H   H7        1.0  0.41938  0.38802  0.16135  1.0000
  H   H8        1.0  0.91938  0.61197  0.33865  1.0000
  H   H9        1.0  0.71850  0.50048  0.50575  1.0000
  H   H10       1.0  0.21851  0.49953  0.99425  1.0000
  H   H11       1.0  0.28148  0.49954  0.49426  1.0000
  H   H12       1.0  0.78149  0.50048  0.00575  1.0000
  H   H13       1.0  0.79009  0.00206  0.99337  1.0000
  H   H14       1.0  0.29009  0.99795  0.50664  1.0000
  H   H15       1.0  0.20991  0.99796  0.00663  1.0000
  H   H16       1.0  0.70991  0.00206  0.49337  1.0000
  H   H17       1.0  0.70191  0.14854  0.66441  1.0000
  H   H18       1.0  0.20191  0.85148  0.83559  1.0000
  H   H19       1.0  0.29809  0.85147  0.33559  1.0000
  H   H20       1.0  0.79809  0.14852  0.16441  1.0000
  H   H21       1.0  0.47744  0.24023  0.64883  1.0000
  H   H22       1.0  0.97746  0.75977  0.85117  1.0000
  H   H23       1.0  0.52255  0.75977  0.35117  1.0000
  H   H24       1.0  0.02254  0.24022  0.14883  1.0000
  H   H25       1.0  0.04769  0.25861  0.85135  1.0000
  H   H26       1.0  0.54770  0.74138  0.64865  1.0000
  H   H27       1.0  0.95231  0.74139  0.14865  1.0000
  H   H28       1.0  0.45231  0.25862  0.35135  1.0000
  H   H29       1.0  0.82604  0.35385  0.83457  1.0000
  H   H30       1.0  0.32605  0.64613  0.66542  1.0000
  H   H31       1.0  0.17396  0.64613  0.16542  1.0000
  H   H32       1.0  0.67396  0.35386  0.33458  1.0000
  H   H33       1.0  0.59068  0.48865  0.78988  1.0000
  H   H34       1.0  0.09067  0.51136  0.71013  1.0000
  H   H35       1.0  0.40933  0.51135  0.21012  1.0000
  H   H36       1.0  0.90934  0.48864  0.28988  1.0000
  H   H37       1.0  0.93298  0.01140  0.71023  1.0000
  H   H38       1.0  0.43298  0.98859  0.78977  1.0000
  H   H39       1.0  0.06702  0.98860  0.28976  1.0000
  H   H40       1.0  0.56702  0.01140  0.21023  1.0000
  C   C1        1.0  0.63841  0.39586  0.70134  1.0000
  C   C2        1.0  0.13843  0.60415  0.79866  1.0000
  C   C3        1.0  0.36158  0.60414  0.29866  1.0000
  C   C4        1.0  0.86158  0.39584  0.20134  1.0000
  C   C5        1.0  0.62706  0.27199  0.65647  1.0000
  C   C6        1.0  0.12707  0.72803  0.84353  1.0000
  C   C7        1.0  0.37293  0.72802  0.34353  1.0000
  C   C8        1.0  0.87293  0.27197  0.15647  1.0000
  C   C9        1.0  0.59931  0.39814  0.57200  1.0000
  C   C10       1.0  0.09932  0.60188  0.92801  1.0000
  C   C11       1.0  0.40068  0.60187  0.42801  1.0000
  C   C12       1.0  0.90069  0.39813  0.07199  1.0000
  C   C13       1.0  0.88747  0.10462  0.79838  1.0000
  C   C14       1.0  0.38749  0.89534  0.70162  1.0000
  C   C15       1.0  0.11254  0.89537  0.20162  1.0000
  C   C16       1.0  0.61251  0.10464  0.29838  1.0000
  C   C17       1.0  0.89800  0.22942  0.84303  1.0000
  C   C18       1.0  0.39800  0.77056  0.65697  1.0000
  C   C19       1.0  0.10201  0.77057  0.15697  1.0000
  C   C20       1.0  0.60201  0.22944  0.34303  1.0000
  C   C21       1.0  0.91711  0.10310  0.92760  1.0000
  C   C22       1.0  0.41711  0.89691  0.57240  1.0000
  C   C23       1.0  0.08289  0.89690  0.07240  1.0000
  C   C24       1.0  0.58288  0.10310  0.42760  1.0000
  S   S1        1.0  0.36365  0.39951  0.56591  1.0000
  S   S2        1.0  0.86367  0.60050  0.93409  1.0000
  S   S3        1.0  0.63633  0.60049  0.43409  1.0000
  S   S4        1.0  0.13634  0.39951  0.06591  1.0000
  S   S5        1.0  0.15237  0.09799  0.93470  1.0000
  S   S6        1.0  0.65237  0.90202  0.56530  1.0000
  S   S7        1.0  0.84763  0.90201  0.06530  1.0000
  S   S8        1.0  0.34763  0.09798  0.43470  1.0000
  N   N1        1.0  0.70281  0.34491  0.61195  1.0000
  N   N2        1.0  0.20282  0.65512  0.88806  1.0000
  N   N3        1.0  0.29718  0.65511  0.38805  1.0000
  N   N4        1.0  0.79719  0.34489  0.11194  1.0000
  N   N5        1.0  0.89231  0.36451  0.60386  1.0000
  N   N6        1.0  0.39233  0.63551  0.89614  1.0000
  N   N7        1.0  0.10767  0.63550  0.39614  1.0000
  N   N8        1.0  0.60768  0.36450  0.10386  1.0000
  N   N9        1.0  0.91414  0.42691  0.56046  1.0000
  N   N10       1.0  0.41415  0.57311  0.93954  1.0000
  N   N11       1.0  0.08584  0.57311  0.43954  1.0000
  N   N12       1.0  0.58585  0.42690  0.06046  1.0000
  N   N13       1.0  0.73986  0.44700  0.54058  1.0000
  N   N14       1.0  0.23988  0.55301  0.95943  1.0000
  N   N15       1.0  0.26011  0.55302  0.45943  1.0000
  N   N16       1.0  0.76013  0.44700  0.04057  1.0000
  N   N17       1.0  0.81762  0.15834  0.88722  1.0000
  N   N18       1.0  0.31763  0.84166  0.61277  1.0000
  N   N19       1.0  0.18238  0.84165  0.11277  1.0000
  N   N20       1.0  0.68238  0.15834  0.38723  1.0000
  N   N21       1.0  0.62728  0.14137  0.89435  1.0000
  N   N22       1.0  0.12728  0.85863  0.60565  1.0000
  N   N23       1.0  0.37272  0.85863  0.10565  1.0000
  N   N24       1.0  0.87272  0.14137  0.39435  1.0000
  N   N25       1.0  0.60115  0.07891  0.93757  1.0000
  N   N26       1.0  0.10116  0.92110  0.56243  1.0000
  N   N27       1.0  0.39884  0.92110  0.06243  1.0000
  N   N28       1.0  0.89884  0.07891  0.43757  1.0000
  N   N29       1.0  0.77345  0.05603  0.95829  1.0000
  N   N30       1.0  0.27345  0.94398  0.54171  1.0000
  N   N31       1.0  0.22655  0.94398  0.04171  1.0000
  N   N32       1.0  0.72655  0.05603  0.45829  1.0000
  O   O1        1.0  0.73421  0.53561  0.69807  1.0000
  O   O2        1.0  0.23424  0.46438  0.80194  1.0000
  O   O3        1.0  0.26577  0.46439  0.30194  1.0000
  O   O4        1.0  0.76578  0.53561  0.19806  1.0000
  O   O5        1.0  0.55060  0.34642  0.73987  1.0000
  O   O6        1.0  0.05062  0.65355  0.76014  1.0000
  O   O7        1.0  0.44940  0.65355  0.26013  1.0000
  O   O8        1.0  0.94940  0.34642  0.23986  1.0000
  O   O9        1.0  0.79257  0.96448  0.80190  1.0000
  O   O10       1.0  0.29258  0.03552  0.69810  1.0000
  O   O11       1.0  0.20745  0.03551  0.19810  1.0000
  O   O12       1.0  0.70741  0.96447  0.30190  1.0000
  O   O13       1.0  0.97523  0.15366  0.75981  1.0000
  O   O14       1.0  0.47523  0.84630  0.74019  1.0000
  O   O15       1.0  0.02477  0.84633  0.24019  1.0000
  O   O16       1.0  0.52476  0.15368  0.25981  1.0000
  O   O17       1.0  0.86387  0.91999  0.69023  1.0000
  O   O18       1.0  0.36387  0.08001  0.80977  1.0000
  O   O19       1.0  0.13612  0.08000  0.30977  1.0000
  O   O20       1.0  0.63612  0.91999  0.19023  1.0000
  O   O21       1.0  0.66006  0.57967  0.80992  1.0000
  O   O22       1.0  0.16004  0.42033  0.69008  1.0000
  O   O23       1.0  0.33996  0.42033  0.19008  1.0000
  O   O24       1.0  0.83996  0.57967  0.30992  1.0000
