data_image0
_chemical_formula_structural       Cu2H18C14I2N2
_chemical_formula_sum              "Cu2 H18 C14 I2 N2"
_cell_length_a       4.23827
_cell_length_b       10.0213
_cell_length_c       10.8949
_cell_angle_alpha    113.428
_cell_angle_beta     95.0871
_cell_angle_gamma    102.109

_space_group_name_H-M_alt    "P 1"
_space_group_IT_number       1

loop_
  _space_group_symop_operation_xyz
  'x, y, z'

loop_
  _atom_site_type_symbol
  _atom_site_label
  _atom_site_symmetry_multiplicity
  _atom_site_fract_x
  _atom_site_fract_y
  _atom_site_fract_z
  _atom_site_occupancy
  Cu  Cu1       1.0  0.27494  0.87921  0.97382  1.0000
  Cu  Cu2       1.0  0.72506  0.12079  0.02618  1.0000
  H   H1        1.0  0.18046  0.39206  0.54995  1.0000
  H   H2        1.0  0.81954  0.60794  0.45005  1.0000
  H   H3        1.0  0.61713  0.34282  0.84657  1.0000
  H   H4        1.0  0.38287  0.65718  0.15343  1.0000
  H   H5        1.0  0.81992  0.62239  0.98174  1.0000
  H   H6        1.0  0.18008  0.37762  0.01826  1.0000
  H   H7        1.0  0.32124  0.78051  0.67430  1.0000
  H   H8        1.0  0.67875  0.21948  0.32569  1.0000
  H   H9        1.0  0.65693  0.76137  0.76647  1.0000
  H   H10       1.0  0.34307  0.23862  0.23352  1.0000
  H   H11       1.0  0.50899  0.63277  0.59094  1.0000
  H   H12       1.0  0.49100  0.36723  0.40906  1.0000
  H   H13       1.0  0.61070  0.15154  0.50184  1.0000
  H   H14       1.0  0.38931  0.84846  0.49817  1.0000
  H   H15       1.0  0.97305  0.12778  0.57357  1.0000
  H   H16       1.0  0.02695  0.87222  0.42644  1.0000
  H   H17       1.0  0.62264  0.11901  0.65163  1.0000
  H   H18       1.0  0.37735  0.88099  0.34838  1.0000
  C   C1        1.0  0.20504  0.59391  0.72721  1.0000
  C   C2        1.0  0.79496  0.40609  0.27278  1.0000
  C   C3        1.0  0.09445  0.43887  0.64561  1.0000
  C   C4        1.0  0.90555  0.56113  0.35439  1.0000
  C   C5        1.0  0.88214  0.34320  0.68551  1.0000
  C   C6        1.0  0.11787  0.65680  0.31450  1.0000
  C   C7        1.0  0.78294  0.41105  0.80959  1.0000
  C   C8        1.0  0.21707  0.58896  0.19042  1.0000
  C   C9        1.0  0.89714  0.56613  0.88564  1.0000
  C   C10       1.0  0.10286  0.43388  0.11436  1.0000
  C   C11       1.0  0.43566  0.69649  0.68657  1.0000
  C   C12       1.0  0.56433  0.30351  0.31342  1.0000
  C   C13       1.0  0.76508  0.17648  0.59905  1.0000
  C   C14       1.0  0.23492  0.82351  0.40096  1.0000
  I   I1        1.0  0.17753  0.06275  0.85936  1.0000
  I   I2        1.0  0.82248  0.93725  0.14064  1.0000
  N   N1        1.0  0.10625  0.65753  0.84775  1.0000
  N   N2        1.0  0.89375  0.34248  0.15225  1.0000
