data_image0
_chemical_formula_structural       Zn2H40C48O24
_chemical_formula_sum              "Zn2 H40 C48 O24"
_cell_length_a       7.16122
_cell_length_b       8.10303
_cell_length_c       19.461
_cell_angle_alpha    85.2212
_cell_angle_beta     88.1838
_cell_angle_gamma    88.9694

_space_group_name_H-M_alt    "P 1"
_space_group_IT_number       1

loop_
  _space_group_symop_operation_xyz
  'x, y, z'

loop_
  _atom_site_type_symbol
  _atom_site_label
  _atom_site_symmetry_multiplicity
  _atom_site_fract_x
  _atom_site_fract_y
  _atom_site_fract_z
  _atom_site_occupancy
  Zn  Zn1       1.0  0.42520  0.33493  0.45198  1.0000
  Zn  Zn2       1.0  0.57481  0.66507  0.54802  1.0000
  H   H1        1.0  0.13014  0.76684  0.36687  1.0000
  H   H2        1.0  0.86986  0.23316  0.63313  1.0000
  H   H3        1.0  0.17014  0.79193  0.14396  1.0000
  H   H4        1.0  0.82986  0.20808  0.85604  1.0000
  H   H5        1.0  0.35537  0.19812  0.25390  1.0000
  H   H6        1.0  0.64463  0.80188  0.74611  1.0000
  H   H7        1.0  0.42417  0.90977  0.07706  1.0000
  H   H8        1.0  0.57581  0.09022  0.92294  1.0000
  H   H9        1.0  0.43756  0.11657  0.03827  1.0000
  H   H10       1.0  0.56243  0.88342  0.96173  1.0000
  H   H11       1.0  0.26551  0.80816  0.97819  1.0000
  H   H12       1.0  0.73448  0.19184  0.02181  1.0000
  H   H13       1.0  0.02635  0.21004  0.08495  1.0000
  H   H14       1.0  0.97364  0.78997  0.91505  1.0000
  H   H15       1.0  0.55046  0.57323  0.27186  1.0000
  H   H16       1.0  0.44956  0.42677  0.72814  1.0000
  H   H17       1.0  0.76261  0.01036  0.15467  1.0000
  H   H18       1.0  0.23741  0.98963  0.84533  1.0000
  H   H19       1.0  0.74238  0.97512  0.37821  1.0000
  H   H20       1.0  0.25761  0.02488  0.62179  1.0000
  H   H21       1.0  0.41229  0.55949  0.17122  1.0000
  H   H22       1.0  0.58770  0.44053  0.82877  1.0000
  H   H23       1.0  0.64271  0.47115  0.16849  1.0000
  H   H24       1.0  0.35728  0.52885  0.83151  1.0000
  H   H25       1.0  0.23218  0.47103  0.08440  1.0000
  H   H26       1.0  0.76782  0.52898  0.91560  1.0000
  H   H27       1.0  0.80901  0.58671  0.03832  1.0000
  H   H28       1.0  0.19097  0.41330  0.96167  1.0000
  H   H29       1.0  0.95192  0.40969  0.31392  1.0000
  H   H30       1.0  0.04808  0.59031  0.68609  1.0000
  H   H31       1.0  0.94281  0.36564  0.20542  1.0000
  H   H32       1.0  0.05720  0.63437  0.79458  1.0000
  H   H33       1.0  0.10555  0.48697  0.40332  1.0000
  H   H34       1.0  0.89446  0.51304  0.59668  1.0000
  H   H35       1.0  0.03208  0.38963  0.47138  1.0000
  H   H36       1.0  0.96792  0.61034  0.52861  1.0000
  H   H37       1.0  0.76078  0.21971  0.41496  1.0000
  H   H38       1.0  0.23922  0.78029  0.58504  1.0000
  H   H39       1.0  0.73457  0.15744  0.49516  1.0000
  H   H40       1.0  0.26543  0.84256  0.50484  1.0000
  C   C1        1.0  0.24493  0.98987  0.31685  1.0000
  C   C2        1.0  0.75508  0.01013  0.68315  1.0000
  C   C3        1.0  0.16854  0.83231  0.31757  1.0000
  C   C4        1.0  0.83146  0.16768  0.68244  1.0000
  C   C5        1.0  0.14407  0.76240  0.25522  1.0000
  C   C6        1.0  0.85594  0.23759  0.74479  1.0000
  C   C7        1.0  0.19357  0.84884  0.19158  1.0000
  C   C8        1.0  0.80643  0.15114  0.80842  1.0000
  C   C9        1.0  0.26978  0.00617  0.19167  1.0000
  C   C10       1.0  0.73022  0.99382  0.80833  1.0000
  C   C11       1.0  0.29350  0.07622  0.25417  1.0000
  C   C12       1.0  0.70650  0.92378  0.74583  1.0000
  C   C13       1.0  0.06358  0.59648  0.25516  1.0000
  C   C14       1.0  0.93643  0.40352  0.74484  1.0000
  C   C15       1.0  0.28213  0.06490  0.38341  1.0000
  C   C16       1.0  0.71787  0.93510  0.61659  1.0000
  C   C17       1.0  0.34859  0.02934  0.07015  1.0000
  C   C18       1.0  0.65140  0.97065  0.92985  1.0000
  C   C19       1.0  0.16641  0.01215  0.03533  1.0000
  C   C20       1.0  0.83358  0.98785  0.96467  1.0000
  C   C21       1.0  0.14962  0.89332  0.98777  1.0000
  C   C22       1.0  0.85039  0.10669  0.01223  1.0000
  C   C23       1.0  0.01529  0.11861  0.04738  1.0000
  C   C24       1.0  0.98470  0.88140  0.95262  1.0000
  C   C25       1.0  0.58980  0.67134  0.39702  1.0000
  C   C26       1.0  0.41020  0.32866  0.60297  1.0000
  C   C27       1.0  0.64289  0.76644  0.33014  1.0000
  C   C28       1.0  0.35710  0.23356  0.66986  1.0000
  C   C29       1.0  0.61134  0.69577  0.26839  1.0000
  C   C30       1.0  0.38867  0.30422  0.73161  1.0000
  C   C31       1.0  0.65553  0.78380  0.20545  1.0000
  C   C32       1.0  0.34448  0.21620  0.79455  1.0000
  C   C33       1.0  0.72939  0.94277  0.20406  1.0000
  C   C34       1.0  0.27063  0.05723  0.79594  1.0000
  C   C35       1.0  0.75894  0.01239  0.26606  1.0000
  C   C36       1.0  0.24107  0.98761  0.73394  1.0000
  C   C37       1.0  0.71783  0.92372  0.32954  1.0000
  C   C38       1.0  0.28218  0.07628  0.67046  1.0000
  C   C39       1.0  0.83561  0.17986  0.26504  1.0000
  C   C40       1.0  0.16440  0.82014  0.73496  1.0000
  C   C41       1.0  0.54766  0.56359  0.14276  1.0000
  C   C42       1.0  0.45234  0.43642  0.85724  1.0000
  C   C43       1.0  0.52314  0.53080  0.06898  1.0000
  C   C44       1.0  0.47684  0.46920  0.93101  1.0000
  C   C45       1.0  0.34923  0.48304  0.04713  1.0000
  C   C46       1.0  0.65075  0.51697  0.95287  1.0000
  C   C47       1.0  0.67391  0.54796  0.02143  1.0000
  C   C48       1.0  0.32607  0.45205  0.97856  1.0000
  O   O1        1.0  0.23227  0.99138  0.43991  1.0000
  O   O2        1.0  0.76772  0.00863  0.56009  1.0000
  O   O3        1.0  0.36636  0.20499  0.37477  1.0000
  O   O4        1.0  0.63364  0.79503  0.62523  1.0000
  O   O5        1.0  0.01615  0.52436  0.31663  1.0000
  O   O6        1.0  0.98386  0.47564  0.68337  1.0000
  O   O7        1.0  0.04091  0.52798  0.20056  1.0000
  O   O8        1.0  0.95910  0.47202  0.79944  1.0000
  O   O9        1.0  0.33091  0.10252  0.13467  1.0000
  O   O10       1.0  0.66909  0.89748  0.86533  1.0000
  O   O11       1.0  0.50383  0.53706  0.39305  1.0000
  O   O12       1.0  0.49617  0.46294  0.60695  1.0000
  O   O13       1.0  0.63443  0.73571  0.45142  1.0000
  O   O14       1.0  0.36556  0.26429  0.54858  1.0000
  O   O15       1.0  0.86040  0.24840  0.31958  1.0000
  O   O16       1.0  0.13961  0.75159  0.68042  1.0000
  O   O17       1.0  0.87575  0.25272  0.20331  1.0000
  O   O18       1.0  0.12427  0.74727  0.79669  1.0000
  O   O19       1.0  0.62737  0.72597  0.14275  1.0000
  O   O20       1.0  0.37264  0.27403  0.85725  1.0000
  O   O21       1.0  0.13883  0.45182  0.45090  1.0000
  O   O22       1.0  0.86116  0.54817  0.54910  1.0000
  O   O23       1.0  0.71460  0.25245  0.45991  1.0000
  O   O24       1.0  0.28539  0.74755  0.54009  1.0000
