data_image0
_chemical_formula_structural       Cd4H36C44N8Cl4O16
_chemical_formula_sum              "Cd4 H36 C44 N8 Cl4 O16"
_cell_length_a       7.05507
_cell_length_b       13.0499
_cell_length_c       13.4247
_cell_angle_alpha    90
_cell_angle_beta     90
_cell_angle_gamma    90.4777

_space_group_name_H-M_alt    "P 1"
_space_group_IT_number       1

loop_
  _space_group_symop_operation_xyz
  'x, y, z'

loop_
  _atom_site_type_symbol
  _atom_site_label
  _atom_site_symmetry_multiplicity
  _atom_site_fract_x
  _atom_site_fract_y
  _atom_site_fract_z
  _atom_site_occupancy
  Cd  Cd1       1.0  0.86142  0.41292  0.55867  1.0000
  Cd  Cd2       1.0  0.63857  0.08708  0.05867  1.0000
  Cd  Cd3       1.0  0.13858  0.58708  0.44133  1.0000
  Cd  Cd4       1.0  0.36142  0.91292  0.94133  1.0000
  H   H1        1.0  0.50822  0.74155  0.51804  1.0000
  H   H2        1.0  0.99178  0.75845  0.01804  1.0000
  H   H3        1.0  0.49179  0.25844  0.48196  1.0000
  H   H4        1.0  0.00822  0.24156  0.98196  1.0000
  H   H5        1.0  0.54696  0.71680  0.64534  1.0000
  H   H6        1.0  0.95304  0.78320  0.14534  1.0000
  H   H7        1.0  0.45304  0.28320  0.35466  1.0000
  H   H8        1.0  0.04696  0.21680  0.85466  1.0000
  H   H9        1.0  0.76110  0.83940  0.74534  1.0000
  H   H10       1.0  0.73890  0.66060  0.24534  1.0000
  H   H11       1.0  0.23890  0.16060  0.25466  1.0000
  H   H12       1.0  0.26110  0.33940  0.75466  1.0000
  H   H13       1.0  0.60585  0.85132  0.37849  1.0000
  H   H14       1.0  0.89415  0.64868  0.87849  1.0000
  H   H15       1.0  0.39415  0.14868  0.62151  1.0000
  H   H16       1.0  0.10585  0.35132  0.12151  1.0000
  H   H17       1.0  0.66482  0.01481  0.28514  1.0000
  H   H18       1.0  0.83518  0.48520  0.78514  1.0000
  H   H19       1.0  0.33518  0.98519  0.71486  1.0000
  H   H20       1.0  0.16482  0.51481  0.21486  1.0000
  H   H21       1.0  0.80143  0.16653  0.36819  1.0000
  H   H22       1.0  0.69857  0.33347  0.86819  1.0000
  H   H23       1.0  0.19856  0.83347  0.63181  1.0000
  H   H24       1.0  0.30144  0.66653  0.13181  1.0000
  H   H25       1.0  0.87933  0.16480  0.54919  1.0000
  H   H26       1.0  0.62067  0.33520  0.04919  1.0000
  H   H27       1.0  0.12067  0.83520  0.45081  1.0000
  H   H28       1.0  0.37933  0.66480  0.95081  1.0000
  H   H29       1.0  0.86034  0.12652  0.71709  1.0000
  H   H30       1.0  0.63966  0.37348  0.21709  1.0000
  H   H31       1.0  0.13966  0.87348  0.28291  1.0000
  H   H32       1.0  0.36035  0.62652  0.78291  1.0000
  H   H33       1.0  0.00146  0.02944  0.77413  1.0000
  H   H34       1.0  0.49854  0.47056  0.27413  1.0000
  H   H35       1.0  0.99853  0.97056  0.22587  1.0000
  H   H36       1.0  0.50147  0.52943  0.72587  1.0000
  C   C1        1.0  0.76505  0.66039  0.54571  1.0000
  C   C2        1.0  0.73495  0.83961  0.04571  1.0000
  C   C3        1.0  0.23496  0.33961  0.45429  1.0000
  C   C4        1.0  0.26504  0.16039  0.95429  1.0000
  C   C5        1.0  0.61751  0.73993  0.57638  1.0000
  C   C6        1.0  0.88249  0.76007  0.07638  1.0000
  C   C7        1.0  0.38249  0.26007  0.42362  1.0000
  C   C8        1.0  0.11751  0.23993  0.92362  1.0000
  C   C9        1.0  0.75539  0.88118  0.67579  1.0000
  C   C10       1.0  0.74461  0.61882  0.17579  1.0000
  C   C11       1.0  0.24461  0.11882  0.32421  1.0000
  C   C12       1.0  0.25539  0.38118  0.82421  1.0000
  C   C13       1.0  0.71026  0.91871  0.51615  1.0000
  C   C14       1.0  0.78975  0.58129  0.01616  1.0000
  C   C15       1.0  0.28974  0.08129  0.48385  1.0000
  C   C16       1.0  0.21026  0.41871  0.98385  1.0000
  C   C17       1.0  0.66613  0.91879  0.41493  1.0000
  C   C18       1.0  0.83386  0.58121  0.91493  1.0000
  C   C19       1.0  0.33387  0.08121  0.58507  1.0000
  C   C20       1.0  0.16613  0.41879  0.08507  1.0000
  C   C21       1.0  0.69972  0.01017  0.36401  1.0000
  C   C22       1.0  0.80028  0.48983  0.86401  1.0000
  C   C23       1.0  0.30028  0.98983  0.63599  1.0000
  C   C24       1.0  0.19972  0.51017  0.13599  1.0000
  C   C25       1.0  0.77550  0.09747  0.41201  1.0000
  C   C26       1.0  0.72450  0.40253  0.91201  1.0000
  C   C27       1.0  0.22450  0.90253  0.58799  1.0000
  C   C28       1.0  0.27550  0.59747  0.08799  1.0000
  C   C29       1.0  0.81896  0.09743  0.51317  1.0000
  C   C30       1.0  0.68104  0.40257  0.01317  1.0000
  C   C31       1.0  0.18103  0.90257  0.48683  1.0000
  C   C32       1.0  0.31897  0.59743  0.98683  1.0000
  C   C33       1.0  0.78321  0.00649  0.56457  1.0000
  C   C34       1.0  0.71680  0.49350  0.06457  1.0000
  C   C35       1.0  0.21679  0.99351  0.43543  1.0000
  C   C36       1.0  0.28321  0.50650  0.93543  1.0000
  C   C37       1.0  0.85946  0.04777  0.74573  1.0000
  C   C38       1.0  0.64054  0.45223  0.24573  1.0000
  C   C39       1.0  0.14053  0.95223  0.25427  1.0000
  C   C40       1.0  0.35947  0.54777  0.75427  1.0000
  C   C41       1.0  0.72174  0.04157  0.83450  1.0000
  C   C42       1.0  0.77826  0.45842  0.33449  1.0000
  C   C43       1.0  0.27825  0.95843  0.16550  1.0000
  C   C44       1.0  0.22175  0.54158  0.66550  1.0000
  N   N1        1.0  0.69488  0.84274  0.58866  1.0000
  N   N2        1.0  0.80512  0.65726  0.08866  1.0000
  N   N3        1.0  0.30511  0.15726  0.41134  1.0000
  N   N4        1.0  0.19488  0.34274  0.91134  1.0000
  N   N5        1.0  0.80781  0.97958  0.66434  1.0000
  N   N6        1.0  0.69219  0.52041  0.16434  1.0000
  N   N7        1.0  0.19219  0.02042  0.33566  1.0000
  N   N8        1.0  0.30781  0.47958  0.83566  1.0000
  Cl  Cl1       1.0  0.65079  0.30545  0.66407  1.0000
  Cl  Cl2       1.0  0.84921  0.19455  0.16407  1.0000
  Cl  Cl3       1.0  0.34921  0.69455  0.33593  1.0000
  Cl  Cl4       1.0  0.15079  0.80545  0.83593  1.0000
  O   O1        1.0  0.73027  0.57041  0.57617  1.0000
  O   O2        1.0  0.76973  0.92959  0.07616  1.0000
  O   O3        1.0  0.26973  0.42959  0.42383  1.0000
  O   O4        1.0  0.23027  0.07041  0.92383  1.0000
  O   O5        1.0  0.90078  0.69211  0.49193  1.0000
  O   O6        1.0  0.59921  0.80788  0.99193  1.0000
  O   O7        1.0  0.09923  0.30789  0.50808  1.0000
  O   O8        1.0  0.40078  0.19211  0.00808  1.0000
  O   O9        1.0  0.59311  0.97368  0.83265  1.0000
  O   O10       1.0  0.90688  0.52631  0.33265  1.0000
  O   O11       1.0  0.40689  0.02632  0.16734  1.0000
  O   O12       1.0  0.09311  0.47368  0.66735  1.0000
  O   O13       1.0  0.75745  0.10625  0.90223  1.0000
  O   O14       1.0  0.74254  0.39374  0.40224  1.0000
  O   O15       1.0  0.24253  0.89375  0.09776  1.0000
  O   O16       1.0  0.25746  0.60625  0.59777  1.0000
