data_image0
_chemical_formula_structural       ZnH12C16N2O8
_chemical_formula_sum              "Zn1 H12 C16 N2 O8"
_cell_length_a       6.98138
_cell_length_b       7.86159
_cell_length_c       8.19329
_cell_angle_alpha    110.286
_cell_angle_beta     94.2783
_cell_angle_gamma    98.6908

_space_group_name_H-M_alt    "P 1"
_space_group_IT_number       1

loop_
  _space_group_symop_operation_xyz
  'x, y, z'

loop_
  _atom_site_type_symbol
  _atom_site_label
  _atom_site_symmetry_multiplicity
  _atom_site_fract_x
  _atom_site_fract_y
  _atom_site_fract_z
  _atom_site_occupancy
  Zn  Zn1       1.0  0.08626  0.87296  0.80755  1.0000
  H   H1        1.0  0.89089  0.35296  0.73260  1.0000
  H   H2        1.0  0.69420  0.55950  0.64107  1.0000
  H   H3        1.0  0.22137  0.12777  0.41180  1.0000
  H   H4        1.0  0.39225  0.90857  0.50850  1.0000
  H   H5        1.0  0.24053  0.38493  0.35605  1.0000
  H   H6        1.0  0.44811  0.57102  0.44543  1.0000
  H   H7        1.0  0.81191  0.26326  0.23999  1.0000
  H   H8        1.0  0.95928  0.60195  0.34373  1.0000
  H   H9        1.0  0.51301  0.70188  0.04140  1.0000
  H   H10       1.0  0.34657  0.36756  0.93053  1.0000
  H   H11       1.0  0.93190  0.88532  0.37511  1.0000
  H   H12       1.0  0.71894  0.93577  0.27892  1.0000
  C   C1        1.0  0.76815  0.97850  0.66194  1.0000
  C   C2        1.0  0.65628  0.11341  0.62240  1.0000
  C   C3        1.0  0.74264  0.29863  0.66325  1.0000
  C   C4        1.0  0.63835  0.41360  0.61413  1.0000
  C   C5        1.0  0.36682  0.16861  0.48753  1.0000
  C   C6        1.0  0.46430  0.05041  0.53722  1.0000
  C   C7        1.0  0.34502  0.46847  0.47379  1.0000
  C   C8        1.0  0.23831  0.57368  0.62385  1.0000
  C   C9        1.0  0.45919  0.09190  0.02609  1.0000
  C   C10       1.0  0.56439  0.29081  0.08087  1.0000
  C   C11       1.0  0.74060  0.35611  0.19483  1.0000
  C   C12       1.0  0.82630  0.54065  0.24924  1.0000
  C   C13       1.0  0.57154  0.59787  0.07962  1.0000
  C   C14       1.0  0.48146  0.41412  0.02193  1.0000
  C   C15       1.0  0.83381  0.85263  0.25334  1.0000
  C   C16       1.0  0.94807  0.90857  0.12140  1.0000
  N   N1        1.0  0.45534  0.34545  0.52420  1.0000
  N   N2        1.0  0.74047  0.65754  0.19292  1.0000
  O   O1        1.0  0.68848  0.81142  0.60708  1.0000
  O   O2        1.0  0.94210  0.04856  0.74455  1.0000
  O   O3        1.0  0.14309  0.68676  0.58432  1.0000
  O   O4        1.0  0.25058  0.54914  0.76541  1.0000
  O   O5        1.0  0.34157  0.03817  0.88245  1.0000
  O   O6        1.0  0.49280  0.00316  0.12175  1.0000
  O   O7        1.0  0.94007  0.78414  0.96881  1.0000
  O   O8        1.0  0.03628  0.07253  0.17559  1.0000
