data_image0
_chemical_formula_structural       Cd2H24C32N4O16
_chemical_formula_sum              "Cd2 H24 C32 N4 O16"
_cell_length_a       7.81398
_cell_length_b       7.90745
_cell_length_c       14.4418
_cell_angle_alpha    102.989
_cell_angle_beta     90.0003
_cell_angle_gamma    89.9999

_space_group_name_H-M_alt    "P 1"
_space_group_IT_number       1

loop_
  _space_group_symop_operation_xyz
  'x, y, z'

loop_
  _atom_site_type_symbol
  _atom_site_label
  _atom_site_symmetry_multiplicity
  _atom_site_fract_x
  _atom_site_fract_y
  _atom_site_fract_z
  _atom_site_occupancy
  Cd  Cd1       1.0  0.69255  0.50000  0.75000  1.0000
  Cd  Cd2       1.0  0.30744  0.50000  0.25000  1.0000
  H   H1        1.0  0.19852  0.25843  0.69785  1.0000
  H   H2        1.0  0.19852  0.74157  0.80215  1.0000
  H   H3        1.0  0.80148  0.74157  0.30215  1.0000
  H   H4        1.0  0.80148  0.25843  0.19785  1.0000
  H   H5        1.0  0.46822  0.08571  0.64569  1.0000
  H   H6        1.0  0.46822  0.91429  0.85431  1.0000
  H   H7        1.0  0.53178  0.91429  0.35431  1.0000
  H   H8        1.0  0.53178  0.08571  0.14570  1.0000
  H   H9        1.0  0.18681  0.64391  0.52792  1.0000
  H   H10       1.0  0.18680  0.35609  0.97208  1.0000
  H   H11       1.0  0.81320  0.35609  0.47208  1.0000
  H   H12       1.0  0.81320  0.64391  0.02792  1.0000
  H   H13       1.0  0.90644  0.79737  0.57733  1.0000
  H   H14       1.0  0.90644  0.20263  0.92267  1.0000
  H   H15       1.0  0.09356  0.20263  0.42267  1.0000
  H   H16       1.0  0.09356  0.79737  0.07733  1.0000
  H   H17       1.0  0.58791  0.86715  0.54568  1.0000
  H   H18       1.0  0.58790  0.13285  0.95432  1.0000
  H   H19       1.0  0.41209  0.13285  0.45432  1.0000
  H   H20       1.0  0.41210  0.86715  0.04568  1.0000
  H   H21       1.0  0.46327  0.69006  0.47867  1.0000
  H   H22       1.0  0.46327  0.30994  0.02133  1.0000
  H   H23       1.0  0.53673  0.30994  0.52133  1.0000
  H   H24       1.0  0.53673  0.69006  0.97867  1.0000
  C   C1        1.0  0.87017  0.15070  0.65953  1.0000
  C   C2        1.0  0.87017  0.84930  0.84046  1.0000
  C   C3        1.0  0.12983  0.84930  0.34047  1.0000
  C   C4        1.0  0.12983  0.15070  0.15954  1.0000
  C   C5        1.0  0.03220  0.04296  0.63763  1.0000
  C   C6        1.0  0.03220  0.95704  0.86237  1.0000
  C   C7        1.0  0.96780  0.95704  0.36237  1.0000
  C   C8        1.0  0.96780  0.04296  0.13764  1.0000
  C   C9        1.0  0.19122  0.12337  0.65967  1.0000
  C   C10       1.0  0.19123  0.87662  0.84033  1.0000
  C   C11       1.0  0.80877  0.87662  0.34033  1.0000
  C   C12       1.0  0.80878  0.12338  0.15968  1.0000
  C   C13       1.0  0.33988  0.03096  0.63230  1.0000
  C   C14       1.0  0.33988  0.96905  0.86770  1.0000
  C   C15       1.0  0.66012  0.96905  0.36770  1.0000
  C   C16       1.0  0.66013  0.03096  0.13230  1.0000
  C   C17       1.0  0.17917  0.77916  0.56629  1.0000
  C   C18       1.0  0.17916  0.22084  0.93372  1.0000
  C   C19       1.0  0.82084  0.22084  0.43372  1.0000
  C   C20       1.0  0.82084  0.77916  0.06628  1.0000
  C   C21       1.0  0.02739  0.86663  0.59267  1.0000
  C   C22       1.0  0.02739  0.13336  0.90732  1.0000
  C   C23       1.0  0.97261  0.13337  0.40732  1.0000
  C   C24       1.0  0.97261  0.86664  0.09267  1.0000
  C   C25       1.0  0.48901  0.77042  0.54947  1.0000
  C   C26       1.0  0.48900  0.22959  0.95053  1.0000
  C   C27       1.0  0.51100  0.22958  0.45053  1.0000
  C   C28       1.0  0.51100  0.77041  0.04947  1.0000
  C   C29       1.0  0.55669  0.65709  0.61402  1.0000
  C   C30       1.0  0.55669  0.34291  0.88598  1.0000
  C   C31       1.0  0.44331  0.34290  0.38598  1.0000
  C   C32       1.0  0.44331  0.65710  0.11402  1.0000
  N   N1        1.0  0.33080  0.86319  0.58425  1.0000
  N   N2        1.0  0.33080  0.13681  0.91575  1.0000
  N   N3        1.0  0.66920  0.13681  0.41575  1.0000
  N   N4        1.0  0.66920  0.86319  0.08425  1.0000
  O   O1        1.0  0.73394  0.09274  0.61820  1.0000
  O   O2        1.0  0.73393  0.90727  0.88179  1.0000
  O   O3        1.0  0.26606  0.90726  0.38179  1.0000
  O   O4        1.0  0.26607  0.09273  0.11821  1.0000
  O   O5        1.0  0.89343  0.29667  0.71748  1.0000
  O   O6        1.0  0.89343  0.70333  0.78252  1.0000
  O   O7        1.0  0.10656  0.70333  0.28252  1.0000
  O   O8        1.0  0.10657  0.29667  0.21748  1.0000
  O   O9        1.0  0.48260  0.66194  0.69293  1.0000
  O   O10       1.0  0.48260  0.33806  0.80707  1.0000
  O   O11       1.0  0.51740  0.33806  0.30707  1.0000
  O   O12       1.0  0.51740  0.66194  0.19293  1.0000
  O   O13       1.0  0.68778  0.56693  0.58417  1.0000
  O   O14       1.0  0.68778  0.43307  0.91583  1.0000
  O   O15       1.0  0.31222  0.43307  0.41583  1.0000
  O   O16       1.0  0.31222  0.56694  0.08417  1.0000
