data_image0
_chemical_formula_structural       Co2H18C10S2N2O12
_chemical_formula_sum              "Co2 H18 C10 S2 N2 O12"
_cell_length_a       4.94074
_cell_length_b       9.93373
_cell_length_c       9.73712
_cell_angle_alpha    89.9998
_cell_angle_beta     109.019
_cell_angle_gamma    90.0001

_space_group_name_H-M_alt    "P 1"
_space_group_IT_number       1

loop_
  _space_group_symop_operation_xyz
  'x, y, z'

loop_
  _atom_site_type_symbol
  _atom_site_label
  _atom_site_symmetry_multiplicity
  _atom_site_fract_x
  _atom_site_fract_y
  _atom_site_fract_z
  _atom_site_occupancy
  Co  Co1       1.0  0.58245  0.60628  0.43449  1.0000
  Co  Co2       1.0  0.41756  0.10627  0.56552  1.0000
  H   H1        1.0  0.91200  0.65375  0.29468  1.0000
  H   H2        1.0  0.08800  0.15376  0.70533  1.0000
  H   H3        1.0  0.61987  0.61815  0.07926  1.0000
  H   H4        1.0  0.38015  0.11815  0.92074  1.0000
  H   H5        1.0  0.99612  0.85372  0.39616  1.0000
  H   H6        1.0  0.00387  0.35371  0.60383  1.0000
  H   H7        1.0  0.90181  0.90271  0.14063  1.0000
  H   H8        1.0  0.09819  0.40271  0.85938  1.0000
  H   H9        1.0  0.68460  0.02409  0.18992  1.0000
  H   H10       1.0  0.31540  0.52409  0.81008  1.0000
  H   H11       1.0  0.11666  0.59826  0.57508  1.0000
  H   H12       1.0  0.88330  0.09826  0.42492  1.0000
  H   H13       1.0  0.98811  0.72546  0.63511  1.0000
  H   H14       1.0  0.01191  0.22544  0.36488  1.0000
  H   H15       1.0  0.75284  0.34993  0.19139  1.0000
  H   H16       1.0  0.24717  0.84995  0.80861  1.0000
  H   H17       1.0  0.02473  0.43168  0.28012  1.0000
  H   H18       1.0  0.97528  0.93170  0.71988  1.0000
  C   C1        1.0  0.51155  0.67500  0.14318  1.0000
  C   C2        1.0  0.48847  0.17500  0.85682  1.0000
  C   C3        1.0  0.24327  0.60298  0.14687  1.0000
  C   C4        1.0  0.75675  0.10298  0.85313  1.0000
  C   C5        1.0  0.77146  0.84302  0.32590  1.0000
  C   C6        1.0  0.22855  0.34302  0.67410  1.0000
  C   C7        1.0  0.58352  0.89316  0.41303  1.0000
  C   C8        1.0  0.41644  0.39313  0.58698  1.0000
  C   C9        1.0  0.72193  0.91633  0.18209  1.0000
  C   C10       1.0  0.27805  0.41633  0.81791  1.0000
  S   S1        1.0  0.39731  0.84029  0.06286  1.0000
  S   S2        1.0  0.60268  0.34028  0.93714  1.0000
  N   N1        1.0  0.72010  0.69637  0.29255  1.0000
  N   N2        1.0  0.27992  0.19636  0.70746  1.0000
  O   O1        1.0  0.03556  0.58723  0.03575  1.0000
  O   O2        1.0  0.96444  0.08724  0.96424  1.0000
  O   O3        1.0  0.24882  0.56466  0.27741  1.0000
  O   O4        1.0  0.75118  0.06464  0.72259  1.0000
  O   O5        1.0  0.44953  0.80977  0.46398  1.0000
  O   O6        1.0  0.55046  0.30976  0.53600  1.0000
  O   O7        1.0  0.58820  0.02129  0.43460  1.0000
  O   O8        1.0  0.41179  0.52131  0.56539  1.0000
  O   O9        1.0  0.93955  0.63203  0.59200  1.0000
  O   O10       1.0  0.06045  0.13203  0.40801  1.0000
  O   O11       1.0  0.87991  0.36680  0.29105  1.0000
  O   O12       1.0  0.12006  0.86682  0.70894  1.0000
