data_image0
_chemical_formula_structural       Sn4H44C20O10
_chemical_formula_sum              "Sn4 H44 C20 O10"
_cell_length_a       8.21529
_cell_length_b       8.21529
_cell_length_c       12.1334
_cell_angle_alpha    78.9832
_cell_angle_beta     78.983
_cell_angle_gamma    75.4225

_space_group_name_H-M_alt    "P 1"
_space_group_IT_number       1

loop_
  _space_group_symop_operation_xyz
  'x, y, z'

loop_
  _atom_site_type_symbol
  _atom_site_label
  _atom_site_symmetry_multiplicity
  _atom_site_fract_x
  _atom_site_fract_y
  _atom_site_fract_z
  _atom_site_occupancy
  Sn  Sn1       1.0  0.58988  0.81532  0.02982  1.0000
  Sn  Sn2       1.0  0.18467  0.41012  0.97018  1.0000
  Sn  Sn3       1.0  0.84571  0.71617  0.44373  1.0000
  Sn  Sn4       1.0  0.28382  0.15429  0.55627  1.0000
  H   H1        1.0  0.98436  0.08644  0.23638  1.0000
  H   H2        1.0  0.91355  0.01564  0.76362  1.0000
  H   H3        1.0  0.59280  0.36001  0.32773  1.0000
  H   H4        1.0  0.63998  0.40720  0.67227  1.0000
  H   H5        1.0  0.78906  0.33860  0.37447  1.0000
  H   H6        1.0  0.66139  0.21094  0.62553  1.0000
  H   H7        1.0  0.04040  0.76906  0.58511  1.0000
  H   H8        1.0  0.23094  0.95961  0.41488  1.0000
  H   H9        1.0  0.88536  0.65755  0.66650  1.0000
  H   H10       1.0  0.34245  0.11464  0.33350  1.0000
  H   H11       1.0  0.82527  0.88089  0.62060  1.0000
  H   H12       1.0  0.11910  0.17473  0.37940  1.0000
  H   H13       1.0  0.71510  0.94613  0.17531  1.0000
  H   H14       1.0  0.05387  0.28489  0.82469  1.0000
  H   H15       1.0  0.77070  0.04851  0.03303  1.0000
  H   H16       1.0  0.95149  0.22929  0.96697  1.0000
  H   H17       1.0  0.88713  0.84008  0.08103  1.0000
  H   H18       1.0  0.15992  0.11287  0.91898  1.0000
  H   H19       1.0  0.55190  0.60911  0.50656  1.0000
  H   H20       1.0  0.39089  0.44809  0.49344  1.0000
  H   H21       1.0  0.59220  0.65389  0.35445  1.0000
  H   H22       1.0  0.34611  0.40780  0.64555  1.0000
  H   H23       1.0  0.50966  0.82430  0.43693  1.0000
  H   H24       1.0  0.17571  0.49034  0.56308  1.0000
  H   H25       1.0  0.55866  0.58695  0.90418  1.0000
  H   H26       1.0  0.41305  0.44135  0.09581  1.0000
  H   H27       1.0  0.77786  0.59378  0.89156  1.0000
  H   H28       1.0  0.40623  0.22215  0.10843  1.0000
  H   H29       1.0  0.63784  0.75831  0.81299  1.0000
  H   H30       1.0  0.24169  0.36217  0.18700  1.0000
  H   H31       1.0  0.02751  0.69226  0.23323  1.0000
  H   H32       1.0  0.30774  0.97249  0.76677  1.0000
  H   H33       1.0  0.04784  0.48616  0.31753  1.0000
  H   H34       1.0  0.51384  0.95216  0.68247  1.0000
  H   H35       1.0  0.16922  0.62794  0.33654  1.0000
  H   H36       1.0  0.37206  0.83077  0.66346  1.0000
  H   H37       1.0  0.74279  0.23119  0.15560  1.0000
  H   H38       1.0  0.76881  0.25722  0.84440  1.0000
  H   H39       1.0  0.24517  0.84720  0.06806  1.0000
  H   H40       1.0  0.15280  0.75483  0.93194  1.0000
  H   H41       1.0  0.29891  0.97654  0.15132  1.0000
  H   H42       1.0  0.02346  0.70109  0.84868  1.0000
  H   H43       1.0  0.33346  0.75081  0.19510  1.0000
  H   H44       1.0  0.24919  0.66655  0.80491  1.0000
  C   C1        1.0  0.79973  0.47074  0.14153  1.0000
  C   C2        1.0  0.52926  0.20027  0.85847  1.0000
  C   C3        1.0  0.72280  0.28239  0.32557  1.0000
  C   C4        1.0  0.71761  0.27720  0.67443  1.0000
  C   C5        1.0  0.90675  0.76101  0.59769  1.0000
  C   C6        1.0  0.23899  0.09324  0.40231  1.0000
  C   C7        1.0  0.76187  0.92709  0.08681  1.0000
  C   C8        1.0  0.07291  0.23813  0.91319  1.0000
  C   C9        1.0  0.59356  0.69834  0.43380  1.0000
  C   C10       1.0  0.30166  0.40644  0.56620  1.0000
  C   C11       1.0  0.71571  0.10572  0.38919  1.0000
  C   C12       1.0  0.89428  0.28429  0.61081  1.0000
  C   C13       1.0  0.64772  0.67041  0.89248  1.0000
  C   C14       1.0  0.32959  0.35228  0.10752  1.0000
  C   C15       1.0  0.04707  0.61964  0.31697  1.0000
  C   C16       1.0  0.38036  0.95293  0.68303  1.0000
  C   C17       1.0  0.81286  0.28784  0.20232  1.0000
  C   C18       1.0  0.71216  0.18714  0.79768  1.0000
  C   C19       1.0  0.33585  0.85229  0.12222  1.0000
  C   C20       1.0  0.14771  0.66415  0.87779  1.0000
  O   O1        1.0  0.83474  0.98036  0.35463  1.0000
  O   O2        1.0  0.01963  0.16526  0.64538  1.0000
  O   O3        1.0  0.65107  0.56790  0.15499  1.0000
  O   O4        1.0  0.43210  0.34894  0.84501  1.0000
  O   O5        1.0  0.98632  0.20060  0.19379  1.0000
  O   O6        1.0  0.79940  0.01368  0.80621  1.0000
  O   O7        1.0  0.92695  0.51820  0.08019  1.0000
  O   O8        1.0  0.48180  0.07305  0.91981  1.0000
  O   O9        1.0  0.60267  0.08531  0.47283  1.0000
  O   O10       1.0  0.91469  0.39734  0.52717  1.0000
