data_image0
_chemical_formula_structural       Zn2H48C56N4O12
_chemical_formula_sum              "Zn2 H48 C56 N4 O12"
_cell_length_a       9.05722
_cell_length_b       9.16335
_cell_length_c       15.983
_cell_angle_alpha    78.6058
_cell_angle_beta     77.9332
_cell_angle_gamma    85.5299

_space_group_name_H-M_alt    "P 1"
_space_group_IT_number       1

loop_
  _space_group_symop_operation_xyz
  'x, y, z'

loop_
  _atom_site_type_symbol
  _atom_site_label
  _atom_site_symmetry_multiplicity
  _atom_site_fract_x
  _atom_site_fract_y
  _atom_site_fract_z
  _atom_site_occupancy
  Zn  Zn1       1.0  0.58390  0.64900  0.74948  1.0000
  Zn  Zn2       1.0  0.41610  0.35100  0.25052  1.0000
  H   H1        1.0  0.95499  0.43003  0.09398  1.0000
  H   H2        1.0  0.04501  0.56997  0.90602  1.0000
  H   H3        1.0  0.77996  0.34536  0.14657  1.0000
  H   H4        1.0  0.22004  0.65464  0.85343  1.0000
  H   H5        1.0  0.80891  0.68031  0.07167  1.0000
  H   H6        1.0  0.19109  0.31969  0.92833  1.0000
  H   H7        1.0  0.80260  0.60018  0.18317  1.0000
  H   H8        1.0  0.19740  0.39982  0.81683  1.0000
  H   H9        1.0  0.64351  0.58933  0.13684  1.0000
  H   H10       1.0  0.35649  0.41067  0.86316  1.0000
  H   H11       1.0  0.93124  0.18596  0.08424  1.0000
  H   H12       1.0  0.06876  0.81404  0.91576  1.0000
  H   H13       1.0  0.96925  0.98141  0.85851  1.0000
  H   H14       1.0  0.03075  0.01859  0.14150  1.0000
  H   H15       1.0  0.84826  0.20618  0.78550  1.0000
  H   H16       1.0  0.15173  0.79382  0.21450  1.0000
  H   H17       1.0  0.21884  0.60479  0.40858  1.0000
  H   H18       1.0  0.78116  0.39521  0.59142  1.0000
  H   H19       1.0  0.38353  0.79144  0.35584  1.0000
  H   H20       1.0  0.61647  0.20856  0.64416  1.0000
  H   H21       1.0  0.46667  0.60711  0.37662  1.0000
  H   H22       1.0  0.53333  0.39289  0.62338  1.0000
  H   H23       1.0  0.62073  0.89655  0.37396  1.0000
  H   H24       1.0  0.37927  0.10345  0.62604  1.0000
  H   H25       1.0  0.66373  0.78096  0.29406  1.0000
  H   H26       1.0  0.33627  0.21904  0.70594  1.0000
  H   H27       1.0  0.69943  0.71090  0.39957  1.0000
  H   H28       1.0  0.30057  0.28910  0.60043  1.0000
  H   H29       1.0  0.07342  0.56753  0.72840  1.0000
  H   H30       1.0  0.92658  0.43247  0.27160  1.0000
  H   H31       1.0  0.90928  0.46689  0.65262  1.0000
  H   H32       1.0  0.09072  0.53311  0.34738  1.0000
  H   H33       1.0  0.85598  0.80642  0.75010  1.0000
  H   H34       1.0  0.14402  0.19358  0.24990  1.0000
  H   H35       1.0  0.05140  0.95727  0.64359  1.0000
  H   H36       1.0  0.94860  0.04273  0.35641  1.0000
  H   H37       1.0  0.79407  0.93291  0.44653  1.0000
  H   H38       1.0  0.20594  0.06709  0.55347  1.0000
  H   H39       1.0  0.61414  0.77860  0.56092  1.0000
  H   H40       1.0  0.38586  0.22140  0.43908  1.0000
  H   H41       1.0  0.46581  0.13096  0.86002  1.0000
  H   H42       1.0  0.53418  0.86904  0.13998  1.0000
  H   H43       1.0  0.47124  0.95789  0.75738  1.0000
  H   H44       1.0  0.52876  0.04211  0.24262  1.0000
  H   H45       1.0  0.54539  0.59017  0.94255  1.0000
  H   H46       1.0  0.45461  0.40983  0.05745  1.0000
  H   H47       1.0  0.52380  0.74145  0.05624  1.0000
  H   H48       1.0  0.47620  0.25855  0.94376  1.0000
  C   C1        1.0  0.76617  0.46428  0.84109  1.0000
  C   C2        1.0  0.23383  0.53572  0.15891  1.0000
  C   C3        1.0  0.82590  0.32481  0.89070  1.0000
  C   C4        1.0  0.17410  0.67519  0.10930  1.0000
  C   C5        1.0  0.84834  0.31736  0.97632  1.0000
  C   C6        1.0  0.15166  0.68264  0.02368  1.0000
  C   C7        1.0  0.83173  0.44042  0.09857  1.0000
  C   C8        1.0  0.16827  0.55958  0.90143  1.0000
  C   C9        1.0  0.76747  0.58667  0.12358  1.0000
  C   C10       1.0  0.23253  0.41333  0.87642  1.0000
  C   C11       1.0  0.91553  0.18924  0.01836  1.0000
  C   C12       1.0  0.08447  0.81076  0.98164  1.0000
  C   C13       1.0  0.96276  0.06643  0.97726  1.0000
  C   C14       1.0  0.03723  0.93357  0.02274  1.0000
  C   C15       1.0  0.93648  0.07398  0.89279  1.0000
  C   C16       1.0  0.06352  0.92602  0.10721  1.0000
  C   C17       1.0  0.86779  0.20082  0.85116  1.0000
  C   C18       1.0  0.13220  0.79918  0.14884  1.0000
  C   C19       1.0  0.04986  0.52874  0.52381  1.0000
  C   C20       1.0  0.95014  0.47126  0.47619  1.0000
  C   C21       1.0  0.18578  0.59616  0.47869  1.0000
  C   C22       1.0  0.81422  0.40384  0.52131  1.0000
  C   C23       1.0  0.28065  0.65157  0.52260  1.0000
  C   C24       1.0  0.71935  0.34843  0.47739  1.0000
  C   C25       1.0  0.46446  0.72023  0.39052  1.0000
  C   C26       1.0  0.53554  0.27977  0.60948  1.0000
  C   C27       1.0  0.62100  0.78160  0.36360  1.0000
  C   C28       1.0  0.37900  0.21840  0.63640  1.0000
  C   C29       1.0  0.23997  0.64234  0.61336  1.0000
  C   C30       1.0  0.76003  0.35766  0.38664  1.0000
  C   C31       1.0  0.10649  0.57477  0.65814  1.0000
  C   C32       1.0  0.89351  0.42523  0.34186  1.0000
  C   C33       1.0  0.01258  0.51814  0.61451  1.0000
  C   C34       1.0  0.98742  0.48186  0.38549  1.0000
  C   C35       1.0  0.34233  0.69755  0.66189  1.0000
  C   C36       1.0  0.65767  0.30245  0.33811  1.0000
  C   C37       1.0  0.84708  0.84003  0.68203  1.0000
  C   C38       1.0  0.15292  0.15997  0.31797  1.0000
  C   C39       1.0  0.95534  0.92425  0.62151  1.0000
  C   C40       1.0  0.04466  0.07575  0.37849  1.0000
  C   C41       1.0  0.94216  0.95797  0.53374  1.0000
  C   C42       1.0  0.05784  0.04203  0.46625  1.0000
  C   C43       1.0  0.81474  0.90743  0.51251  1.0000
  C   C44       1.0  0.18526  0.09257  0.48748  1.0000
  C   C45       1.0  0.71198  0.82201  0.57632  1.0000
  C   C46       1.0  0.28802  0.17799  0.42368  1.0000
  C   C47       1.0  0.49924  0.95210  0.96806  1.0000
  C   C48       1.0  0.50075  0.04790  0.03195  1.0000
  C   C49       1.0  0.48188  0.01179  0.88241  1.0000
  C   C50       1.0  0.51812  0.98821  0.11759  1.0000
  C   C51       1.0  0.48682  0.91734  0.82394  1.0000
  C   C52       1.0  0.51318  0.08266  0.17606  1.0000
  C   C53       1.0  0.52477  0.71014  0.92779  1.0000
  C   C54       1.0  0.47522  0.28986  0.07221  1.0000
  C   C55       1.0  0.51551  0.79676  0.99066  1.0000
  C   C56       1.0  0.48449  0.20324  0.00935  1.0000
  N   N1        1.0  0.72866  0.78737  0.65989  1.0000
  N   N2        1.0  0.27135  0.21263  0.34011  1.0000
  N   N3        1.0  0.51201  0.76900  0.84556  1.0000
  N   N4        1.0  0.48799  0.23100  0.15444  1.0000
  O   O1        1.0  0.65235  0.44934  0.80551  1.0000
  O   O2        1.0  0.34764  0.55066  0.19449  1.0000
  O   O3        1.0  0.82599  0.58554  0.83452  1.0000
  O   O4        1.0  0.17401  0.41446  0.16548  1.0000
  O   O5        1.0  0.79742  0.43728  0.01431  1.0000
  O   O6        1.0  0.20258  0.56272  0.98569  1.0000
  O   O7        1.0  0.41502  0.71596  0.48302  1.0000
  O   O8        1.0  0.58498  0.28404  0.51698  1.0000
  O   O9        1.0  0.44086  0.59589  0.68637  1.0000
  O   O10       1.0  0.55914  0.40411  0.31363  1.0000
  O   O11       1.0  0.32871  0.82700  0.67694  1.0000
  O   O12       1.0  0.67129  0.17300  0.32307  1.0000
