data_image0
_chemical_formula_structural       Cu3H12C18N4O12
_chemical_formula_sum              "Cu3 H12 C18 N4 O12"
_cell_length_a       6.55372
_cell_length_b       8.08194
_cell_length_c       10.5243
_cell_angle_alpha    86.7661
_cell_angle_beta     76.512
_cell_angle_gamma    69.784

_space_group_name_H-M_alt    "P 1"
_space_group_IT_number       1

loop_
  _space_group_symop_operation_xyz
  'x, y, z'

loop_
  _atom_site_type_symbol
  _atom_site_label
  _atom_site_symmetry_multiplicity
  _atom_site_fract_x
  _atom_site_fract_y
  _atom_site_fract_z
  _atom_site_occupancy
  Cu  Cu1       1.0  0.50000  1.00000  0.00000  1.0000
  Cu  Cu2       1.0  0.10954  0.26244  0.50632  1.0000
  Cu  Cu3       1.0  0.89046  0.73756  0.49369  1.0000
  H   H1        1.0  0.74872  0.19973  0.70953  1.0000
  H   H2        1.0  0.25128  0.80027  0.29047  1.0000
  H   H3        1.0  0.36462  0.21038  0.70851  1.0000
  H   H4        1.0  0.63538  0.78962  0.29149  1.0000
  H   H5        1.0  0.52618  0.19509  0.30129  1.0000
  H   H6        1.0  0.47381  0.80492  0.69871  1.0000
  H   H7        1.0  0.90813  0.19317  0.30213  1.0000
  H   H8        1.0  0.09185  0.80684  0.69787  1.0000
  H   H9        1.0  0.14937  0.06348  0.90210  1.0000
  H   H10       1.0  0.85063  0.93652  0.09790  1.0000
  H   H11       1.0  0.22900  0.85677  0.94493  1.0000
  H   H12       1.0  0.77101  0.14322  0.05507  1.0000
  C   C1        1.0  0.10959  0.48322  0.24354  1.0000
  C   C2        1.0  0.89041  0.51678  0.75646  1.0000
  C   C3        1.0  0.22560  0.32091  0.16389  1.0000
  C   C4        1.0  0.77439  0.67909  0.83611  1.0000
  C   C5        1.0  0.29259  0.37125  0.02814  1.0000
  C   C6        1.0  0.70741  0.62875  0.97186  1.0000
  C   C7        1.0  0.20842  0.56470  0.02167  1.0000
  C   C8        1.0  0.79158  0.43530  0.97833  1.0000
  C   C9        1.0  0.08583  0.63279  0.15573  1.0000
  C   C10       1.0  0.91418  0.36721  0.84427  1.0000
  C   C11       1.0  0.69748  0.20464  0.61794  1.0000
  C   C12       1.0  0.30252  0.79536  0.38206  1.0000
  C   C13       1.0  0.48473  0.20869  0.61737  1.0000
  C   C14       1.0  0.51527  0.79130  0.38263  1.0000
  C   C15       1.0  0.57350  0.20206  0.39263  1.0000
  C   C16       1.0  0.42649  0.79795  0.60737  1.0000
  C   C17       1.0  0.78541  0.20007  0.39314  1.0000
  C   C18       1.0  0.21458  0.79994  0.60686  1.0000
  N   N1        1.0  0.84871  0.20667  0.50597  1.0000
  N   N2        1.0  0.15129  0.79333  0.49403  1.0000
  N   N3        1.0  0.41729  0.21181  0.50473  1.0000
  N   N4        1.0  0.58270  0.78819  0.49528  1.0000
  O   O1        1.0  0.04147  0.49287  0.36638  1.0000
  O   O2        1.0  0.95853  0.50713  0.63362  1.0000
  O   O3        1.0  0.26851  0.16549  0.20161  1.0000
  O   O4        1.0  0.73149  0.83451  0.79839  1.0000
  O   O5        1.0  0.40794  0.26173  0.93587  1.0000
  O   O6        1.0  0.59207  0.73827  0.06413  1.0000
  O   O7        1.0  0.23904  0.65404  0.92223  1.0000
  O   O8        1.0  0.76097  0.34596  0.07777  1.0000
  O   O9        1.0  0.98065  0.79105  0.19195  1.0000
  O   O10       1.0  0.01936  0.20895  0.80805  1.0000
  O   O11       1.0  0.24093  0.97544  0.95598  1.0000
  O   O12       1.0  0.75908  0.02455  0.04402  1.0000
