data_image0
_chemical_formula_structural       Cd2H16C20S4N12
_chemical_formula_sum              "Cd2 H16 C20 S4 N12"
_cell_length_a       8.72223
_cell_length_b       9.1207
_cell_length_c       9.12069
_cell_angle_alpha    113.535
_cell_angle_beta     89.9999
_cell_angle_gamma    90.0005

_space_group_name_H-M_alt    "P 1"
_space_group_IT_number       1

loop_
  _space_group_symop_operation_xyz
  'x, y, z'

loop_
  _atom_site_type_symbol
  _atom_site_label
  _atom_site_symmetry_multiplicity
  _atom_site_fract_x
  _atom_site_fract_y
  _atom_site_fract_z
  _atom_site_occupancy
  Cd  Cd1       1.0  0.00000  0.50000  0.50000  1.0000
  Cd  Cd2       1.0  0.50000  0.00000  1.00000  1.0000
  H   H1        1.0  0.94042  0.19158  0.58457  1.0000
  H   H2        1.0  0.44042  0.30841  0.91542  1.0000
  H   H3        1.0  0.05959  0.58457  0.19158  1.0000
  H   H4        1.0  0.55959  0.91543  0.30842  1.0000
  H   H5        1.0  0.05959  0.80842  0.41543  1.0000
  H   H6        1.0  0.55959  0.69158  0.08457  1.0000
  H   H7        1.0  0.94042  0.41543  0.80841  1.0000
  H   H8        1.0  0.44043  0.08457  0.69159  1.0000
  H   H9        1.0  0.75000  0.96703  0.53297  1.0000
  H   H10       1.0  0.25000  0.53297  0.96703  1.0000
  H   H11       1.0  0.25001  0.03297  0.46703  1.0000
  H   H12       1.0  0.75001  0.46703  0.03297  1.0000
  H   H13       1.0  0.74999  0.28603  0.21398  1.0000
  H   H14       1.0  0.24999  0.21397  0.28603  1.0000
  H   H15       1.0  0.24999  0.71398  0.78603  1.0000
  H   H16       1.0  0.74999  0.78602  0.71396  1.0000
  C   C1        1.0  0.70108  0.62312  0.37688  1.0000
  C   C2        1.0  0.20108  0.87688  0.12312  1.0000
  C   C3        1.0  0.29892  0.37687  0.62313  1.0000
  C   C4        1.0  0.79892  0.12313  0.87688  1.0000
  C   C5        1.0  0.85336  0.16278  0.49117  1.0000
  C   C6        1.0  0.35334  0.33721  0.00884  1.0000
  C   C7        1.0  0.14664  0.49118  0.16279  1.0000
  C   C8        1.0  0.64664  0.00882  0.33721  1.0000
  C   C9        1.0  0.14665  0.83722  0.50882  1.0000
  C   C10       1.0  0.64665  0.66279  0.99117  1.0000
  C   C11       1.0  0.85335  0.50884  0.83722  1.0000
  C   C12       1.0  0.35335  0.99116  0.66278  1.0000
  C   C13       1.0  0.75001  0.03829  0.46170  1.0000
  C   C14       1.0  0.25000  0.46169  0.03830  1.0000
  C   C15       1.0  0.25000  0.96169  0.53830  1.0000
  C   C16       1.0  0.75000  0.53830  0.96169  1.0000
  C   C17       1.0  0.75000  0.21453  0.28547  1.0000
  C   C18       1.0  0.24999  0.28546  0.21454  1.0000
  C   C19       1.0  0.24999  0.78547  0.71453  1.0000
  C   C20       1.0  0.74999  0.71453  0.78547  1.0000
  S   S1        1.0  0.51799  0.63583  0.36417  1.0000
  S   S2        1.0  0.01799  0.86418  0.13582  1.0000
  S   S3        1.0  0.48201  0.36416  0.63584  1.0000
  S   S4        1.0  0.98201  0.13584  0.86417  1.0000
  N   N1        1.0  0.83758  0.61550  0.38449  1.0000
  N   N2        1.0  0.33757  0.88449  0.11551  1.0000
  N   N3        1.0  0.16242  0.38450  0.61551  1.0000
  N   N4        1.0  0.66242  0.11551  0.88450  1.0000
  N   N5        1.0  0.84997  0.25432  0.40645  1.0000
  N   N6        1.0  0.34996  0.24567  0.09355  1.0000
  N   N7        1.0  0.15003  0.40645  0.25432  1.0000
  N   N8        1.0  0.65003  0.09355  0.24568  1.0000
  N   N9        1.0  0.15004  0.74568  0.59356  1.0000
  N   N10       1.0  0.65003  0.75432  0.90644  1.0000
  N   N11       1.0  0.84996  0.59355  0.74567  1.0000
  N   N12       1.0  0.34996  0.90644  0.75433  1.0000
