data_image0
_chemical_formula_structural       Cd2H8C12S4N8
_chemical_formula_sum              "Cd2 H8 C12 S4 N8"
_cell_length_a       5.60198
_cell_length_b       6.88477
_cell_length_c       12.5149
_cell_angle_alpha    89.9993
_cell_angle_beta     90.0011
_cell_angle_gamma    106.247

_space_group_name_H-M_alt    "P 1"
_space_group_IT_number       1

loop_
  _space_group_symop_operation_xyz
  'x, y, z'

loop_
  _atom_site_type_symbol
  _atom_site_label
  _atom_site_symmetry_multiplicity
  _atom_site_fract_x
  _atom_site_fract_y
  _atom_site_fract_z
  _atom_site_occupancy
  Cd  Cd1       1.0  0.50000  0.49999  0.50000  1.0000
  Cd  Cd2       1.0  0.50001  0.50001  1.00000  1.0000
  H   H1        1.0  0.42015  0.51954  0.25000  1.0000
  H   H2        1.0  0.57986  0.48044  0.75000  1.0000
  H   H3        1.0  0.02473  0.86532  0.42239  1.0000
  H   H4        1.0  0.97527  0.13470  0.92239  1.0000
  H   H5        1.0  0.97525  0.13469  0.57761  1.0000
  H   H6        1.0  0.02473  0.86531  0.07761  1.0000
  H   H7        1.0  0.24760  0.99700  0.25000  1.0000
  H   H8        1.0  0.75238  0.00301  0.75000  1.0000
  C   C1        1.0  0.93333  0.30830  0.40301  1.0000
  C   C2        1.0  0.06665  0.69170  0.90301  1.0000
  C   C3        1.0  0.06667  0.69169  0.59699  1.0000
  C   C4        1.0  0.93336  0.30831  0.09698  1.0000
  C   C5        1.0  0.60546  0.62651  0.25000  1.0000
  C   C6        1.0  0.39454  0.37348  0.75000  1.0000
  C   C7        1.0  0.93925  0.81889  0.34481  1.0000
  C   C8        1.0  0.06075  0.18112  0.84481  1.0000
  C   C9        1.0  0.06075  0.18111  0.65519  1.0000
  C   C10       1.0  0.93924  0.81889  0.15519  1.0000
  C   C11       1.0  0.06254  0.89019  0.25000  1.0000
  C   C12       1.0  0.93745  0.10982  0.75000  1.0000
  S   S1        1.0  0.64076  0.18404  0.41036  1.0000
  S   S2        1.0  0.35923  0.81596  0.91036  1.0000
  S   S3        1.0  0.35923  0.81595  0.58963  1.0000
  S   S4        1.0  0.64079  0.18404  0.08963  1.0000
  N   N1        1.0  0.14771  0.39685  0.39901  1.0000
  N   N2        1.0  0.85228  0.60317  0.89901  1.0000
  N   N3        1.0  0.85227  0.60313  0.60099  1.0000
  N   N4        1.0  0.14772  0.39685  0.10099  1.0000
  N   N5        1.0  0.71061  0.68712  0.34480  1.0000
  N   N6        1.0  0.28940  0.31288  0.84479  1.0000
  N   N7        1.0  0.28940  0.31288  0.65521  1.0000
  N   N8        1.0  0.71060  0.68712  0.15521  1.0000
