data_image0
_chemical_formula_structural       Cd4H24C32S8N20
_chemical_formula_sum              "Cd4 H24 C32 S8 N20"
_cell_length_a       7.12132
_cell_length_b       11.2923
_cell_length_c       14.9899
_cell_angle_alpha    90.0001
_cell_angle_beta     90.0001
_cell_angle_gamma    89.9997

_space_group_name_H-M_alt    "P 1"
_space_group_IT_number       1

loop_
  _space_group_symop_operation_xyz
  'x, y, z'

loop_
  _atom_site_type_symbol
  _atom_site_label
  _atom_site_symmetry_multiplicity
  _atom_site_fract_x
  _atom_site_fract_y
  _atom_site_fract_z
  _atom_site_occupancy
  Cd  Cd1       1.0  0.45771  0.54765  0.27862  1.0000
  Cd  Cd2       1.0  0.45771  0.45235  0.72138  1.0000
  Cd  Cd3       1.0  0.54228  0.95235  0.77862  1.0000
  Cd  Cd4       1.0  0.54229  0.04765  0.22138  1.0000
  H   H1        1.0  0.36657  0.50000  0.50000  1.0000
  H   H2        1.0  0.63343  1.00000  0.00000  1.0000
  H   H3        1.0  0.86182  0.53171  0.35743  1.0000
  H   H4        1.0  0.86182  0.46829  0.64257  1.0000
  H   H5        1.0  0.13818  0.96829  0.85743  1.0000
  H   H6        1.0  0.13818  0.03172  0.14257  1.0000
  H   H7        1.0  0.04919  0.49999  0.50000  1.0000
  H   H8        1.0  0.95081  0.00000  1.00000  1.0000
  H   H9        1.0  0.05275  0.58738  0.18797  1.0000
  H   H10       1.0  0.05274  0.41262  0.81202  1.0000
  H   H11       1.0  0.94725  0.91263  0.68798  1.0000
  H   H12       1.0  0.94726  0.08738  0.31203  1.0000
  H   H13       1.0  0.08463  0.68528  0.92186  1.0000
  H   H14       1.0  0.08464  0.31472  0.07814  1.0000
  H   H15       1.0  0.91536  0.81473  0.42186  1.0000
  H   H16       1.0  0.91537  0.18527  0.57814  1.0000
  H   H17       1.0  0.43856  0.68938  0.93166  1.0000
  H   H18       1.0  0.43856  0.31062  0.06833  1.0000
  H   H19       1.0  0.56144  0.81062  0.43167  1.0000
  H   H20       1.0  0.56145  0.18937  0.56834  1.0000
  H   H21       1.0  0.58567  0.63400  0.08015  1.0000
  H   H22       1.0  0.58567  0.36601  0.91985  1.0000
  H   H23       1.0  0.41433  0.86601  0.58015  1.0000
  H   H24       1.0  0.41434  0.13399  0.41985  1.0000
  C   C1        1.0  0.29217  0.82159  0.31721  1.0000
  C   C2        1.0  0.29216  0.17841  0.68279  1.0000
  C   C3        1.0  0.70783  0.67841  0.81721  1.0000
  C   C4        1.0  0.70783  0.32159  0.18279  1.0000
  C   C5        1.0  0.25561  0.27595  0.27215  1.0000
  C   C6        1.0  0.25561  0.72404  0.72786  1.0000
  C   C7        1.0  0.74438  0.22405  0.77214  1.0000
  C   C8        1.0  0.74439  0.77595  0.22786  1.0000
  C   C9        1.0  0.51961  0.50000  0.50000  1.0000
  C   C10       1.0  0.48039  1.00000  0.00000  1.0000
  C   C11       1.0  0.79504  0.51667  0.42183  1.0000
  C   C12       1.0  0.79504  0.48332  0.57817  1.0000
  C   C13       1.0  0.20496  0.98333  0.92183  1.0000
  C   C14       1.0  0.20496  0.01668  0.07818  1.0000
  C   C15       1.0  0.89659  0.50000  0.50000  1.0000
  C   C16       1.0  0.10341  0.00000  1.00000  1.0000
  C   C17       1.0  0.13791  0.60969  0.12977  1.0000
  C   C18       1.0  0.13791  0.39031  0.87023  1.0000
  C   C19       1.0  0.86209  0.89031  0.62977  1.0000
  C   C20       1.0  0.86210  0.10970  0.37023  1.0000
  C   C21       1.0  0.15718  0.66374  0.98402  1.0000
  C   C22       1.0  0.15719  0.33626  0.01597  1.0000
  C   C23       1.0  0.84282  0.83626  0.48402  1.0000
  C   C24       1.0  0.84282  0.16374  0.51597  1.0000
  C   C25       1.0  0.35274  0.66586  0.98905  1.0000
  C   C26       1.0  0.35273  0.33415  0.01094  1.0000
  C   C27       1.0  0.64726  0.83415  0.48906  1.0000
  C   C28       1.0  0.64727  0.16585  0.51095  1.0000
  C   C29       1.0  0.43360  0.63592  0.07046  1.0000
  C   C30       1.0  0.43359  0.36408  0.92954  1.0000
  C   C31       1.0  0.56641  0.86408  0.57046  1.0000
  C   C32       1.0  0.56641  0.13592  0.42954  1.0000
  S   S1        1.0  0.21778  0.70119  0.36585  1.0000
  S   S2        1.0  0.21778  0.29881  0.63415  1.0000
  S   S3        1.0  0.78221  0.79881  0.86585  1.0000
  S   S4        1.0  0.78222  0.20119  0.13415  1.0000
  S   S5        1.0  0.17651  0.39585  0.31945  1.0000
  S   S6        1.0  0.17651  0.60415  0.68054  1.0000
  S   S7        1.0  0.82348  0.10415  0.81945  1.0000
  S   S8        1.0  0.82349  0.89585  0.18055  1.0000
  N   N1        1.0  0.34662  0.90943  0.28306  1.0000
  N   N2        1.0  0.34662  0.09057  0.71695  1.0000
  N   N3        1.0  0.65338  0.59057  0.78305  1.0000
  N   N4        1.0  0.65338  0.40943  0.21695  1.0000
  N   N5        1.0  0.30906  0.18846  0.23702  1.0000
  N   N6        1.0  0.30906  0.81153  0.76298  1.0000
  N   N7        1.0  0.69095  0.31153  0.73702  1.0000
  N   N8        1.0  0.69094  0.68846  0.26299  1.0000
  N   N9        1.0  0.60635  0.51554  0.42194  1.0000
  N   N10       1.0  0.60635  0.48446  0.57806  1.0000
  N   N11       1.0  0.39364  0.98445  0.92194  1.0000
  N   N12       1.0  0.39365  0.01554  0.07806  1.0000
  N   N13       1.0  0.32548  0.60714  0.14086  1.0000
  N   N14       1.0  0.32547  0.39286  0.85913  1.0000
  N   N15       1.0  0.67452  0.89286  0.64087  1.0000
  N   N16       1.0  0.67453  0.10714  0.35914  1.0000
  N   N17       1.0  0.04821  0.63656  0.05435  1.0000
  N   N18       1.0  0.04821  0.36345  0.94564  1.0000
  N   N19       1.0  0.95179  0.86345  0.55436  1.0000
  N   N20       1.0  0.95179  0.13656  0.44565  1.0000
