data_image0
_chemical_formula_structural       Cd8H32C48Se16N32
_chemical_formula_sum              "Cd8 H32 C48 Se16 N32"
_cell_length_a       8.67475
_cell_length_b       9.37253
_cell_length_c       29.2877
_cell_angle_alpha    89.0012
_cell_angle_beta     87.8412
_cell_angle_gamma    62.4336

_space_group_name_H-M_alt    "P 1"
_space_group_IT_number       1

loop_
  _space_group_symop_operation_xyz
  'x, y, z'

loop_
  _atom_site_type_symbol
  _atom_site_label
  _atom_site_symmetry_multiplicity
  _atom_site_fract_x
  _atom_site_fract_y
  _atom_site_fract_z
  _atom_site_occupancy
  Cd  Cd1       1.0  0.82109  0.33598  0.62755  1.0000
  Cd  Cd2       1.0  0.84292  0.33597  0.87246  1.0000
  Cd  Cd3       1.0  0.17891  0.66402  0.37245  1.0000
  Cd  Cd4       1.0  0.15708  0.66403  0.12754  1.0000
  Cd  Cd5       1.0  0.50000  0.00000  0.50000  1.0000
  Cd  Cd6       1.0  0.50000  0.00000  1.00000  1.0000
  Cd  Cd7       1.0  0.51617  0.96762  0.75000  1.0000
  Cd  Cd8       1.0  0.48383  0.03238  0.25000  1.0000
  H   H1        1.0  0.72399  0.65731  0.56054  1.0000
  H   H2        1.0  0.61862  0.65734  0.93947  1.0000
  H   H3        1.0  0.27601  0.34269  0.43946  1.0000
  H   H4        1.0  0.38139  0.34266  0.06053  1.0000
  H   H5        1.0  0.23262  0.83071  0.50711  1.0000
  H   H6        1.0  0.93645  0.83096  0.99286  1.0000
  H   H7        1.0  0.76738  0.16930  0.49289  1.0000
  H   H8        1.0  0.06355  0.16904  0.00714  1.0000
  H   H9        1.0  0.17550  0.63283  0.55620  1.0000
  H   H10       1.0  0.19152  0.63296  0.94381  1.0000
  H   H11       1.0  0.82450  0.36717  0.44380  1.0000
  H   H12       1.0  0.80848  0.36704  0.05619  1.0000
  H   H13       1.0  0.41169  0.45684  0.60979  1.0000
  H   H14       1.0  0.13140  0.45688  0.89024  1.0000
  H   H15       1.0  0.58831  0.54316  0.39021  1.0000
  H   H16       1.0  0.86859  0.54312  0.10976  1.0000
  H   H17       1.0  0.17691  0.20521  0.68932  1.0000
  H   H18       1.0  0.61785  0.20525  0.81068  1.0000
  H   H19       1.0  0.82309  0.79479  0.31068  1.0000
  H   H20       1.0  0.38215  0.79475  0.18932  1.0000
  H   H21       1.0  0.36255  0.72610  0.72734  1.0000
  H   H22       1.0  0.91131  0.72616  0.77265  1.0000
  H   H23       1.0  0.63744  0.27390  0.27266  1.0000
  H   H24       1.0  0.08869  0.27384  0.22735  1.0000
  H   H25       1.0  0.13577  0.70521  0.67972  1.0000
  H   H26       1.0  0.15901  0.70524  0.82026  1.0000
  H   H27       1.0  0.86423  0.29479  0.32028  1.0000
  H   H28       1.0  0.84099  0.29476  0.17974  1.0000
  H   H29       1.0  0.92699  0.95892  0.63841  1.0000
  H   H30       1.0  0.11408  0.95893  0.86159  1.0000
  H   H31       1.0  0.07301  0.04108  0.36159  1.0000
  H   H32       1.0  0.88592  0.04107  0.13841  1.0000
  C   C1        1.0  0.82472  0.67008  0.67695  1.0000
  C   C2        1.0  0.50520  0.67006  0.82304  1.0000
  C   C3        1.0  0.17529  0.32991  0.32305  1.0000
  C   C4        1.0  0.49480  0.32994  0.17696  1.0000
  C   C5        1.0  0.55108  0.27682  0.70592  1.0000
  C   C6        1.0  0.17208  0.27681  0.79408  1.0000
  C   C7        1.0  0.44892  0.72318  0.29408  1.0000
  C   C8        1.0  0.82793  0.72319  0.20592  1.0000
  C   C9        1.0  0.04558  0.21602  0.52220  1.0000
  C   C10       1.0  0.73844  0.21600  0.97782  1.0000
  C   C11       1.0  0.95442  0.78398  0.47779  1.0000
  C   C12       1.0  0.26156  0.78399  0.02218  1.0000
  C   C13       1.0  0.57298  0.15604  0.59785  1.0000
  C   C14       1.0  0.27092  0.15618  0.90219  1.0000
  C   C15       1.0  0.42702  0.84397  0.40215  1.0000
  C   C16       1.0  0.72907  0.84381  0.09781  1.0000
  C   C17       1.0  0.60049  0.65254  0.55970  1.0000
  C   C18       1.0  0.74687  0.65260  0.94031  1.0000
  C   C19       1.0  0.39951  0.34746  0.44030  1.0000
  C   C20       1.0  0.25313  0.34740  0.05969  1.0000
  C   C21       1.0  0.32927  0.74658  0.53020  1.0000
  C   C22       1.0  0.92398  0.74676  0.96980  1.0000
  C   C23       1.0  0.67074  0.25341  0.46980  1.0000
  C   C24       1.0  0.07603  0.25324  0.03020  1.0000
  C   C25       1.0  0.29815  0.63810  0.55712  1.0000
  C   C26       1.0  0.06361  0.63822  0.94289  1.0000
  C   C27       1.0  0.70185  0.36190  0.44288  1.0000
  C   C28       1.0  0.93640  0.36178  0.05711  1.0000
  C   C29       1.0  0.42804  0.54083  0.58635  1.0000
  C   C30       1.0  0.03105  0.54088  0.91368  1.0000
  C   C31       1.0  0.57196  0.45917  0.41365  1.0000
  C   C32       1.0  0.96896  0.45912  0.08632  1.0000
  C   C33       1.0  0.16675  0.09361  0.68745  1.0000
  C   C34       1.0  0.73960  0.09364  0.81255  1.0000
  C   C35       1.0  0.83324  0.90639  0.31255  1.0000
  C   C36       1.0  0.26039  0.90635  0.18745  1.0000
  C   C37       1.0  0.26853  0.82861  0.70829  1.0000
  C   C38       1.0  0.90283  0.82865  0.79171  1.0000
  C   C39       1.0  0.73147  0.17139  0.29171  1.0000
  C   C40       1.0  0.09717  0.17134  0.20829  1.0000
  C   C41       1.0  0.14382  0.81740  0.68228  1.0000
  C   C42       1.0  0.03877  0.81743  0.81771  1.0000
  C   C43       1.0  0.85618  0.18260  0.31772  1.0000
  C   C44       1.0  0.96124  0.18257  0.18229  1.0000
  C   C45       1.0  0.03017  0.95529  0.65936  1.0000
  C   C46       1.0  0.01453  0.95530  0.84063  1.0000
  C   C47       1.0  0.96983  0.04472  0.34064  1.0000
  C   C48       1.0  0.98547  0.04470  0.15937  1.0000
  Se  Se1       1.0  0.99322  0.52220  0.64032  1.0000
  Se  Se2       1.0  0.48458  0.52220  0.85969  1.0000
  Se  Se3       1.0  0.00679  0.47779  0.35968  1.0000
  Se  Se4       1.0  0.51542  0.47780  0.14032  1.0000
  Se  Se5       1.0  0.62698  0.42530  0.70917  1.0000
  Se  Se6       1.0  0.94772  0.42534  0.79085  1.0000
  Se  Se7       1.0  0.37302  0.57471  0.29083  1.0000
  Se  Se8       1.0  0.05229  0.57466  0.20915  1.0000
  Se  Se9       1.0  0.15572  0.12240  0.46928  1.0000
  Se  Se10      1.0  0.72193  0.12241  0.03075  1.0000
  Se  Se11      1.0  0.84428  0.87760  0.53072  1.0000
  Se  Se12      1.0  0.27807  0.87759  0.96925  1.0000
  Se  Se13      1.0  0.37698  0.14370  0.58685  1.0000
  Se  Se14      1.0  0.47912  0.14415  0.91320  1.0000
  Se  Se15      1.0  0.62303  0.85630  0.41315  1.0000
  Se  Se16      1.0  0.52088  0.85584  0.08679  1.0000
  N   N1        1.0  0.71716  0.76736  0.70113  1.0000
  N   N2        1.0  0.51551  0.76732  0.79886  1.0000
  N   N3        1.0  0.28284  0.23263  0.29887  1.0000
  N   N4        1.0  0.48449  0.23267  0.20114  1.0000
  N   N5        1.0  0.50270  0.17826  0.70467  1.0000
  N   N6        1.0  0.31899  0.17821  0.79534  1.0000
  N   N7        1.0  0.49729  0.82174  0.29534  1.0000
  N   N8        1.0  0.68101  0.82179  0.20466  1.0000
  N   N9        1.0  0.96926  0.27483  0.55659  1.0000
  N   N10       1.0  0.75594  0.27477  0.94342  1.0000
  N   N11       1.0  0.03073  0.72517  0.44341  1.0000
  N   N12       1.0  0.24406  0.72523  0.05658  1.0000
  N   N13       1.0  0.69858  0.16993  0.60479  1.0000
  N   N14       1.0  0.13152  0.16991  0.89520  1.0000
  N   N15       1.0  0.30143  0.83007  0.39521  1.0000
  N   N16       1.0  0.86846  0.83009  0.10480  1.0000
  N   N17       1.0  0.58070  0.54537  0.58678  1.0000
  N   N18       1.0  0.87387  0.54538  0.91325  1.0000
  N   N19       1.0  0.41930  0.45463  0.41322  1.0000
  N   N20       1.0  0.12612  0.45462  0.08675  1.0000
  N   N21       1.0  0.47897  0.75620  0.53215  1.0000
  N   N22       1.0  0.76467  0.75634  0.96784  1.0000
  N   N23       1.0  0.52103  0.24380  0.46785  1.0000
  N   N24       1.0  0.23534  0.24366  0.03216  1.0000
  N   N25       1.0  0.04124  0.09346  0.66218  1.0000
  N   N26       1.0  0.86527  0.09348  0.83782  1.0000
  N   N27       1.0  0.95876  0.90654  0.33782  1.0000
  N   N28       1.0  0.13473  0.90652  0.16218  1.0000
  N   N29       1.0  0.28050  0.96627  0.71063  1.0000
  N   N30       1.0  0.75320  0.96631  0.78936  1.0000
  N   N31       1.0  0.71950  0.03373  0.28937  1.0000
  N   N32       1.0  0.24680  0.03369  0.21064  1.0000
