data_image0
_chemical_formula_structural       Cu2H54C44N2Cl4O4
_chemical_formula_sum              "Cu2 H54 C44 N2 Cl4 O4"
_cell_length_a       8.32111
_cell_length_b       9.38139
_cell_length_c       14.413
_cell_angle_alpha    90
_cell_angle_beta     90
_cell_angle_gamma    96.9379

_space_group_name_H-M_alt    "P 1"
_space_group_IT_number       1

loop_
  _space_group_symop_operation_xyz
  'x, y, z'

loop_
  _atom_site_type_symbol
  _atom_site_label
  _atom_site_symmetry_multiplicity
  _atom_site_fract_x
  _atom_site_fract_y
  _atom_site_fract_z
  _atom_site_occupancy
  Cu  Cu1       1.0  0.83013  0.93421  0.39333  1.0000
  Cu  Cu2       1.0  0.16986  0.06582  0.89331  1.0000
  H   H1        1.0  0.12024  0.82667  0.54827  1.0000
  H   H2        1.0  0.87975  0.17334  0.04824  1.0000
  H   H3        1.0  0.49700  0.65959  0.35098  1.0000
  H   H4        1.0  0.50298  0.34045  0.85097  1.0000
  H   H5        1.0  0.63916  0.44431  0.34927  1.0000
  H   H6        1.0  0.36083  0.55574  0.84928  1.0000
  H   H7        1.0  0.61622  0.27589  0.48317  1.0000
  H   H8        1.0  0.38378  0.72413  0.98320  1.0000
  H   H9        1.0  0.44327  0.32353  0.61925  1.0000
  H   H10       1.0  0.55672  0.67645  0.11926  1.0000
  H   H11       1.0  0.36012  0.62608  0.69441  1.0000
  H   H12       1.0  0.63989  0.37391  0.19440  1.0000
  H   H13       1.0  0.24323  0.45632  0.68636  1.0000
  H   H14       1.0  0.75677  0.54366  0.18636  1.0000
  H   H15       1.0  0.97843  0.77139  0.68235  1.0000
  H   H16       1.0  0.02158  0.22861  0.18233  1.0000
  H   H17       1.0  0.16309  0.76959  0.74285  1.0000
  H   H18       1.0  0.83691  0.23041  0.24283  1.0000
  H   H19       1.0  0.93319  0.64512  0.83222  1.0000
  H   H20       1.0  0.06682  0.35488  0.33219  1.0000
  H   H21       1.0  0.06997  0.52361  0.80328  1.0000
  H   H22       1.0  0.93005  0.47637  0.30327  1.0000
  H   H23       1.0  0.75009  0.55230  0.70288  1.0000
  H   H24       1.0  0.24991  0.44771  0.20285  1.0000
  H   H25       1.0  0.79419  0.40785  0.77304  1.0000
  H   H26       1.0  0.20581  0.59215  0.27302  1.0000
  H   H27       1.0  0.81574  0.35688  0.60062  1.0000
  H   H28       1.0  0.18424  0.64313  0.10061  1.0000
  H   H29       1.0  0.99633  0.34273  0.66074  1.0000
  H   H30       1.0  0.00367  0.65726  0.16071  1.0000
  H   H31       1.0  0.05044  0.47761  0.51315  1.0000
  H   H32       1.0  0.94957  0.52239  0.01313  1.0000
  H   H33       1.0  0.91210  0.59837  0.54418  1.0000
  H   H34       1.0  0.08790  0.40164  0.04417  1.0000
  H   H35       1.0  0.18038  0.12336  0.33768  1.0000
  H   H36       1.0  0.81961  0.87662  0.83769  1.0000
  H   H37       1.0  0.08732  0.98785  0.26375  1.0000
  H   H38       1.0  0.91268  0.01213  0.76376  1.0000
  H   H39       1.0  0.50689  0.14079  0.35450  1.0000
  H   H40       1.0  0.49310  0.85919  0.85448  1.0000
  H   H41       1.0  0.60894  0.02822  0.28242  1.0000
  H   H42       1.0  0.39105  0.97175  0.78240  1.0000
  H   H43       1.0  0.47914  0.16328  0.14693  1.0000
  H   H44       1.0  0.52091  0.83670  0.64690  1.0000
  H   H45       1.0  0.26639  0.15139  0.13828  1.0000
  H   H46       1.0  0.73363  0.84860  0.63827  1.0000
  H   H47       1.0  0.36857  0.25645  0.22866  1.0000
  H   H48       1.0  0.63145  0.74355  0.72861  1.0000
  H   H49       1.0  0.46762  0.89722  0.15089  1.0000
  H   H50       1.0  0.53242  0.10278  0.65088  1.0000
  H   H51       1.0  0.34136  0.79182  0.23037  1.0000
  H   H52       1.0  0.65866  0.20813  0.73036  1.0000
  H   H53       1.0  0.25356  0.88362  0.13877  1.0000
  H   H54       1.0  0.74646  0.11637  0.63878  1.0000
  C   C1        1.0  0.30518  0.74287  0.49115  1.0000
  C   C2        1.0  0.69481  0.25715  0.99113  1.0000
  C   C3        1.0  0.39486  0.61820  0.48848  1.0000
  C   C4        1.0  0.60512  0.38180  0.98849  1.0000
  C   C5        1.0  0.48646  0.58763  0.41044  1.0000
  C   C6        1.0  0.51352  0.41238  0.91044  1.0000
  C   C7        1.0  0.56546  0.46533  0.40905  1.0000
  C   C8        1.0  0.43454  0.53470  0.90905  1.0000
  C   C9        1.0  0.55163  0.37058  0.48439  1.0000
  C   C10       1.0  0.44836  0.62943  0.98439  1.0000
  C   C11       1.0  0.45754  0.39833  0.56104  1.0000
  C   C12       1.0  0.54244  0.60168  0.06104  1.0000
  C   C13       1.0  0.37931  0.52155  0.56427  1.0000
  C   C14       1.0  0.62067  0.47846  0.06426  1.0000
  C   C15       1.0  0.28211  0.55506  0.64746  1.0000
  C   C16       1.0  0.71788  0.44494  0.14745  1.0000
  C   C17       1.0  0.13568  0.63068  0.62131  1.0000
  C   C18       1.0  0.86432  0.36932  0.12130  1.0000
  C   C19       1.0  0.06648  0.70068  0.70665  1.0000
  C   C20       1.0  0.93352  0.29931  0.20663  1.0000
  C   C21       1.0  0.98138  0.58899  0.77334  1.0000
  C   C22       1.0  0.01865  0.41100  0.27332  1.0000
  C   C23       1.0  0.84828  0.49020  0.72428  1.0000
  C   C24       1.0  0.15172  0.50981  0.22426  1.0000
  C   C25       1.0  0.91383  0.41974  0.63892  1.0000
  C   C26       1.0  0.08616  0.58026  0.13890  1.0000
  C   C27       1.0  0.00002  0.53083  0.57261  1.0000
  C   C28       1.0  0.99998  0.46917  0.07258  1.0000
  C   C29       1.0  0.32306  0.85775  0.42228  1.0000
  C   C30       1.0  0.67691  0.14225  0.92227  1.0000
  C   C31       1.0  0.18248  0.91441  0.38753  1.0000
  C   C32       1.0  0.81749  0.08559  0.88752  1.0000
  C   C33       1.0  0.19502  0.01741  0.30740  1.0000
  C   C34       1.0  0.80497  0.98259  0.80741  1.0000
  C   C35       1.0  0.35181  0.02455  0.25068  1.0000
  C   C36       1.0  0.64818  0.97544  0.75069  1.0000
  C   C37       1.0  0.49405  0.03577  0.31889  1.0000
  C   C38       1.0  0.50594  0.96421  0.81888  1.0000
  C   C39       1.0  0.36721  0.15713  0.18795  1.0000
  C   C40       1.0  0.63282  0.84288  0.68795  1.0000
  C   C41       1.0  0.35290  0.89111  0.18937  1.0000
  C   C42       1.0  0.64712  0.10887  0.68936  1.0000
  C   C43       1.0  0.47923  0.92324  0.39377  1.0000
  C   C44       1.0  0.52076  0.07674  0.89375  1.0000
  N   N1        1.0  0.19252  0.74652  0.55541  1.0000
  N   N2        1.0  0.80746  0.25347  0.05541  1.0000
  Cl  Cl1       1.0  0.88156  0.15053  0.45672  1.0000
  Cl  Cl2       1.0  0.11844  0.84950  0.95672  1.0000
  Cl  Cl3       1.0  0.79421  0.80462  0.26304  1.0000
  Cl  Cl4       1.0  0.20582  0.19539  0.76302  1.0000
  O   O1        1.0  0.04433  0.87876  0.42455  1.0000
  O   O2        1.0  0.95563  0.12126  0.92452  1.0000
  O   O3        1.0  0.60542  0.89324  0.43548  1.0000
  O   O4        1.0  0.39459  0.10675  0.93545  1.0000
