data_image0
_chemical_formula_structural       Cd3H8C14S6N10
_chemical_formula_sum              "Cd3 H8 C14 S6 N10"
_cell_length_a       6.75023
_cell_length_b       9.24692
_cell_length_c       10.7849
_cell_angle_alpha    108.538
_cell_angle_beta     91.2583
_cell_angle_gamma    104.043

_space_group_name_H-M_alt    "P 1"
_space_group_IT_number       1

loop_
  _space_group_symop_operation_xyz
  'x, y, z'

loop_
  _atom_site_type_symbol
  _atom_site_label
  _atom_site_symmetry_multiplicity
  _atom_site_fract_x
  _atom_site_fract_y
  _atom_site_fract_z
  _atom_site_occupancy
  Cd  Cd1       1.0  1.00000  0.50000  0.50000  1.0000
  Cd  Cd2       1.0  0.00000  1.00000  1.00000  1.0000
  Cd  Cd3       1.0  0.50001  0.50000  1.00000  1.0000
  H   H1        1.0  0.21071  0.52553  0.77858  1.0000
  H   H2        1.0  0.78931  0.47448  0.22142  1.0000
  H   H3        1.0  0.46031  0.15160  0.76084  1.0000
  H   H4        1.0  0.53969  0.84840  0.23916  1.0000
  H   H5        1.0  0.30907  0.01368  0.52398  1.0000
  H   H6        1.0  0.69092  0.98632  0.47603  1.0000
  H   H7        1.0  0.11684  0.15943  0.42131  1.0000
  H   H8        1.0  0.88316  0.84057  0.57869  1.0000
  C   C1        1.0  0.25774  0.83506  0.74969  1.0000
  C   C2        1.0  0.74226  0.16493  0.25030  1.0000
  C   C3        1.0  0.23975  0.36320  0.22593  1.0000
  C   C4        1.0  0.76024  0.63679  0.77406  1.0000
  C   C5        1.0  0.19377  0.73637  0.10034  1.0000
  C   C6        1.0  0.80624  0.26363  0.89967  1.0000
  C   C7        1.0  0.23538  0.41217  0.72057  1.0000
  C   C8        1.0  0.76463  0.58783  0.27943  1.0000
  C   C9        1.0  0.37138  0.20444  0.71067  1.0000
  C   C10       1.0  0.62862  0.79556  0.28934  1.0000
  C   C11       1.0  0.28919  0.12910  0.57986  1.0000
  C   C12       1.0  0.71081  0.87090  0.42014  1.0000
  C   C13       1.0  0.18201  0.20792  0.52413  1.0000
  C   C14       1.0  0.81799  0.79208  0.47588  1.0000
  S   S1        1.0  0.33464  0.75241  0.60845  1.0000
  S   S2        1.0  0.66536  0.24758  0.39155  1.0000
  S   S3        1.0  0.33516  0.26128  0.09955  1.0000
  S   S4        1.0  0.66484  0.73872  0.90044  1.0000
  S   S5        1.0  0.13051  0.89399  0.18898  1.0000
  S   S6        1.0  0.86950  0.10601  0.81102  1.0000
  N   N1        1.0  0.20551  0.89683  0.85277  1.0000
  N   N2        1.0  0.79448  0.10316  0.14721  1.0000
  N   N3        1.0  0.17515  0.43675  0.31903  1.0000
  N   N4        1.0  0.82483  0.56324  0.68097  1.0000
  N   N5        1.0  0.24142  0.62149  0.03842  1.0000
  N   N6        1.0  0.75859  0.37853  0.96159  1.0000
  N   N7        1.0  0.15482  0.34887  0.59481  1.0000
  N   N8        1.0  0.84518  0.65113  0.40519  1.0000
  N   N9        1.0  0.34530  0.34632  0.78040  1.0000
  N   N10       1.0  0.65471  0.65368  0.21961  1.0000
