data_image0
_chemical_formula_structural       Cd2H16C20Se4N12
_chemical_formula_sum              "Cd2 H16 C20 Se4 N12"
_cell_length_a       5.7596
_cell_length_b       8.6618
_cell_length_c       14.2811
_cell_angle_alpha    77.5084
_cell_angle_beta     90.0018
_cell_angle_gamma    89.9965

_space_group_name_H-M_alt    "P 1"
_space_group_IT_number       1

loop_
  _space_group_symop_operation_xyz
  'x, y, z'

loop_
  _atom_site_type_symbol
  _atom_site_label
  _atom_site_symmetry_multiplicity
  _atom_site_fract_x
  _atom_site_fract_y
  _atom_site_fract_z
  _atom_site_occupancy
  Cd  Cd1       1.0  0.50000  1.00000  0.50000  1.0000
  Cd  Cd2       1.0  1.00000  1.00000  1.00000  1.0000
  H   H1        1.0  0.04864  0.17641  0.37677  1.0000
  H   H2        1.0  0.54868  0.82361  0.12322  1.0000
  H   H3        1.0  0.95136  0.82361  0.62322  1.0000
  H   H4        1.0  0.45133  0.17640  0.87678  1.0000
  H   H5        1.0  0.12227  0.66309  0.30797  1.0000
  H   H6        1.0  0.62241  0.33692  0.19202  1.0000
  H   H7        1.0  0.87773  0.33692  0.69204  1.0000
  H   H8        1.0  0.37758  0.66308  0.80798  1.0000
  H   H9        1.0  0.53247  0.63746  0.37200  1.0000
  H   H10       1.0  0.03260  0.36254  0.12799  1.0000
  H   H11       1.0  0.46754  0.36253  0.62801  1.0000
  H   H12       1.0  0.96739  0.63746  0.87201  1.0000
  H   H13       1.0  0.67735  0.36006  0.44352  1.0000
  H   H14       1.0  0.17741  0.63994  0.05647  1.0000
  H   H15       1.0  0.32266  0.63992  0.55647  1.0000
  H   H16       1.0  0.82259  0.36006  0.94353  1.0000
  C   C1        1.0  0.99468  0.10057  0.59746  1.0000
  C   C2        1.0  0.49467  0.89939  0.90254  1.0000
  C   C3        1.0  0.00533  0.89942  0.40254  1.0000
  C   C4        1.0  0.50530  0.10059  0.09747  1.0000
  C   C5        1.0  0.15606  0.27985  0.37670  1.0000
  C   C6        1.0  0.65612  0.72016  0.12329  1.0000
  C   C7        1.0  0.84393  0.72016  0.62329  1.0000
  C   C8        1.0  0.34388  0.27984  0.87671  1.0000
  C   C9        1.0  0.19770  0.54763  0.33891  1.0000
  C   C10       1.0  0.69782  0.45238  0.16108  1.0000
  C   C11       1.0  0.80231  0.45237  0.66109  1.0000
  C   C12       1.0  0.30218  0.54762  0.83892  1.0000
  C   C13       1.0  0.42360  0.53381  0.37438  1.0000
  C   C14       1.0  0.92370  0.46620  0.12560  1.0000
  C   C15       1.0  0.57640  0.46620  0.62562  1.0000
  C   C16       1.0  0.07629  0.53379  0.87440  1.0000
  C   C17       1.0  0.50430  0.38230  0.41284  1.0000
  C   C18       1.0  0.00438  0.61771  0.08716  1.0000
  C   C19       1.0  0.49571  0.61770  0.58715  1.0000
  C   C20       1.0  0.99562  0.38229  0.91284  1.0000
  Se  Se1       1.0  0.25812  0.06076  0.66630  1.0000
  Se  Se2       1.0  0.75810  0.93926  0.83370  1.0000
  Se  Se3       1.0  0.74191  0.93925  0.33370  1.0000
  Se  Se4       1.0  0.24190  0.06076  0.16629  1.0000
  N   N1        1.0  0.82144  0.12421  0.55212  1.0000
  N   N2        1.0  0.32147  0.87573  0.94787  1.0000
  N   N3        1.0  0.17854  0.87577  0.44787  1.0000
  N   N4        1.0  0.67852  0.12424  0.05213  1.0000
  N   N5        1.0  0.37074  0.25420  0.41393  1.0000
  N   N6        1.0  0.87078  0.74581  0.08606  1.0000
  N   N7        1.0  0.62926  0.74579  0.58606  1.0000
  N   N8        1.0  0.12922  0.25419  0.91394  1.0000
  N   N9        1.0  0.06236  0.42106  0.34048  1.0000
  N   N10       1.0  0.56244  0.57897  0.15951  1.0000
  N   N11       1.0  0.93765  0.57896  0.65953  1.0000
  N   N12       1.0  0.43757  0.42104  0.84049  1.0000
