data_image0
_chemical_formula_structural       Bi4H52C68O12
_chemical_formula_sum              "Bi4 H52 C68 O12"
_cell_length_a       9.55822
_cell_length_b       10.2432
_cell_length_c       15.679
_cell_angle_alpha    101.126
_cell_angle_beta     90
_cell_angle_gamma    90

_space_group_name_H-M_alt    "P 1"
_space_group_IT_number       1

loop_
  _space_group_symop_operation_xyz
  'x, y, z'

loop_
  _atom_site_type_symbol
  _atom_site_label
  _atom_site_symmetry_multiplicity
  _atom_site_fract_x
  _atom_site_fract_y
  _atom_site_fract_z
  _atom_site_occupancy
  Bi  Bi1       1.0  0.46940  0.71509  0.78896  1.0000
  Bi  Bi2       1.0  0.96940  0.78491  0.71105  1.0000
  Bi  Bi3       1.0  0.53059  0.28491  0.21104  1.0000
  Bi  Bi4       1.0  0.03060  0.21509  0.28895  1.0000
  H   H1        1.0  0.24592  0.24298  0.74232  1.0000
  H   H2        1.0  0.74592  0.25702  0.75768  1.0000
  H   H3        1.0  0.75407  0.75702  0.25767  1.0000
  H   H4        1.0  0.25408  0.74298  0.24232  1.0000
  H   H5        1.0  0.17529  0.54219  0.76998  1.0000
  H   H6        1.0  0.67529  0.95781  0.73002  1.0000
  H   H7        1.0  0.82471  0.45781  0.23002  1.0000
  H   H8        1.0  0.32472  0.04219  0.26998  1.0000
  H   H9        1.0  0.03245  0.41986  0.86113  1.0000
  H   H10       1.0  0.53245  0.08014  0.63886  1.0000
  H   H11       1.0  0.96755  0.58013  0.13887  1.0000
  H   H12       1.0  0.46756  0.91986  0.36113  1.0000
  H   H13       1.0  0.10921  0.40908  0.01110  1.0000
  H   H14       1.0  0.60921  0.09091  0.48890  1.0000
  H   H15       1.0  0.89079  0.59091  0.98890  1.0000
  H   H16       1.0  0.39079  0.90908  0.51110  1.0000
  H   H17       1.0  0.32737  0.52462  0.07136  1.0000
  H   H18       1.0  0.82738  0.97538  0.42864  1.0000
  H   H19       1.0  0.67263  0.47538  0.92864  1.0000
  H   H20       1.0  0.17263  0.02462  0.57136  1.0000
  H   H21       1.0  0.46955  0.64786  0.98113  1.0000
  H   H22       1.0  0.96956  0.85214  0.51888  1.0000
  H   H23       1.0  0.53045  0.35214  0.01887  1.0000
  H   H24       1.0  0.03045  0.14786  0.48113  1.0000
  H   H25       1.0  0.31524  0.77336  0.61374  1.0000
  H   H26       1.0  0.81524  0.72664  0.88627  1.0000
  H   H27       1.0  0.68475  0.22664  0.38627  1.0000
  H   H28       1.0  0.18476  0.27336  0.11373  1.0000
  H   H29       1.0  0.23352  0.64892  0.47222  1.0000
  H   H30       1.0  0.73352  0.85109  0.02779  1.0000
  H   H31       1.0  0.76648  0.35108  0.52778  1.0000
  H   H32       1.0  0.26648  0.14892  0.97222  1.0000
  H   H33       1.0  0.26223  0.40198  0.43446  1.0000
  H   H34       1.0  0.76224  0.09803  0.06554  1.0000
  H   H35       1.0  0.73776  0.59802  0.56554  1.0000
  H   H36       1.0  0.23777  0.90198  0.93445  1.0000
  H   H37       1.0  0.37393  0.28220  0.53985  1.0000
  H   H38       1.0  0.87393  0.21780  0.96015  1.0000
  H   H39       1.0  0.62607  0.71780  0.46014  1.0000
  H   H40       1.0  0.12607  0.78220  0.03985  1.0000
  H   H41       1.0  0.45691  0.40648  0.68234  1.0000
  H   H42       1.0  0.95691  0.09352  0.81766  1.0000
  H   H43       1.0  0.54309  0.59352  0.31766  1.0000
  H   H44       1.0  0.04310  0.90648  0.18233  1.0000
  H   H45       1.0  0.60869  0.15639  0.89004  1.0000
  H   H46       1.0  0.10869  0.34361  0.60996  1.0000
  H   H47       1.0  0.39131  0.84362  0.10996  1.0000
  H   H48       1.0  0.89131  0.65639  0.39004  1.0000
  H   H49       1.0  0.47801  0.36021  0.82678  1.0000
  H   H50       1.0  0.97801  0.13979  0.67322  1.0000
  H   H51       1.0  0.52198  0.63980  0.17322  1.0000
  H   H52       1.0  0.02199  0.86021  0.32678  1.0000
  C   C1        1.0  0.32575  0.19600  0.77525  1.0000
  C   C2        1.0  0.82575  0.30400  0.72475  1.0000
  C   C3        1.0  0.67424  0.80400  0.22475  1.0000
  C   C4        1.0  0.17425  0.69600  0.27525  1.0000
  C   C5        1.0  0.33253  0.60311  0.86898  1.0000
  C   C6        1.0  0.83253  0.89689  0.63103  1.0000
  C   C7        1.0  0.66747  0.39689  0.13102  1.0000
  C   C8        1.0  0.16747  0.10311  0.36897  1.0000
  C   C9        1.0  0.20860  0.53944  0.83620  1.0000
  C   C10       1.0  0.70859  0.96056  0.66380  1.0000
  C   C11       1.0  0.79140  0.46056  0.16380  1.0000
  C   C12       1.0  0.29141  0.03944  0.33620  1.0000
  C   C13       1.0  0.12832  0.47017  0.88735  1.0000
  C   C14       1.0  0.62833  0.02983  0.61265  1.0000
  C   C15       1.0  0.87168  0.52983  0.11265  1.0000
  C   C16       1.0  0.37168  0.97017  0.38735  1.0000
  C   C17       1.0  0.17158  0.46402  0.97168  1.0000
  C   C18       1.0  0.67158  0.03598  0.52832  1.0000
  C   C19       1.0  0.82842  0.53598  0.02832  1.0000
  C   C20       1.0  0.32842  0.96402  0.47168  1.0000
  C   C21       1.0  0.29380  0.52891  0.00541  1.0000
  C   C22       1.0  0.79381  0.97109  0.49459  1.0000
  C   C23       1.0  0.70619  0.47109  0.99459  1.0000
  C   C24       1.0  0.20620  0.02891  0.50541  1.0000
  C   C25       1.0  0.37355  0.59859  0.95410  1.0000
  C   C26       1.0  0.87355  0.90141  0.54591  1.0000
  C   C27       1.0  0.62645  0.40141  0.04590  1.0000
  C   C28       1.0  0.12646  0.09859  0.45410  1.0000
  C   C29       1.0  0.39060  0.59868  0.65901  1.0000
  C   C30       1.0  0.89060  0.90132  0.84099  1.0000
  C   C31       1.0  0.60939  0.40132  0.34099  1.0000
  C   C32       1.0  0.10940  0.09868  0.15901  1.0000
  C   C33       1.0  0.32811  0.66547  0.59885  1.0000
  C   C34       1.0  0.82812  0.83453  0.90116  1.0000
  C   C35       1.0  0.67188  0.33453  0.40115  1.0000
  C   C36       1.0  0.17189  0.16547  0.09884  1.0000
  C   C37       1.0  0.28107  0.59515  0.51854  1.0000
  C   C38       1.0  0.78108  0.90485  0.98147  1.0000
  C   C39       1.0  0.71892  0.40484  0.48146  1.0000
  C   C40       1.0  0.21893  0.09515  0.01854  1.0000
  C   C41       1.0  0.29693  0.45711  0.49734  1.0000
  C   C42       1.0  0.79693  0.04290  0.00267  1.0000
  C   C43       1.0  0.70307  0.54289  0.50266  1.0000
  C   C44       1.0  0.20307  0.95711  0.99733  1.0000
  C   C45       1.0  0.36034  0.38995  0.55661  1.0000
  C   C46       1.0  0.86034  0.11006  0.94339  1.0000
  C   C47       1.0  0.63966  0.61005  0.44339  1.0000
  C   C48       1.0  0.13966  0.88994  0.05661  1.0000
  C   C49       1.0  0.40671  0.46029  0.63709  1.0000
  C   C50       1.0  0.90672  0.03971  0.86292  1.0000
  C   C51       1.0  0.59328  0.53971  0.36291  1.0000
  C   C52       1.0  0.09329  0.96029  0.13708  1.0000
  C   C53       1.0  0.23176  0.95329  0.75759  1.0000
  C   C54       1.0  0.73176  0.54671  0.74241  1.0000
  C   C55       1.0  0.76824  0.04671  0.24241  1.0000
  C   C56       1.0  0.26824  0.45330  0.25759  1.0000
  C   C57       1.0  0.32767  0.06463  0.78350  1.0000
  C   C58       1.0  0.82766  0.43538  0.71650  1.0000
  C   C59       1.0  0.67233  0.93538  0.21649  1.0000
  C   C60       1.0  0.17234  0.56463  0.28350  1.0000
  C   C61       1.0  0.51384  0.15946  0.85240  1.0000
  C   C62       1.0  0.01384  0.34054  0.64761  1.0000
  C   C63       1.0  0.48615  0.84055  0.14760  1.0000
  C   C64       1.0  0.98616  0.65946  0.35240  1.0000
  C   C65       1.0  0.44589  0.25712  0.81978  1.0000
  C   C66       1.0  0.94589  0.24288  0.68023  1.0000
  C   C67       1.0  0.55411  0.74288  0.18022  1.0000
  C   C68       1.0  0.05411  0.75712  0.31978  1.0000
  O   O1        1.0  0.25449  0.84243  0.78090  1.0000
  O   O2        1.0  0.75449  0.65757  0.71910  1.0000
  O   O3        1.0  0.74551  0.15757  0.21909  1.0000
  O   O4        1.0  0.24551  0.34243  0.28090  1.0000
  O   O5        1.0  0.12316  0.97250  0.71331  1.0000
  O   O6        1.0  0.62316  0.52749  0.78669  1.0000
  O   O7        1.0  0.87684  0.02749  0.28668  1.0000
  O   O8        1.0  0.37684  0.47250  0.21331  1.0000
  O   O9        1.0  0.44362  0.04169  0.83126  1.0000
  O   O10       1.0  0.94362  0.45831  0.66874  1.0000
  O   O11       1.0  0.55638  0.95831  0.16874  1.0000
  O   O12       1.0  0.05639  0.54170  0.33126  1.0000
