data_image0
_chemical_formula_structural       K2B2H2C8N6O4
_chemical_formula_sum              "K2 B2 H2 C8 N6 O4"
_cell_length_a       6.24256
_cell_length_b       7.11048
_cell_length_c       9.27726
_cell_angle_alpha    110.717
_cell_angle_beta     107.675
_cell_angle_gamma    94.9862

_space_group_name_H-M_alt    "P 1"
_space_group_IT_number       1

loop_
  _space_group_symop_operation_xyz
  'x, y, z'

loop_
  _atom_site_type_symbol
  _atom_site_label
  _atom_site_symmetry_multiplicity
  _atom_site_fract_x
  _atom_site_fract_y
  _atom_site_fract_z
  _atom_site_occupancy
  K   K1        1.0  0.48151  0.44036  0.82477  1.0000
  K   K2        1.0  0.15684  0.61570  0.17525  1.0000
  B   B1        1.0  0.66724  0.17471  0.27891  1.0000
  B   B2        1.0  0.88845  0.89582  0.72118  1.0000
  H   H1        1.0  0.26705  0.05373  0.42890  1.0000
  H   H2        1.0  0.33813  0.62468  0.57091  1.0000
  C   C1        1.0  0.50516  0.24055  0.14674  1.0000
  C   C2        1.0  0.85835  0.09382  0.85308  1.0000
  C   C3        1.0  0.71223  0.95557  0.19028  1.0000
  C   C4        1.0  0.02240  0.76565  0.81015  1.0000
  C   C5        1.0  0.90353  0.33930  0.37146  1.0000
  C   C6        1.0  0.03212  0.96781  0.62862  1.0000
  C   C7        1.0  0.54357  0.17325  0.41223  1.0000
  C   C8        1.0  0.63149  0.76069  0.58770  1.0000
  N   N1        1.0  0.38759  0.29697  0.05361  1.0000
  N   N2        1.0  0.83382  0.24334  0.94608  1.0000
  N   N3        1.0  0.74598  0.79403  0.12474  1.0000
  N   N4        1.0  0.12181  0.66962  0.87569  1.0000
  N   N5        1.0  0.07588  0.46228  0.43890  1.0000
  N   N6        1.0  0.13673  0.02326  0.56100  1.0000
  O   O1        1.0  0.33335  0.04697  0.34063  1.0000
  O   O2        1.0  0.49273  0.70638  0.65929  1.0000
  O   O3        1.0  0.62785  0.27857  0.56147  1.0000
  O   O4        1.0  0.56671  0.71636  0.43841  1.0000
