data_image0
_chemical_formula_structural       Cu2H32C40N16
_chemical_formula_sum              "Cu2 H32 C40 N16"
_cell_length_a       3.87788
_cell_length_b       15.3219
_cell_length_c       15.3193
_cell_angle_alpha    89.1116
_cell_angle_beta     82.742
_cell_angle_gamma    82.7402

_space_group_name_H-M_alt    "P 1"
_space_group_IT_number       1

loop_
  _space_group_symop_operation_xyz
  'x, y, z'

loop_
  _atom_site_type_symbol
  _atom_site_label
  _atom_site_symmetry_multiplicity
  _atom_site_fract_x
  _atom_site_fract_y
  _atom_site_fract_z
  _atom_site_occupancy
  Cu  Cu1       1.0  0.12522  0.25002  0.75007  1.0000
  Cu  Cu2       1.0  0.87481  0.74998  0.24993  1.0000
  H   H1        1.0  0.69120  0.55259  0.14519  1.0000
  H   H2        1.0  0.74482  0.14529  0.94747  1.0000
  H   H3        1.0  0.38809  0.94757  0.35475  1.0000
  H   H4        1.0  0.83624  0.35480  0.55254  1.0000
  H   H5        1.0  0.30880  0.44741  0.85480  1.0000
  H   H6        1.0  0.25519  0.85470  0.05253  1.0000
  H   H7        1.0  0.61190  0.05244  0.64525  1.0000
  H   H8        1.0  0.16377  0.64519  0.44747  1.0000
  H   H9        1.0  0.02993  0.56870  0.78079  1.0000
  H   H10       1.0  0.09786  0.78078  0.93115  1.0000
  H   H11       1.0  0.38009  0.93112  0.71921  1.0000
  H   H12       1.0  0.80944  0.71934  0.56878  1.0000
  H   H13       1.0  0.97006  0.43130  0.21921  1.0000
  H   H14       1.0  0.90215  0.21922  0.06885  1.0000
  H   H15       1.0  0.61988  0.06888  0.28079  1.0000
  H   H16       1.0  0.19057  0.28066  0.43122  1.0000
  H   H17       1.0  0.90264  0.66646  0.84537  1.0000
  H   H18       1.0  0.06844  0.84522  0.83334  1.0000
  H   H19       1.0  0.41564  0.83337  0.65457  1.0000
  H   H20       1.0  0.74699  0.65492  0.66664  1.0000
  H   H21       1.0  0.09735  0.33353  0.15463  1.0000
  H   H22       1.0  0.93157  0.15478  0.16666  1.0000
  H   H23       1.0  0.58434  0.16664  0.34542  1.0000
  H   H24       1.0  0.25302  0.34508  0.33337  1.0000
  H   H25       1.0  0.58652  0.59803  0.82739  1.0000
  H   H26       1.0  0.68395  0.82745  0.90183  1.0000
  H   H27       1.0  0.01292  0.90166  0.67253  1.0000
  H   H28       1.0  0.41336  0.67239  0.59805  1.0000
  H   H29       1.0  0.41347  0.40197  0.17261  1.0000
  H   H30       1.0  0.31606  0.17255  0.09817  1.0000
  H   H31       1.0  0.98705  0.09834  0.32747  1.0000
  H   H32       1.0  0.58665  0.32760  0.40195  1.0000
  C   C1        1.0  0.75329  0.57626  0.00494  1.0000
  C   C2        1.0  0.82955  0.00502  0.92368  1.0000
  C   C3        1.0  0.33453  0.92373  0.49501  1.0000
  C   C4        1.0  0.75847  0.49509  0.57632  1.0000
  C   C5        1.0  0.24672  0.42373  0.99506  1.0000
  C   C6        1.0  0.17045  0.99498  0.07632  1.0000
  C   C7        1.0  0.66545  0.07628  0.50499  1.0000
  C   C8        1.0  0.24154  0.50491  0.42368  1.0000
  C   C9        1.0  0.82907  0.52778  0.08229  1.0000
  C   C10       1.0  0.85714  0.08234  0.97231  1.0000
  C   C11       1.0  0.43831  0.97237  0.41768  1.0000
  C   C12       1.0  0.91096  0.41770  0.52767  1.0000
  C   C13       1.0  0.17094  0.47222  0.91771  1.0000
  C   C14       1.0  0.14288  0.91765  0.02769  1.0000
  C   C15       1.0  0.56167  0.02763  0.58232  1.0000
  C   C16       1.0  0.08905  0.58230  0.47234  1.0000
  C   C17       1.0  0.93337  0.54675  0.92019  1.0000
  C   C18       1.0  0.97975  0.92019  0.95314  1.0000
  C   C19       1.0  0.40088  0.95313  0.57982  1.0000
  C   C20       1.0  0.85378  0.57988  0.54687  1.0000
  C   C21       1.0  0.06661  0.45325  0.07981  1.0000
  C   C22       1.0  0.02026  0.07981  0.04686  1.0000
  C   C23       1.0  0.59909  0.04687  0.42019  1.0000
  C   C24       1.0  0.14623  0.42012  0.45314  1.0000
  C   C25       1.0  0.86099  0.59734  0.83874  1.0000
  C   C26       1.0  0.95779  0.83873  0.90249  1.0000
  C   C27       1.0  0.29796  0.90245  0.66123  1.0000
  C   C28       1.0  0.69913  0.66133  0.59746  1.0000
  C   C29       1.0  0.13900  0.40266  0.16126  1.0000
  C   C30       1.0  0.04223  0.16127  0.09751  1.0000
  C   C31       1.0  0.70202  0.09756  0.33877  1.0000
  C   C32       1.0  0.30088  0.33867  0.40254  1.0000
  C   C33       1.0  0.34470  0.68098  0.08003  1.0000
  C   C34       1.0  0.52611  0.08021  0.81893  1.0000
  C   C35       1.0  0.10617  0.81901  0.41979  1.0000
  C   C36       1.0  0.42556  0.41991  0.68101  1.0000
  C   C37       1.0  0.65533  0.31902  0.91997  1.0000
  C   C38       1.0  0.47389  0.91978  0.18107  1.0000
  C   C39       1.0  0.89382  0.18100  0.58021  1.0000
  C   C40       1.0  0.57444  0.58009  0.31898  1.0000
  N   N1        1.0  0.17521  0.71891  0.14059  1.0000
  N   N2        1.0  0.39284  0.14061  0.78116  1.0000
  N   N3        1.0  0.03553  0.78101  0.35920  1.0000
  N   N4        1.0  0.31502  0.35938  0.71856  1.0000
  N   N5        1.0  0.82480  0.28109  0.85941  1.0000
  N   N6        1.0  0.60717  0.85938  0.21884  1.0000
  N   N7        1.0  0.96448  0.21899  0.64080  1.0000
  N   N8        1.0  0.68499  0.64062  0.28144  1.0000
  N   N9        1.0  0.51853  0.64921  0.00748  1.0000
  N   N10       1.0  0.66834  0.00767  0.85065  1.0000
  N   N11       1.0  0.17578  0.85075  0.49237  1.0000
  N   N12       1.0  0.52729  0.49248  0.64941  1.0000
  N   N13       1.0  0.48147  0.35079  0.99251  1.0000
  N   N14       1.0  0.33167  0.99233  0.14935  1.0000
  N   N15       1.0  0.82422  0.14926  0.50763  1.0000
  N   N16       1.0  0.47272  0.50752  0.35059  1.0000
