data_image0
_chemical_formula_structural       Zn4H36C48N4O12
_chemical_formula_sum              "Zn4 H36 C48 N4 O12"
_cell_length_a       5.11028
_cell_length_b       9.31247
_cell_length_c       21.302
_cell_angle_alpha    90
_cell_angle_beta     90
_cell_angle_gamma    90

_space_group_name_H-M_alt    "P 1"
_space_group_IT_number       1

loop_
  _space_group_symop_operation_xyz
  'x, y, z'

loop_
  _atom_site_type_symbol
  _atom_site_label
  _atom_site_symmetry_multiplicity
  _atom_site_fract_x
  _atom_site_fract_y
  _atom_site_fract_z
  _atom_site_occupancy
  Zn  Zn1       1.0  0.76287  0.15338  0.47558  1.0000
  Zn  Zn2       1.0  0.73714  0.84662  0.97558  1.0000
  Zn  Zn3       1.0  0.23714  0.65337  0.02442  1.0000
  Zn  Zn4       1.0  0.26287  0.34662  0.52442  1.0000
  H   H1        1.0  0.74332  0.33344  0.56095  1.0000
  H   H2        1.0  0.75670  0.66656  0.06095  1.0000
  H   H3        1.0  0.25670  0.83343  0.93905  1.0000
  H   H4        1.0  0.24332  0.16657  0.43905  1.0000
  H   H5        1.0  0.08336  0.92650  0.08507  1.0000
  H   H6        1.0  0.41666  0.07350  0.58507  1.0000
  H   H7        1.0  0.91666  0.42650  0.41492  1.0000
  H   H8        1.0  0.58336  0.57349  0.91493  1.0000
  H   H9        1.0  0.76400  0.32330  0.15791  1.0000
  H   H10       1.0  0.73600  0.67670  0.65791  1.0000
  H   H11       1.0  0.23596  0.82331  0.34209  1.0000
  H   H12       1.0  0.26401  0.17670  0.84209  1.0000
  H   H13       1.0  0.44798  0.32068  0.07047  1.0000
  H   H14       1.0  0.05202  0.67932  0.57047  1.0000
  H   H15       1.0  0.55199  0.82069  0.42952  1.0000
  H   H16       1.0  0.94799  0.17932  0.92952  1.0000
  H   H17       1.0  0.46678  0.11769  0.99159  1.0000
  H   H18       1.0  0.03323  0.88230  0.49159  1.0000
  H   H19       1.0  0.53323  0.61770  0.50840  1.0000
  H   H20       1.0  0.96677  0.38231  0.00841  1.0000
  H   H21       1.0  0.38138  0.94720  0.15008  1.0000
  H   H22       1.0  0.11863  0.05280  0.65007  1.0000
  H   H23       1.0  0.61860  0.44721  0.34993  1.0000
  H   H24       1.0  0.88139  0.55279  0.84993  1.0000
  H   H25       1.0  0.65003  0.93102  0.24591  1.0000
  H   H26       1.0  0.84998  0.06898  0.74590  1.0000
  H   H27       1.0  0.34994  0.43101  0.25410  1.0000
  H   H28       1.0  0.15005  0.56898  0.75410  1.0000
  H   H29       1.0  0.17426  0.25012  0.33543  1.0000
  H   H30       1.0  0.32574  0.74988  0.83543  1.0000
  H   H31       1.0  0.82569  0.75012  0.16457  1.0000
  H   H32       1.0  0.67430  0.24989  0.66457  1.0000
  H   H33       1.0  0.89903  0.26724  0.24165  1.0000
  H   H34       1.0  0.60097  0.73277  0.74165  1.0000
  H   H35       1.0  0.10094  0.76724  0.25835  1.0000
  H   H36       1.0  0.39904  0.23276  0.75834  1.0000
  C   C1        1.0  0.94804  0.01694  0.08420  1.0000
  C   C2        1.0  0.55197  0.98305  0.58420  1.0000
  C   C3        1.0  0.05196  0.51694  0.41579  1.0000
  C   C4        1.0  0.44804  0.48305  0.91580  1.0000
  C   C5        1.0  0.94821  0.12204  0.13154  1.0000
  C   C6        1.0  0.55178  0.87796  0.63154  1.0000
  C   C7        1.0  0.05176  0.62204  0.36846  1.0000
  C   C8        1.0  0.44822  0.37795  0.86846  1.0000
  C   C9        1.0  0.76860  0.23530  0.12436  1.0000
  C   C10       1.0  0.73140  0.76470  0.62436  1.0000
  C   C11       1.0  0.23137  0.73531  0.37564  1.0000
  C   C12       1.0  0.26861  0.26470  0.87564  1.0000
  C   C13       1.0  0.59370  0.23591  0.07435  1.0000
  C   C14       1.0  0.90630  0.76409  0.57435  1.0000
  C   C15       1.0  0.40629  0.73591  0.42564  1.0000
  C   C16       1.0  0.09371  0.26408  0.92564  1.0000
  C   C17       1.0  0.60299  0.12501  0.03081  1.0000
  C   C18       1.0  0.89703  0.87498  0.53082  1.0000
  C   C19       1.0  0.39702  0.62502  0.46918  1.0000
  C   C20       1.0  0.10299  0.37498  0.96918  1.0000
  C   C21       1.0  0.11826  0.11040  0.18752  1.0000
  C   C22       1.0  0.38173  0.88961  0.68752  1.0000
  C   C23       1.0  0.88170  0.61040  0.31248  1.0000
  C   C24       1.0  0.61828  0.38960  0.81248  1.0000
  C   C25       1.0  0.33131  0.01453  0.19023  1.0000
  C   C26       1.0  0.16869  0.98547  0.69023  1.0000
  C   C27       1.0  0.66868  0.51453  0.30977  1.0000
  C   C28       1.0  0.83132  0.48547  0.80977  1.0000
  C   C29       1.0  0.48489  0.00458  0.24405  1.0000
  C   C30       1.0  0.01510  0.99543  0.74405  1.0000
  C   C31       1.0  0.51507  0.50458  0.25595  1.0000
  C   C32       1.0  0.98492  0.49543  0.75595  1.0000
  C   C33       1.0  0.43255  0.08962  0.29683  1.0000
  C   C34       1.0  0.06745  0.91038  0.79683  1.0000
  C   C35       1.0  0.56742  0.58961  0.20317  1.0000
  C   C36       1.0  0.93257  0.41039  0.70317  1.0000
  C   C37       1.0  0.21942  0.18414  0.29461  1.0000
  C   C38       1.0  0.28057  0.81586  0.79461  1.0000
  C   C39       1.0  0.78054  0.68414  0.20539  1.0000
  C   C40       1.0  0.71945  0.31586  0.70539  1.0000
  C   C41       1.0  0.06497  0.19393  0.24109  1.0000
  C   C42       1.0  0.43504  0.80607  0.74109  1.0000
  C   C43       1.0  0.93500  0.69393  0.25891  1.0000
  C   C44       1.0  0.56500  0.30606  0.75891  1.0000
  C   C45       1.0  0.60145  0.07678  0.35422  1.0000
  C   C46       1.0  0.89855  0.92322  0.85422  1.0000
  C   C47       1.0  0.39854  0.57676  0.14578  1.0000
  C   C48       1.0  0.10147  0.42324  0.64578  1.0000
  N   N1        1.0  0.78094  0.01853  0.03537  1.0000
  N   N2        1.0  0.71908  0.98146  0.53537  1.0000
  N   N3        1.0  0.21907  0.51853  0.46462  1.0000
  N   N4        1.0  0.28094  0.48146  0.96463  1.0000
  O   O1        1.0  0.64110  0.32513  0.52213  1.0000
  O   O2        1.0  0.85891  0.67486  0.02213  1.0000
  O   O3        1.0  0.35891  0.82513  0.97787  1.0000
  O   O4        1.0  0.14110  0.17487  0.47787  1.0000
  O   O5        1.0  0.55937  0.17513  0.39728  1.0000
  O   O6        1.0  0.94064  0.82488  0.89727  1.0000
  O   O7        1.0  0.44062  0.67511  0.10273  1.0000
  O   O8        1.0  0.05938  0.32489  0.60272  1.0000
  O   O9        1.0  0.76574  0.97885  0.35986  1.0000
  O   O10       1.0  0.73423  0.02115  0.85986  1.0000
  O   O11       1.0  0.23423  0.47883  0.14014  1.0000
  O   O12       1.0  0.26577  0.52117  0.64014  1.0000
