data_image0
_chemical_formula_structural       Li2B2H32C20N16O4F4
_chemical_formula_sum              "Li2 B2 H32 C20 N16 O4 F4"
_cell_length_a       8.08826
_cell_length_b       9.15777
_cell_length_c       11.0282
_cell_angle_alpha    107.147
_cell_angle_beta     100.952
_cell_angle_gamma    98.0637

_space_group_name_H-M_alt    "P 1"
_space_group_IT_number       1

loop_
  _space_group_symop_operation_xyz
  'x, y, z'

loop_
  _atom_site_type_symbol
  _atom_site_label
  _atom_site_symmetry_multiplicity
  _atom_site_fract_x
  _atom_site_fract_y
  _atom_site_fract_z
  _atom_site_occupancy
  Li  Li1       1.0  0.02778  0.65916  0.78968  1.0000
  Li  Li2       1.0  0.97222  0.34084  0.21032  1.0000
  B   B1        1.0  0.23619  0.11336  0.55545  1.0000
  B   B2        1.0  0.76381  0.88664  0.44455  1.0000
  H   H1        1.0  0.98564  0.63386  0.07353  1.0000
  H   H2        1.0  0.01436  0.36614  0.92647  1.0000
  H   H3        1.0  0.07135  0.83711  0.10973  1.0000
  H   H4        1.0  0.92865  0.16289  0.89027  1.0000
  H   H5        1.0  0.33315  0.82918  0.24438  1.0000
  H   H6        1.0  0.66685  0.17082  0.75562  1.0000
  H   H7        1.0  0.21651  0.65802  0.25607  1.0000
  H   H8        1.0  0.78350  0.34198  0.74393  1.0000
  H   H9        1.0  0.49779  0.64361  0.15419  1.0000
  H   H10       1.0  0.50221  0.35639  0.84581  1.0000
  H   H11       1.0  0.30955  0.49143  0.07590  1.0000
  H   H12       1.0  0.69045  0.50857  0.92410  1.0000
  H   H13       1.0  0.41349  0.78400  0.00244  1.0000
  H   H14       1.0  0.58651  0.21600  0.99756  1.0000
  H   H15       1.0  0.34526  0.58479  0.89488  1.0000
  H   H16       1.0  0.65474  0.41521  0.10512  1.0000
  H   H17       1.0  0.60620  0.47695  0.64069  1.0000
  H   H18       1.0  0.39380  0.52305  0.35931  1.0000
  H   H19       1.0  0.69623  0.61270  0.57126  1.0000
  H   H20       1.0  0.30377  0.38730  0.42874  1.0000
  H   H21       1.0  0.43596  0.70707  0.59140  1.0000
  H   H22       1.0  0.56404  0.29293  0.40860  1.0000
  H   H23       1.0  0.41742  0.63715  0.72300  1.0000
  H   H24       1.0  0.58258  0.36285  0.27700  1.0000
  H   H25       1.0  0.53406  0.91599  0.84143  1.0000
  H   H26       1.0  0.46594  0.08401  0.15857  1.0000
  H   H27       1.0  0.66786  0.92707  0.73189  1.0000
  H   H28       1.0  0.33213  0.07293  0.26810  1.0000
  H   H29       1.0  0.87154  0.89168  0.90809  1.0000
  H   H30       1.0  0.12846  0.10832  0.09191  1.0000
  H   H31       1.0  0.70832  0.76685  0.94088  1.0000
  H   H32       1.0  0.29168  0.23315  0.05912  1.0000
  C   C1        1.0  0.12472  0.87254  0.62891  1.0000
  C   C2        1.0  0.87528  0.12745  0.37108  1.0000
  C   C3        1.0  0.03226  0.75721  0.50270  1.0000
  C   C4        1.0  0.96774  0.24279  0.49730  1.0000
  C   C5        1.0  0.10224  0.72020  0.08623  1.0000
  C   C6        1.0  0.89776  0.27980  0.91377  1.0000
  C   C7        1.0  0.25622  0.71205  0.18713  1.0000
  C   C8        1.0  0.74379  0.28795  0.81287  1.0000
  C   C9        1.0  0.36124  0.61747  0.10367  1.0000
  C   C10       1.0  0.63876  0.38252  0.89632  1.0000
  C   C11       1.0  0.33085  0.66933  0.98422  1.0000
  C   C12       1.0  0.66915  0.33067  0.01578  1.0000
  C   C13       1.0  0.64795  0.60167  0.65555  1.0000
  C   C14       1.0  0.35205  0.39833  0.34445  1.0000
  C   C15       1.0  0.50890  0.69533  0.68137  1.0000
  C   C16       1.0  0.49110  0.30467  0.31863  1.0000
  C   C17       1.0  0.61149  0.85228  0.78158  1.0000
  C   C18       1.0  0.38851  0.14772  0.21842  1.0000
  C   C19       1.0  0.75192  0.80231  0.86307  1.0000
  C   C20       1.0  0.24808  0.19769  0.13693  1.0000
  N   N1        1.0  0.20984  0.01961  0.65204  1.0000
  N   N2        1.0  0.79016  0.98039  0.34796  1.0000
  N   N3        1.0  0.27424  0.08458  0.78299  1.0000
  N   N4        1.0  0.72577  0.91542  0.21701  1.0000
  N   N5        1.0  0.23072  0.98019  0.83611  1.0000
  N   N6        1.0  0.76928  0.01981  0.16389  1.0000
  N   N7        1.0  0.13756  0.84578  0.74251  1.0000
  N   N8        1.0  0.86244  0.15422  0.25749  1.0000
  N   N9        1.0  0.08167  0.62601  0.44752  1.0000
  N   N10       1.0  0.91833  0.37399  0.55248  1.0000
  N   N11       1.0  0.95748  0.55069  0.33641  1.0000
  N   N12       1.0  0.04252  0.44931  0.66359  1.0000
  N   N13       1.0  0.83660  0.62953  0.32267  1.0000
  N   N14       1.0  0.16340  0.37047  0.67733  1.0000
  N   N15       1.0  0.88050  0.76088  0.42702  1.0000
  N   N16       1.0  0.11950  0.23912  0.57298  1.0000
  O   O1        1.0  0.15131  0.68266  0.96170  1.0000
  O   O2        1.0  0.84869  0.31734  0.03830  1.0000
  O   O3        1.0  0.79072  0.66828  0.77207  1.0000
  O   O4        1.0  0.20928  0.33172  0.22793  1.0000
  F   F1        1.0  0.17601  0.00870  0.42788  1.0000
  F   F2        1.0  0.82399  0.99130  0.57212  1.0000
  F   F3        1.0  0.40636  0.18833  0.58518  1.0000
  F   F4        1.0  0.59364  0.81167  0.41482  1.0000
