data_image0
_chemical_formula_structural       Co2H26C40N6O8
_chemical_formula_sum              "Co2 H26 C40 N6 O8"
_cell_length_a       7.89515
_cell_length_b       8.01624
_cell_length_c       12.7526
_cell_angle_alpha    85.6257
_cell_angle_beta     74.3915
_cell_angle_gamma    79.953

_space_group_name_H-M_alt    "P 1"
_space_group_IT_number       1

loop_
  _space_group_symop_operation_xyz
  'x, y, z'

loop_
  _atom_site_type_symbol
  _atom_site_label
  _atom_site_symmetry_multiplicity
  _atom_site_fract_x
  _atom_site_fract_y
  _atom_site_fract_z
  _atom_site_occupancy
  Co  Co1       1.0  0.64991  0.49126  0.81012  1.0000
  Co  Co2       1.0  0.35011  0.50872  0.18988  1.0000
  H   H1        1.0  0.56070  0.68593  0.96193  1.0000
  H   H2        1.0  0.43938  0.31402  0.03804  1.0000
  H   H3        1.0  0.70743  0.52976  0.98923  1.0000
  H   H4        1.0  0.29257  0.47017  0.01074  1.0000
  H   H5        1.0  0.14756  0.05659  0.84606  1.0000
  H   H6        1.0  0.85249  0.94341  0.15392  1.0000
  H   H7        1.0  0.04406  0.54336  0.89610  1.0000
  H   H8        1.0  0.95594  0.45667  0.10388  1.0000
  H   H9        1.0  0.60689  0.95830  0.92735  1.0000
  H   H10       1.0  0.39311  0.04167  0.07269  1.0000
  H   H11       1.0  0.46434  0.18667  0.81458  1.0000
  H   H12       1.0  0.53575  0.81323  0.18541  1.0000
  H   H13       1.0  0.42742  0.02264  0.67036  1.0000
  H   H14       1.0  0.57258  0.97734  0.32963  1.0000
  H   H15       1.0  0.55424  0.10702  0.47095  1.0000
  H   H16       1.0  0.44568  0.89302  0.52904  1.0000
  H   H17       1.0  0.72615  0.31527  0.33622  1.0000
  H   H18       1.0  0.27379  0.68478  0.66379  1.0000
  H   H19       1.0  0.86893  0.57267  0.30891  1.0000
  H   H20       1.0  0.13104  0.42736  0.69108  1.0000
  H   H21       1.0  0.94059  0.82405  0.39220  1.0000
  H   H22       1.0  0.05932  0.17600  0.60781  1.0000
  H   H23       1.0  0.91384  0.97109  0.56743  1.0000
  H   H24       1.0  0.08607  0.02895  0.43258  1.0000
  H   H25       1.0  0.78006  0.84518  0.74398  1.0000
  H   H26       1.0  0.21987  0.15484  0.25602  1.0000
  C   C1        1.0  0.87028  0.02855  0.88724  1.0000
  C   C2        1.0  0.12974  0.97145  0.11278  1.0000
  C   C3        1.0  0.05271  0.96818  0.86687  1.0000
  C   C4        1.0  0.94732  0.03183  0.13314  1.0000
  C   C5        1.0  0.11551  0.79469  0.87407  1.0000
  C   C6        1.0  0.88452  0.20533  0.12592  1.0000
  C   C7        1.0  0.99486  0.67925  0.89650  1.0000
  C   C8        1.0  0.00517  0.32078  0.10347  1.0000
  C   C9        1.0  0.81181  0.73857  0.91553  1.0000
  C   C10       1.0  0.18822  0.26142  0.08445  1.0000
  C   C11       1.0  0.74913  0.91355  0.91447  1.0000
  C   C12       1.0  0.25089  0.08644  0.08553  1.0000
  C   C13       1.0  0.31484  0.73904  0.85396  1.0000
  C   C14       1.0  0.68516  0.26097  0.14605  1.0000
  C   C15       1.0  0.81189  0.21336  0.86819  1.0000
  C   C16       1.0  0.18813  0.78661  0.13182  1.0000
  C   C17       1.0  0.51620  0.22298  0.72960  1.0000
  C   C18       1.0  0.48380  0.77702  0.27041  1.0000
  C   C19       1.0  0.49620  0.13148  0.64555  1.0000
  C   C20       1.0  0.50375  0.86856  0.35444  1.0000
  C   C21       1.0  0.56685  0.17688  0.53753  1.0000
  C   C22       1.0  0.43311  0.82313  0.46247  1.0000
  C   C23       1.0  0.65552  0.31839  0.51320  1.0000
  C   C24       1.0  0.34447  0.68163  0.48680  1.0000
  C   C25       1.0  0.66731  0.40479  0.60262  1.0000
  C   C26       1.0  0.33269  0.59521  0.39737  1.0000
  C   C27       1.0  0.74262  0.55446  0.58762  1.0000
  C   C28       1.0  0.25739  0.44552  0.41239  1.0000
  C   C29       1.0  0.73197  0.38232  0.40601  1.0000
  C   C30       1.0  0.26800  0.61770  0.59400  1.0000
  C   C31       1.0  0.81015  0.52500  0.39058  1.0000
  C   C32       1.0  0.18983  0.47505  0.60941  1.0000
  C   C33       1.0  0.81496  0.61774  0.48146  1.0000
  C   C34       1.0  0.18502  0.38227  0.51854  1.0000
  C   C35       1.0  0.88302  0.77118  0.47273  1.0000
  C   C36       1.0  0.11696  0.22886  0.52727  1.0000
  C   C37       1.0  0.86947  0.85007  0.56826  1.0000
  C   C38       1.0  0.13047  0.14995  0.43175  1.0000
  C   C39       1.0  0.79366  0.77927  0.67037  1.0000
  C   C40       1.0  0.20634  0.22071  0.32965  1.0000
  N   N1        1.0  0.68755  0.62223  0.93039  1.0000
  N   N2        1.0  0.31252  0.37773  0.06959  1.0000
  N   N3        1.0  0.60304  0.35633  0.70879  1.0000
  N   N4        1.0  0.39695  0.64365  0.29122  1.0000
  N   N5        1.0  0.73299  0.63132  0.68239  1.0000
  N   N6        1.0  0.26710  0.36864  0.31761  1.0000
  O   O1        1.0  0.64734  0.28125  0.90837  1.0000
  O   O2        1.0  0.35270  0.71869  0.09165  1.0000
  O   O3        1.0  0.92026  0.30029  0.80656  1.0000
  O   O4        1.0  0.07976  0.69968  0.19344  1.0000
  O   O5        1.0  0.41356  0.85013  0.82628  1.0000
  O   O6        1.0  0.58643  0.14988  0.17372  1.0000
  O   O7        1.0  0.36910  0.57851  0.86640  1.0000
  O   O8        1.0  0.63088  0.42151  0.13363  1.0000
