data_image0
_chemical_formula_structural       V4H16C32O20
_chemical_formula_sum              "V4 H16 C32 O20"
_cell_length_a       12.1633
_cell_length_b       12.3029
_cell_length_c       12.3026
_cell_angle_alpha    75.8549
_cell_angle_beta     60.3774
_cell_angle_gamma    60.3783

_space_group_name_H-M_alt    "P 1"
_space_group_IT_number       1

loop_
  _space_group_symop_operation_xyz
  'x, y, z'

loop_
  _atom_site_type_symbol
  _atom_site_label
  _atom_site_symmetry_multiplicity
  _atom_site_fract_x
  _atom_site_fract_y
  _atom_site_fract_z
  _atom_site_occupancy
  V   V1        1.0  0.18947  0.99997  0.62107  1.0000
  V   V2        1.0  0.93945  0.12109  0.50002  1.0000
  V   V3        1.0  0.56056  0.87891  0.50000  1.0000
  V   V4        1.0  0.81053  0.00003  0.37892  1.0000
  H   H1        1.0  0.11730  0.00007  0.99996  1.0000
  H   H2        1.0  0.63267  0.49993  0.50008  1.0000
  H   H3        1.0  0.88267  0.00004  0.99999  1.0000
  H   H4        1.0  0.86732  0.49999  0.50004  1.0000
  H   H5        1.0  0.54780  0.94378  0.80585  1.0000
  H   H6        1.0  0.45249  0.30580  0.44392  1.0000
  H   H7        1.0  0.64636  0.05608  0.80589  1.0000
  H   H8        1.0  0.10369  0.69416  0.44378  1.0000
  H   H9        1.0  0.24168  0.30590  0.55611  1.0000
  H   H10       1.0  0.50839  0.94383  0.19416  1.0000
  H   H11       1.0  0.20229  0.69409  0.55601  1.0000
  H   H12       1.0  0.29748  0.05622  0.19408  1.0000
  H   H13       1.0  0.37502  0.06397  0.43603  1.0000
  H   H14       1.0  0.87505  0.93601  0.56394  1.0000
  H   H15       1.0  0.18893  0.93605  0.43605  1.0000
  H   H16       1.0  0.56097  0.06403  0.56399  1.0000
  C   C1        1.0  0.34460  0.95130  0.77069  1.0000
  C   C2        1.0  0.68323  0.27066  0.45153  1.0000
  C   C3        1.0  0.88468  0.04859  0.77069  1.0000
  C   C4        1.0  0.86529  0.72932  0.45138  1.0000
  C   C5        1.0  0.04603  0.27069  0.54866  1.0000
  C   C6        1.0  0.70405  0.95140  0.22931  1.0000
  C   C7        1.0  0.40540  0.72930  0.54860  1.0000
  C   C8        1.0  0.06662  0.04880  0.22928  1.0000
  C   C9        1.0  0.33300  0.97351  0.89035  1.0000
  C   C10       1.0  0.55302  0.39034  0.47368  1.0000
  C   C11       1.0  0.77661  0.02650  0.89040  1.0000
  C   C12       1.0  0.97339  0.60963  0.47350  1.0000
  C   C13       1.0  0.05654  0.39039  0.52648  1.0000
  C   C14       1.0  0.69352  0.97349  0.10962  1.0000
  C   C15       1.0  0.41701  0.60959  0.52651  1.0000
  C   C16       1.0  0.19679  0.02669  0.10956  1.0000
  C   C17       1.0  0.20675  0.00009  0.99995  1.0000
  C   C18       1.0  0.54319  0.49996  0.50009  1.0000
  C   C19       1.0  0.79320  0.00003  0.00002  1.0000
  C   C20       1.0  0.95678  0.50001  0.50003  1.0000
  C   C21       1.0  0.44909  0.97044  0.89145  1.0000
  C   C22       1.0  0.43895  0.39143  0.47053  1.0000
  C   C23       1.0  0.65947  0.02949  0.89151  1.0000
  C   C24       1.0  0.09062  0.60852  0.47036  1.0000
  C   C25       1.0  0.16959  0.39151  0.52948  1.0000
  C   C26       1.0  0.58052  0.97039  0.10852  1.0000
  C   C27       1.0  0.30098  0.60847  0.52949  1.0000
  C   C28       1.0  0.31096  0.02967  0.10845  1.0000
  C   C29       1.0  0.43923  0.00001  0.99997  1.0000
  C   C30       1.0  0.31079  0.49998  0.49995  1.0000
  C   C31       1.0  0.56079  0.99993  0.00001  1.0000
  C   C32       1.0  0.18930  0.50001  0.49990  1.0000
  O   O1        1.0  0.37504  0.99959  0.50022  1.0000
  O   O2        1.0  0.87514  0.00024  0.49960  1.0000
  O   O3        1.0  0.12466  0.00035  0.50032  1.0000
  O   O4        1.0  0.62528  0.99971  0.49975  1.0000
  O   O5        1.0  0.46906  0.89297  0.68452  1.0000
  O   O6        1.0  0.70324  0.18452  0.39317  1.0000
  O   O7        1.0  0.84634  0.10689  0.68453  1.0000
  O   O8        1.0  0.90356  0.81552  0.39310  1.0000
  O   O9        1.0  0.11225  0.18451  0.60693  1.0000
  O   O10       1.0  0.63786  0.89311  0.31550  1.0000
  O   O11       1.0  0.28089  0.81545  0.60688  1.0000
  O   O12       1.0  0.04663  0.10708  0.31546  1.0000
  O   O13       1.0  0.23019  0.99485  0.76152  1.0000
  O   O14       1.0  0.76333  0.26150  0.49501  1.0000
  O   O15       1.0  0.00827  0.00508  0.76150  1.0000
  O   O16       1.0  0.74173  0.73845  0.49488  1.0000
  O   O17       1.0  0.97508  0.26152  0.50520  1.0000
  O   O18       1.0  0.77497  0.99491  0.23845  1.0000
  O   O19       1.0  0.51980  0.73846  0.50512  1.0000
  O   O20       1.0  0.98659  0.00522  0.23848  1.0000
