data_image0
_chemical_formula_structural       V4H12C32O20
_chemical_formula_sum              "V4 H12 C32 O20"
_cell_length_a       11.9212
_cell_length_b       12.2301
_cell_length_c       12.2304
_cell_angle_alpha    76.2583
_cell_angle_beta     60.8346
_cell_angle_gamma    60.8289

_space_group_name_H-M_alt    "P 1"
_space_group_IT_number       1

loop_
  _space_group_symop_operation_xyz
  'x, y, z'

loop_
  _atom_site_type_symbol
  _atom_site_label
  _atom_site_symmetry_multiplicity
  _atom_site_fract_x
  _atom_site_fract_y
  _atom_site_fract_z
  _atom_site_occupancy
  V   V1        1.0  0.80211  0.39574  0.00002  1.0000
  V   V2        1.0  0.19790  0.60425  0.00001  1.0000
  V   V3        1.0  0.55219  0.50001  0.89565  1.0000
  V   V4        1.0  0.94787  0.50000  0.10431  1.0000
  H   H1        1.0  0.63995  0.49997  0.50004  1.0000
  H   H2        1.0  0.88999  0.00005  0.00005  1.0000
  H   H3        1.0  0.11004  0.99998  0.99994  1.0000
  H   H4        1.0  0.85999  0.50004  0.50005  1.0000
  H   H5        1.0  0.45326  0.44462  0.30538  1.0000
  H   H6        1.0  0.20325  0.55538  0.69457  1.0000
  H   H7        1.0  0.50870  0.19461  0.94456  1.0000
  H   H8        1.0  0.64791  0.80542  0.05543  1.0000
  H   H9        1.0  0.54679  0.80541  0.94452  1.0000
  H   H10       1.0  0.29667  0.19457  0.05549  1.0000
  H   H11       1.0  0.10221  0.44453  0.69459  1.0000
  H   H12       1.0  0.24128  0.55544  0.30545  1.0000
  C   C1        1.0  0.54866  0.49997  0.50002  1.0000
  C   C2        1.0  0.79870  0.00003  0.00004  1.0000
  C   C3        1.0  0.20133  0.00000  0.99994  1.0000
  C   C4        1.0  0.95130  0.50004  0.50002  1.0000
  C   C5        1.0  0.68655  0.45259  0.26903  1.0000
  C   C6        1.0  0.40817  0.54736  0.73097  1.0000
  C   C7        1.0  0.70558  0.23099  0.95264  1.0000
  C   C8        1.0  0.88924  0.76903  0.04738  1.0000
  C   C9        1.0  0.34179  0.76903  0.95259  1.0000
  C   C10       1.0  0.06343  0.23096  0.04733  1.0000
  C   C11       1.0  0.86081  0.45265  0.73097  1.0000
  C   C12       1.0  0.04443  0.54737  0.26904  1.0000
  C   C13       1.0  0.31179  0.49999  0.49999  1.0000
  C   C14       1.0  0.56178  0.00001  0.00003  1.0000
  C   C15       1.0  0.43823  1.00000  0.00001  1.0000
  C   C16       1.0  0.18820  0.50000  0.50001  1.0000
  C   C17       1.0  0.55697  0.47363  0.39038  1.0000
  C   C18       1.0  0.42099  0.52632  0.60965  1.0000
  C   C19       1.0  0.69735  0.10966  0.97371  1.0000
  C   C20       1.0  0.78068  0.89037  0.02636  1.0000
  C   C21       1.0  0.32902  0.89036  0.97360  1.0000
  C   C22       1.0  0.19300  0.10964  0.02631  1.0000
  C   C23       1.0  0.96935  0.47367  0.60966  1.0000
  C   C24       1.0  0.05262  0.52639  0.39038  1.0000
  C   C25       1.0  0.44085  0.47047  0.39130  1.0000
  C   C26       1.0  0.30264  0.52951  0.60867  1.0000
  C   C27       1.0  0.58218  0.10869  0.97049  1.0000
  C   C28       1.0  0.66137  0.89134  0.02955  1.0000
  C   C29       1.0  0.44738  0.89132  0.97041  1.0000
  C   C30       1.0  0.30911  0.10866  0.02956  1.0000
  C   C31       1.0  0.08870  0.47043  0.60869  1.0000
  C   C32       1.0  0.16777  0.52957  0.39134  1.0000
  O   O1        1.0  0.70266  0.39350  0.18469  1.0000
  O   O2        1.0  0.28086  0.60642  0.81534  1.0000
  O   O3        1.0  0.63737  0.31535  0.89354  1.0000
  O   O4        1.0  0.84630  0.68466  0.10643  1.0000
  O   O5        1.0  0.46908  0.68467  0.89348  1.0000
  O   O6        1.0  0.04731  0.31534  0.10638  1.0000
  O   O7        1.0  0.90371  0.39361  0.81536  1.0000
  O   O8        1.0  0.11272  0.60639  0.18467  1.0000
  O   O9        1.0  0.87495  0.48930  0.01073  1.0000
  O   O10       1.0  0.37503  0.51066  0.98924  1.0000
  O   O11       1.0  0.63565  0.48935  0.98929  1.0000
  O   O12       1.0  0.11429  0.51068  0.01076  1.0000
  O   O13       1.0  0.76891  0.49652  0.25705  1.0000
  O   O14       1.0  0.52249  0.50346  0.74294  1.0000
  O   O15       1.0  0.77600  0.24296  0.99655  1.0000
  O   O16       1.0  0.01552  0.75705  0.00349  1.0000
  O   O17       1.0  0.22746  0.75707  0.99655  1.0000
  O   O18       1.0  0.98103  0.24293  0.00345  1.0000
  O   O19       1.0  0.73454  0.49656  0.74289  1.0000
  O   O20       1.0  0.97404  0.50343  0.25706  1.0000
