data_image0
_chemical_formula_structural       Cu7H30C24N6Cl8O6
_chemical_formula_sum              "Cu7 H30 C24 N6 Cl8 O6"
_cell_length_a       8.01004
_cell_length_b       11.1637
_cell_length_c       11.6396
_cell_angle_alpha    66.5243
_cell_angle_beta     83.8507
_cell_angle_gamma    86.5437

_space_group_name_H-M_alt    "P 1"
_space_group_IT_number       1

loop_
  _space_group_symop_operation_xyz
  'x, y, z'

loop_
  _atom_site_type_symbol
  _atom_site_label
  _atom_site_symmetry_multiplicity
  _atom_site_fract_x
  _atom_site_fract_y
  _atom_site_fract_z
  _atom_site_occupancy
  Cu  Cu1       1.0  0.69667  0.60691  0.54798  1.0000
  Cu  Cu2       1.0  0.30333  0.39309  0.45202  1.0000
  Cu  Cu3       1.0  0.90165  0.39560  0.35530  1.0000
  Cu  Cu4       1.0  0.09835  0.60440  0.64470  1.0000
  Cu  Cu5       1.0  0.04656  0.32846  0.68099  1.0000
  Cu  Cu6       1.0  0.95344  0.67153  0.31901  1.0000
  Cu  Cu7       1.0  0.00000  1.00000  0.00000  1.0000
  H   H1        1.0  0.65084  0.88144  0.31786  1.0000
  H   H2        1.0  0.34915  0.11856  0.68214  1.0000
  H   H3        1.0  0.68393  0.92572  0.44674  1.0000
  H   H4        1.0  0.31607  0.07429  0.55326  1.0000
  H   H5        1.0  0.42604  0.71871  0.46937  1.0000
  H   H6        1.0  0.57395  0.28130  0.53062  1.0000
  H   H7        1.0  0.62869  0.76656  0.66063  1.0000
  H   H8        1.0  0.37131  0.23344  0.33937  1.0000
  H   H9        1.0  0.47218  0.63673  0.69659  1.0000
  H   H10       1.0  0.52782  0.36327  0.30341  1.0000
  H   H11       1.0  0.94638  0.11257  0.37821  1.0000
  H   H12       1.0  0.05363  0.88743  0.62179  1.0000
  H   H13       1.0  0.76758  0.17502  0.28890  1.0000
  H   H14       1.0  0.23242  0.82498  0.71110  1.0000
  H   H15       1.0  0.11114  0.31298  0.22734  1.0000
  H   H16       1.0  0.88886  0.68702  0.77266  1.0000
  H   H17       1.0  0.74890  0.41383  0.16012  1.0000
  H   H18       1.0  0.25110  0.58616  0.83988  1.0000
  H   H19       1.0  0.94029  0.51331  0.11816  1.0000
  H   H20       1.0  0.05971  0.48669  0.88184  1.0000
  H   H21       1.0  0.45869  0.70356  0.19063  1.0000
  H   H22       1.0  0.54132  0.29645  0.80937  1.0000
  H   H23       1.0  0.58332  0.82496  0.06973  1.0000
  H   H24       1.0  0.41668  0.17504  0.93027  1.0000
  H   H25       1.0  0.34149  0.65498  0.00972  1.0000
  H   H26       1.0  0.65850  0.34502  0.99028  1.0000
  H   H27       1.0  0.72457  0.69813  0.95526  1.0000
  H   H28       1.0  0.27542  0.30187  0.04473  1.0000
  H   H29       1.0  0.59825  0.59916  0.90085  1.0000
  H   H30       1.0  0.40174  0.40083  0.09915  1.0000
  C   C1        1.0  0.35210  0.98013  0.29706  1.0000
  C   C2        1.0  0.64790  0.01987  0.70294  1.0000
  C   C3        1.0  0.10910  0.04923  0.20995  1.0000
  C   C4        1.0  0.89090  0.95077  0.79005  1.0000
  C   C5        1.0  0.28965  0.91781  0.14568  1.0000
  C   C6        1.0  0.71035  0.08219  0.85432  1.0000
  C   C7        1.0  0.59531  0.88611  0.40629  1.0000
  C   C8        1.0  0.40469  0.11389  0.59371  1.0000
  C   C9        1.0  0.52659  0.75841  0.49973  1.0000
  C   C10       1.0  0.47341  0.24159  0.50027  1.0000
  C   C11       1.0  0.55163  0.71255  0.62645  1.0000
  C   C12       1.0  0.44838  0.28745  0.37356  1.0000
  C   C13       1.0  0.90497  0.17315  0.28533  1.0000
  C   C14       1.0  0.09504  0.82684  0.71467  1.0000
  C   C15       1.0  0.97451  0.30796  0.23410  1.0000
  C   C16       1.0  0.02549  0.69204  0.76590  1.0000
  C   C17       1.0  0.88064  0.41977  0.17324  1.0000
  C   C18       1.0  0.11936  0.58023  0.82677  1.0000
  C   C19       1.0  0.46875  0.76841  0.09020  1.0000
  C   C20       1.0  0.53125  0.23160  0.90979  1.0000
  C   C21       1.0  0.46416  0.69239  0.01072  1.0000
  C   C22       1.0  0.53584  0.30762  0.98927  1.0000
  C   C23       1.0  0.60215  0.66261  0.95145  1.0000
  C   C24       1.0  0.39785  0.33738  0.04855  1.0000
  N   N1        1.0  0.21085  0.05289  0.29152  1.0000
  N   N2        1.0  0.78915  0.94711  0.70848  1.0000
  N   N3        1.0  0.14405  0.98733  0.13109  1.0000
  N   N4        1.0  0.85595  0.01267  0.86891  1.0000
  N   N5        1.0  0.39615  0.90919  0.22886  1.0000
  N   N6        1.0  0.60385  0.09082  0.77114  1.0000
  Cl  Cl1       1.0  0.81478  0.45603  0.71107  1.0000
  Cl  Cl2       1.0  0.18523  0.54397  0.28893  1.0000
  Cl  Cl3       1.0  0.70489  0.53865  0.38688  1.0000
  Cl  Cl4       1.0  0.29511  0.46135  0.61312  1.0000
  Cl  Cl5       1.0  0.98719  0.24770  0.53945  1.0000
  Cl  Cl6       1.0  0.01281  0.75230  0.46055  1.0000
  Cl  Cl7       1.0  0.10507  0.21026  0.87932  1.0000
  Cl  Cl8       1.0  0.89493  0.78974  0.12068  1.0000
  O   O1        1.0  0.45467  0.98207  0.37921  1.0000
  O   O2        1.0  0.54533  0.01794  0.62079  1.0000
  O   O3        1.0  0.95848  0.10773  0.19978  1.0000
  O   O4        1.0  0.04152  0.89227  0.80022  1.0000
  O   O5        1.0  0.32193  0.85717  0.06832  1.0000
  O   O6        1.0  0.67807  0.14284  0.93168  1.0000
