data_image0
_chemical_formula_structural       Cd4H48C56N8O16
_chemical_formula_sum              "Cd4 H48 C56 N8 O16"
_cell_length_a       9.83736
_cell_length_b       9.78382
_cell_length_c       15.874
_cell_angle_alpha    90
_cell_angle_beta     90
_cell_angle_gamma    106.206

_space_group_name_H-M_alt    "P 1"
_space_group_IT_number       1

loop_
  _space_group_symop_operation_xyz
  'x, y, z'

loop_
  _atom_site_type_symbol
  _atom_site_label
  _atom_site_symmetry_multiplicity
  _atom_site_fract_x
  _atom_site_fract_y
  _atom_site_fract_z
  _atom_site_occupancy
  Cd  Cd1       1.0  0.41556  0.58445  0.40825  1.0000
  Cd  Cd2       1.0  0.08444  0.91556  0.90825  1.0000
  Cd  Cd3       1.0  0.91556  0.08444  0.09175  1.0000
  Cd  Cd4       1.0  0.58444  0.41555  0.59175  1.0000
  H   H1        1.0  0.53982  0.86883  0.52205  1.0000
  H   H2        1.0  0.96018  0.63117  0.02205  1.0000
  H   H3        1.0  0.63172  0.96113  0.97767  1.0000
  H   H4        1.0  0.86828  0.53887  0.47767  1.0000
  H   H5        1.0  0.46018  0.13117  0.47795  1.0000
  H   H6        1.0  0.03982  0.36883  0.97795  1.0000
  H   H7        1.0  0.36828  0.03887  0.02233  1.0000
  H   H8        1.0  0.13172  0.46113  0.52233  1.0000
  H   H9        1.0  0.74085  0.08835  0.52657  1.0000
  H   H10       1.0  0.75915  0.41165  0.02657  1.0000
  H   H11       1.0  0.41245  0.75982  0.97350  1.0000
  H   H12       1.0  0.08756  0.74017  0.47350  1.0000
  H   H13       1.0  0.25915  0.91165  0.47343  1.0000
  H   H14       1.0  0.24085  0.58835  0.97343  1.0000
  H   H15       1.0  0.58756  0.24018  0.02650  1.0000
  H   H16       1.0  0.91244  0.25982  0.52650  1.0000
  H   H17       1.0  0.91179  0.92436  0.30865  1.0000
  H   H18       1.0  0.58821  0.57564  0.80865  1.0000
  H   H19       1.0  0.57500  0.58753  0.19145  1.0000
  H   H20       1.0  0.92500  0.91247  0.69145  1.0000
  H   H21       1.0  0.08821  0.07564  0.69135  1.0000
  H   H22       1.0  0.41179  0.42436  0.19135  1.0000
  H   H23       1.0  0.42500  0.41246  0.80855  1.0000
  H   H24       1.0  0.07500  0.08754  0.30855  1.0000
  H   H25       1.0  0.70547  0.71083  0.31717  1.0000
  H   H26       1.0  0.79453  0.78917  0.81717  1.0000
  H   H27       1.0  0.78822  0.79396  0.18257  1.0000
  H   H28       1.0  0.71178  0.70604  0.68257  1.0000
  H   H29       1.0  0.29453  0.28917  0.68283  1.0000
  H   H30       1.0  0.20547  0.21083  0.18283  1.0000
  H   H31       1.0  0.21178  0.20604  0.81743  1.0000
  H   H32       1.0  0.28823  0.29396  0.31743  1.0000
  H   H33       1.0  0.07131  0.78091  0.29498  1.0000
  H   H34       1.0  0.42869  0.71909  0.79498  1.0000
  H   H35       1.0  0.71897  0.42933  0.20502  1.0000
  H   H36       1.0  0.78103  0.07067  0.70502  1.0000
  H   H37       1.0  0.92869  0.21909  0.70502  1.0000
  H   H38       1.0  0.57132  0.28091  0.20502  1.0000
  H   H39       1.0  0.28103  0.57067  0.79498  1.0000
  H   H40       1.0  0.21897  0.92933  0.29498  1.0000
  H   H41       1.0  0.14662  0.70557  0.15263  1.0000
  H   H42       1.0  0.35338  0.79443  0.65263  1.0000
  H   H43       1.0  0.79382  0.35356  0.34739  1.0000
  H   H44       1.0  0.70618  0.14644  0.84739  1.0000
  H   H45       1.0  0.85338  0.29443  0.84737  1.0000
  H   H46       1.0  0.64662  0.20557  0.34737  1.0000
  H   H47       1.0  0.20618  0.64644  0.65261  1.0000
  H   H48       1.0  0.29382  0.85356  0.15261  1.0000
  C   C1        1.0  0.62611  0.88549  0.47657  1.0000
  C   C2        1.0  0.87389  0.61451  0.97657  1.0000
  C   C3        1.0  0.61485  0.87446  0.02322  1.0000
  C   C4        1.0  0.88515  0.62554  0.52322  1.0000
  C   C5        1.0  0.37389  0.11451  0.52343  1.0000
  C   C6        1.0  0.12611  0.38549  0.02343  1.0000
  C   C7        1.0  0.38516  0.12554  0.97678  1.0000
  C   C8        1.0  0.11485  0.37446  0.47678  1.0000
  C   C9        1.0  0.73968  0.00793  0.47857  1.0000
  C   C10       1.0  0.76032  0.49207  0.97857  1.0000
  C   C11       1.0  0.49255  0.76086  0.02140  1.0000
  C   C12       1.0  0.00745  0.73914  0.52140  1.0000
  C   C13       1.0  0.26032  0.99207  0.52143  1.0000
  C   C14       1.0  0.23968  0.50793  0.02143  1.0000
  C   C15       1.0  0.50745  0.23914  0.97860  1.0000
  C   C16       1.0  0.99255  0.26086  0.47860  1.0000
  C   C17       1.0  0.84862  0.02562  0.41864  1.0000
  C   C18       1.0  0.65138  0.47438  0.91864  1.0000
  C   C19       1.0  0.47444  0.65142  0.08138  1.0000
  C   C20       1.0  0.02556  0.84858  0.58138  1.0000
  C   C21       1.0  0.15138  0.97438  0.58136  1.0000
  C   C22       1.0  0.34862  0.52562  0.08136  1.0000
  C   C23       1.0  0.52556  0.34858  0.91862  1.0000
  C   C24       1.0  0.97444  0.15142  0.41862  1.0000
  C   C25       1.0  0.83452  0.91690  0.35877  1.0000
  C   C26       1.0  0.66548  0.58310  0.85877  1.0000
  C   C27       1.0  0.58263  0.66506  0.14122  1.0000
  C   C28       1.0  0.91737  0.83494  0.64122  1.0000
  C   C29       1.0  0.16548  0.08310  0.64123  1.0000
  C   C30       1.0  0.33452  0.41690  0.14123  1.0000
  C   C31       1.0  0.41737  0.33494  0.85878  1.0000
  C   C32       1.0  0.08263  0.16506  0.35878  1.0000
  C   C33       1.0  0.71841  0.79776  0.36210  1.0000
  C   C34       1.0  0.78159  0.70224  0.86210  1.0000
  C   C35       1.0  0.70166  0.78124  0.13770  1.0000
  C   C36       1.0  0.79834  0.71876  0.63770  1.0000
  C   C37       1.0  0.28159  0.20224  0.63790  1.0000
  C   C38       1.0  0.21841  0.29776  0.13790  1.0000
  C   C39       1.0  0.29834  0.21875  0.86230  1.0000
  C   C40       1.0  0.20166  0.28125  0.36230  1.0000
  C   C41       1.0  0.26650  0.73341  0.31599  1.0000
  C   C42       1.0  0.23350  0.76659  0.81599  1.0000
  C   C43       1.0  0.76650  0.23341  0.18401  1.0000
  C   C44       1.0  0.73350  0.26659  0.68401  1.0000
  C   C45       1.0  0.18091  0.81913  0.27193  1.0000
  C   C46       1.0  0.31908  0.68087  0.77193  1.0000
  C   C47       1.0  0.68092  0.31913  0.22807  1.0000
  C   C48       1.0  0.81908  0.18087  0.72807  1.0000
  C   C49       1.0  0.18457  0.81542  0.17627  1.0000
  C   C50       1.0  0.31543  0.68458  0.67627  1.0000
  C   C51       1.0  0.68458  0.31542  0.32373  1.0000
  C   C52       1.0  0.81542  0.18458  0.82373  1.0000
  C   C53       1.0  0.09714  0.90283  0.13537  1.0000
  C   C54       1.0  0.40286  0.59717  0.63537  1.0000
  C   C55       1.0  0.59714  0.40283  0.36463  1.0000
  C   C56       1.0  0.90286  0.09717  0.86463  1.0000
  N   N1        1.0  0.61517  0.78086  0.41989  1.0000
  N   N2        1.0  0.88483  0.71915  0.91989  1.0000
  N   N3        1.0  0.71898  0.88491  0.07980  1.0000
  N   N4        1.0  0.78102  0.61508  0.57980  1.0000
  N   N5        1.0  0.38483  0.21914  0.58011  1.0000
  N   N6        1.0  0.11517  0.28086  0.08011  1.0000
  N   N7        1.0  0.28102  0.11509  0.92020  1.0000
  N   N8        1.0  0.21898  0.38492  0.42020  1.0000
  O   O1        1.0  0.26503  0.73489  0.39707  1.0000
  O   O2        1.0  0.23497  0.76511  0.89707  1.0000
  O   O3        1.0  0.76503  0.23489  0.10293  1.0000
  O   O4        1.0  0.73497  0.26511  0.60293  1.0000
  O   O5        1.0  0.33493  0.66505  0.27387  1.0000
  O   O6        1.0  0.16507  0.83495  0.77387  1.0000
  O   O7        1.0  0.83493  0.16504  0.22613  1.0000
  O   O8        1.0  0.66507  0.33495  0.72613  1.0000
  O   O9        1.0  0.03138  0.96833  0.18340  1.0000
  O   O10       1.0  0.46862  0.53167  0.68340  1.0000
  O   O11       1.0  0.53138  0.46833  0.31660  1.0000
  O   O12       1.0  0.96862  0.03167  0.81660  1.0000
  O   O13       1.0  0.09163  0.90834  0.05586  1.0000
  O   O14       1.0  0.40837  0.59166  0.55586  1.0000
  O   O15       1.0  0.59163  0.40834  0.44414  1.0000
  O   O16       1.0  0.90837  0.09166  0.94414  1.0000
