data_image0
_chemical_formula_structural       Zn4H40C52N40
_chemical_formula_sum              "Zn4 H40 C52 N40"
_cell_length_a       8.85033
_cell_length_b       12.1102
_cell_length_c       15.976
_cell_angle_alpha    107.118
_cell_angle_beta     90
_cell_angle_gamma    111.432

_space_group_name_H-M_alt    "P 1"
_space_group_IT_number       1

loop_
  _space_group_symop_operation_xyz
  'x, y, z'

loop_
  _atom_site_type_symbol
  _atom_site_label
  _atom_site_symmetry_multiplicity
  _atom_site_fract_x
  _atom_site_fract_y
  _atom_site_fract_z
  _atom_site_occupancy
  Zn  Zn1       1.0  0.44318  0.56488  0.90122  1.0000
  Zn  Zn2       1.0  0.87820  0.43509  0.59877  1.0000
  Zn  Zn3       1.0  0.55682  0.43512  0.09878  1.0000
  Zn  Zn4       1.0  0.12180  0.56491  0.40123  1.0000
  H   H1        1.0  0.41348  0.29161  0.71967  1.0000
  H   H2        1.0  0.12191  0.70827  0.78027  1.0000
  H   H3        1.0  0.58652  0.70839  0.28033  1.0000
  H   H4        1.0  0.87809  0.29173  0.21974  1.0000
  H   H5        1.0  0.21543  0.17153  0.70429  1.0000
  H   H6        1.0  0.04420  0.82849  0.79570  1.0000
  H   H7        1.0  0.78457  0.82847  0.29571  1.0000
  H   H8        1.0  0.95580  0.17151  0.20430  1.0000
  H   H9        1.0  0.59530  0.75125  0.79699  1.0000
  H   H10       1.0  0.84385  0.24845  0.70283  1.0000
  H   H11       1.0  0.40470  0.24875  0.20301  1.0000
  H   H12       1.0  0.15615  0.75155  0.29717  1.0000
  H   H13       1.0  0.55829  0.93139  0.76942  1.0000
  H   H14       1.0  0.62636  0.06846  0.73050  1.0000
  H   H15       1.0  0.44171  0.06860  0.23057  1.0000
  H   H16       1.0  0.37364  0.93154  0.26950  1.0000
  H   H17       1.0  0.37759  0.02774  0.86302  1.0000
  H   H18       1.0  0.34927  0.97241  0.63704  1.0000
  H   H19       1.0  0.62241  0.97225  0.13698  1.0000
  H   H20       1.0  0.65073  0.02759  0.36296  1.0000
  H   H21       1.0  0.24094  0.93300  0.97357  1.0000
  H   H22       1.0  0.30757  0.06718  0.52646  1.0000
  H   H23       1.0  0.75905  0.06699  0.02643  1.0000
  H   H24       1.0  0.69243  0.93283  0.47355  1.0000
  H   H25       1.0  0.13473  0.84550  0.06359  1.0000
  H   H26       1.0  0.28891  0.15474  0.43648  1.0000
  H   H27       1.0  0.86528  0.15450  0.93641  1.0000
  H   H28       1.0  0.71109  0.84527  0.56352  1.0000
  H   H29       1.0  0.00111  0.72274  0.16128  1.0000
  H   H30       1.0  0.27838  0.27745  0.33868  1.0000
  H   H31       1.0  0.99889  0.27726  0.83872  1.0000
  H   H32       1.0  0.72162  0.72255  0.66132  1.0000
  H   H33       1.0  0.04943  0.52712  0.15295  1.0000
  H   H34       1.0  0.52255  0.47293  0.34698  1.0000
  H   H35       1.0  0.95058  0.47289  0.84705  1.0000
  H   H36       1.0  0.47745  0.52707  0.65302  1.0000
  H   H37       1.0  0.22461  0.46134  0.04166  1.0000
  H   H38       1.0  0.76332  0.53868  0.45840  1.0000
  H   H39       1.0  0.77539  0.53866  0.95834  1.0000
  H   H40       1.0  0.23668  0.46132  0.54161  1.0000
  C   C1        1.0  0.21951  0.35500  0.72974  1.0000
  C   C2        1.0  0.86461  0.64503  0.77024  1.0000
  C   C3        1.0  0.78049  0.64500  0.27026  1.0000
  C   C4        1.0  0.13539  0.35497  0.22976  1.0000
  C   C5        1.0  0.29231  0.26757  0.74341  1.0000
  C   C6        1.0  0.02488  0.73241  0.75656  1.0000
  C   C7        1.0  0.70769  0.73243  0.25659  1.0000
  C   C8        1.0  0.97512  0.26759  0.24345  1.0000
  C   C9        1.0  0.31412  0.27378  0.83747  1.0000
  C   C10       1.0  0.04044  0.72618  0.66249  1.0000
  C   C11       1.0  0.68588  0.72622  0.16253  1.0000
  C   C12       1.0  0.95956  0.27382  0.33752  1.0000
  C   C13       1.0  0.51554  0.79271  0.83368  1.0000
  C   C14       1.0  0.72256  0.20715  0.66623  1.0000
  C   C15       1.0  0.48446  0.20729  0.16632  1.0000
  C   C16       1.0  0.27744  0.79285  0.33377  1.0000
  C   C17       1.0  0.49668  0.89553  0.82029  1.0000
  C   C18       1.0  0.60072  0.10444  0.67968  1.0000
  C   C19       1.0  0.50332  0.10446  0.17970  1.0000
  C   C20       1.0  0.39928  0.89556  0.32032  1.0000
  C   C21       1.0  0.39797  0.94796  0.87163  1.0000
  C   C22       1.0  0.44953  0.05211  0.62840  1.0000
  C   C23       1.0  0.60203  0.05204  0.12837  1.0000
  C   C24       1.0  0.55047  0.94789  0.37160  1.0000
  C   C25       1.0  0.31936  0.89344  0.93342  1.0000
  C   C26       1.0  0.42557  0.10662  0.56656  1.0000
  C   C27       1.0  0.68064  0.10656  0.06658  1.0000
  C   C28       1.0  0.57443  0.89338  0.43344  1.0000
  C   C29       1.0  0.33919  0.78699  0.94092  1.0000
  C   C30       1.0  0.55196  0.21297  0.55902  1.0000
  C   C31       1.0  0.66081  0.21301  0.05908  1.0000
  C   C32       1.0  0.44805  0.78704  0.44098  1.0000
  C   C33       1.0  0.25251  0.71857  0.00087  1.0000
  C   C34       1.0  0.53377  0.28143  0.49908  1.0000
  C   C35       1.0  0.74749  0.28143  0.99912  1.0000
  C   C36       1.0  0.46623  0.71857  0.50092  1.0000
  C   C37       1.0  0.15394  0.76063  0.06034  1.0000
  C   C38       1.0  0.39315  0.23949  0.43964  1.0000
  C   C39       1.0  0.84606  0.23937  0.93966  1.0000
  C   C40       1.0  0.60685  0.76051  0.56036  1.0000
  C   C41       1.0  0.07946  0.69177  0.11550  1.0000
  C   C42       1.0  0.38771  0.30835  0.38445  1.0000
  C   C43       1.0  0.92054  0.30823  0.88450  1.0000
  C   C44       1.0  0.61229  0.69165  0.61555  1.0000
  C   C45       1.0  0.10522  0.58328  0.11081  1.0000
  C   C46       1.0  0.52207  0.41677  0.38914  1.0000
  C   C47       1.0  0.89478  0.41672  0.88919  1.0000
  C   C48       1.0  0.47793  0.58323  0.61086  1.0000
  C   C49       1.0  0.20240  0.54629  0.04895  1.0000
  C   C50       1.0  0.65617  0.45372  0.45104  1.0000
  C   C51       1.0  0.79761  0.45371  0.95105  1.0000
  C   C52       1.0  0.34383  0.54628  0.54897  1.0000
  N   N1        1.0  0.25898  0.47339  0.78337  1.0000
  N   N2        1.0  0.78565  0.52665  0.71660  1.0000
  N   N3        1.0  0.74102  0.52661  0.21663  1.0000
  N   N4        1.0  0.21435  0.47335  0.28340  1.0000
  N   N5        1.0  0.16594  0.52009  0.75002  1.0000
  N   N6        1.0  0.64591  0.47997  0.74996  1.0000
  N   N7        1.0  0.83406  0.47991  0.24998  1.0000
  N   N8        1.0  0.35409  0.52003  0.25004  1.0000
  N   N9        1.0  0.07482  0.43173  0.67848  1.0000
  N   N10       1.0  0.64322  0.56834  0.82152  1.0000
  N   N11       1.0  0.92518  0.56827  0.32152  1.0000
  N   N12       1.0  0.35677  0.43166  0.17848  1.0000
  N   N13       1.0  0.10552  0.32681  0.66346  1.0000
  N   N14       1.0  0.77887  0.67324  0.83653  1.0000
  N   N15       1.0  0.89448  0.67319  0.33654  1.0000
  N   N16       1.0  0.22112  0.32676  0.16347  1.0000
  N   N17       1.0  0.38271  0.37942  0.90602  1.0000
  N   N18       1.0  0.00333  0.62055  0.59393  1.0000
  N   N19       1.0  0.61729  0.62058  0.09398  1.0000
  N   N20       1.0  0.99667  0.37945  0.40607  1.0000
  N   N21       1.0  0.38188  0.34024  0.97724  1.0000
  N   N22       1.0  0.04165  0.65973  0.52272  1.0000
  N   N23       1.0  0.61812  0.65976  0.02276  1.0000
  N   N24       1.0  0.95835  0.34027  0.47728  1.0000
  N   N25       1.0  0.31609  0.21711  0.95232  1.0000
  N   N26       1.0  0.09903  0.78286  0.54765  1.0000
  N   N27       1.0  0.68391  0.78289  0.04768  1.0000
  N   N28       1.0  0.90097  0.21714  0.45236  1.0000
  N   N29       1.0  0.27174  0.17266  0.86471  1.0000
  N   N30       1.0  0.09920  0.82730  0.63526  1.0000
  N   N31       1.0  0.72826  0.82734  0.13529  1.0000
  N   N32       1.0  0.90080  0.17270  0.36474  1.0000
  N   N33       1.0  0.43869  0.73947  0.89202  1.0000
  N   N34       1.0  0.69901  0.26042  0.60788  1.0000
  N   N35       1.0  0.56131  0.26053  0.10798  1.0000
  N   N36       1.0  0.30099  0.73958  0.39212  1.0000
  N   N37       1.0  0.27314  0.61158  0.99517  1.0000
  N   N38       1.0  0.66149  0.38838  0.50480  1.0000
  N   N39       1.0  0.72686  0.38842  0.00483  1.0000
  N   N40       1.0  0.33851  0.61163  0.49520  1.0000
