data_image0
_chemical_formula_structural       Zn4H28C32N20O8
_chemical_formula_sum              "Zn4 H28 C32 N20 O8"
_cell_length_a       9.60616
_cell_length_b       12.0091
_cell_length_c       12.0092
_cell_angle_alpha    90.4175
_cell_angle_beta     109.358
_cell_angle_gamma    109.358

_space_group_name_H-M_alt    "P 1"
_space_group_IT_number       1

loop_
  _space_group_symop_operation_xyz
  'x, y, z'

loop_
  _atom_site_type_symbol
  _atom_site_label
  _atom_site_symmetry_multiplicity
  _atom_site_fract_x
  _atom_site_fract_y
  _atom_site_fract_z
  _atom_site_occupancy
  Zn  Zn1       1.0  0.84819  0.37419  0.15510  1.0000
  Zn  Zn2       1.0  0.65181  0.84490  0.62581  1.0000
  Zn  Zn3       1.0  0.15181  0.62581  0.84490  1.0000
  Zn  Zn4       1.0  0.34819  0.15510  0.37419  1.0000
  H   H1        1.0  0.19354  0.73401  0.48517  1.0000
  H   H2        1.0  0.30645  0.51483  0.26599  1.0000
  H   H3        1.0  0.80646  0.26599  0.51483  1.0000
  H   H4        1.0  0.69355  0.48517  0.73401  1.0000
  H   H5        1.0  0.98740  0.75610  0.11194  1.0000
  H   H6        1.0  0.51260  0.88807  0.24390  1.0000
  H   H7        1.0  0.01260  0.24390  0.88806  1.0000
  H   H8        1.0  0.48741  0.11194  0.75610  1.0000
  H   H9        1.0  0.33212  0.95759  0.51667  1.0000
  H   H10       1.0  0.16788  0.48334  0.04240  1.0000
  H   H11       1.0  0.66788  0.04240  0.48334  1.0000
  H   H12       1.0  0.83212  0.51667  0.95759  1.0000
  H   H13       1.0  0.12971  0.97745  0.15722  1.0000
  H   H14       1.0  0.37029  0.84278  0.02255  1.0000
  H   H15       1.0  0.87030  0.02255  0.84278  1.0000
  H   H16       1.0  0.62971  0.15722  0.97745  1.0000
  H   H17       1.0  0.22269  0.34606  0.48261  1.0000
  H   H18       1.0  0.27731  0.51739  0.65393  1.0000
  H   H19       1.0  0.77731  0.65394  0.51739  1.0000
  H   H20       1.0  0.72268  0.48261  0.34606  1.0000
  H   H21       1.0  0.04588  0.22048  0.45061  1.0000
  H   H22       1.0  0.45412  0.54938  0.77951  1.0000
  H   H23       1.0  0.95412  0.77952  0.54939  1.0000
  H   H24       1.0  0.54587  0.45061  0.22048  1.0000
  H   H25       1.0  0.03666  0.36416  0.41921  1.0000
  H   H26       1.0  0.46334  0.58079  0.63584  1.0000
  H   H27       1.0  0.96334  0.63584  0.58079  1.0000
  H   H28       1.0  0.53665  0.41921  0.36416  1.0000
  C   C1        1.0  0.99639  0.59635  0.27887  1.0000
  C   C2        1.0  0.50361  0.72114  0.40364  1.0000
  C   C3        1.0  0.00361  0.40365  0.72112  1.0000
  C   C4        1.0  0.49639  0.27886  0.59636  1.0000
  C   C5        1.0  0.10467  0.27951  0.29974  1.0000
  C   C6        1.0  0.39533  0.70026  0.72048  1.0000
  C   C7        1.0  0.89533  0.72049  0.70026  1.0000
  C   C8        1.0  0.60467  0.29974  0.27951  1.0000
  C   C9        1.0  0.07815  0.72954  0.29714  1.0000
  C   C10       1.0  0.42185  0.70286  0.27046  1.0000
  C   C11       1.0  0.92186  0.27046  0.70286  1.0000
  C   C12       1.0  0.57815  0.29714  0.72954  1.0000
  C   C13       1.0  0.17708  0.78654  0.41167  1.0000
  C   C14       1.0  0.32291  0.58833  0.21346  1.0000
  C   C15       1.0  0.82291  0.21346  0.58833  1.0000
  C   C16       1.0  0.67709  0.41167  0.78654  1.0000
  C   C17       1.0  0.06026  0.79771  0.20294  1.0000
  C   C18       1.0  0.43974  0.79706  0.20229  1.0000
  C   C19       1.0  0.93975  0.20229  0.79706  1.0000
  C   C20       1.0  0.56026  0.20294  0.79771  1.0000
  C   C21       1.0  0.25399  0.90900  0.42902  1.0000
  C   C22       1.0  0.24602  0.57098  0.09100  1.0000
  C   C23       1.0  0.74602  0.09100  0.57099  1.0000
  C   C24       1.0  0.75398  0.42902  0.90900  1.0000
  C   C25       1.0  0.14031  0.92013  0.22734  1.0000
  C   C26       1.0  0.35969  0.77267  0.07987  1.0000
  C   C27       1.0  0.85970  0.07987  0.77267  1.0000
  C   C28       1.0  0.64031  0.22734  0.92013  1.0000
  C   C29       1.0  0.10117  0.30404  0.41974  1.0000
  C   C30       1.0  0.39883  0.58025  0.69595  1.0000
  C   C31       1.0  0.89883  0.69596  0.58026  1.0000
  C   C32       1.0  0.60116  0.41974  0.30404  1.0000
  N   N1        1.0  0.02190  0.30788  0.19700  1.0000
  N   N2        1.0  0.47809  0.80300  0.69211  1.0000
  N   N3        1.0  0.97809  0.69211  0.80300  1.0000
  N   N4        1.0  0.52191  0.19700  0.30789  1.0000
  N   N5        1.0  0.23499  0.97475  0.33827  1.0000
  N   N6        1.0  0.26501  0.66174  0.02525  1.0000
  N   N7        1.0  0.76501  0.02525  0.66174  1.0000
  N   N8        1.0  0.73499  0.33827  0.97475  1.0000
  N   N9        1.0  0.06161  0.26890  0.10921  1.0000
  N   N10       1.0  0.43839  0.89079  0.73110  1.0000
  N   N11       1.0  0.93839  0.73110  0.89079  1.0000
  N   N12       1.0  0.56162  0.10921  0.26890  1.0000
  N   N13       1.0  0.19418  0.22455  0.27521  1.0000
  N   N14       1.0  0.30582  0.72479  0.77545  1.0000
  N   N15       1.0  0.80582  0.77545  0.72480  1.0000
  N   N16       1.0  0.69418  0.27520  0.22455  1.0000
  N   N17       1.0  0.16488  0.21898  0.15602  1.0000
  N   N18       1.0  0.33512  0.84398  0.78102  1.0000
  N   N19       1.0  0.83512  0.78102  0.84398  1.0000
  N   N20       1.0  0.66488  0.15602  0.21898  1.0000
  O   O1        1.0  0.91796  0.54856  0.16865  1.0000
  O   O2        1.0  0.58204  0.83135  0.45144  1.0000
  O   O3        1.0  0.08205  0.45144  0.83135  1.0000
  O   O4        1.0  0.41797  0.16865  0.54856  1.0000
  O   O5        1.0  0.00815  0.54069  0.36662  1.0000
  O   O6        1.0  0.49184  0.63338  0.45931  1.0000
  O   O7        1.0  0.99185  0.45931  0.63339  1.0000
  O   O8        1.0  0.50816  0.36663  0.54068  1.0000
