data_image0
_chemical_formula_structural       Cd2H20C12S4N8O16
_chemical_formula_sum              "Cd2 H20 C12 S4 N8 O16"
_cell_length_a       7.45142
_cell_length_b       8.71995
_cell_length_c       10.1175
_cell_angle_alpha    90.0001
_cell_angle_beta     89.9998
_cell_angle_gamma    96.6129

_space_group_name_H-M_alt    "P 1"
_space_group_IT_number       1

loop_
  _space_group_symop_operation_xyz
  'x, y, z'

loop_
  _atom_site_type_symbol
  _atom_site_label
  _atom_site_symmetry_multiplicity
  _atom_site_fract_x
  _atom_site_fract_y
  _atom_site_fract_z
  _atom_site_occupancy
  Cd  Cd1       1.0  0.00000  1.00000  1.00000  1.0000
  Cd  Cd2       1.0  0.50000  1.00000  0.50000  1.0000
  H   H1        1.0  0.70838  0.77285  0.11812  1.0000
  H   H2        1.0  0.79163  0.22715  0.61812  1.0000
  H   H3        1.0  0.29163  0.22715  0.88188  1.0000
  H   H4        1.0  0.20838  0.77285  0.38188  1.0000
  H   H5        1.0  0.89187  0.76021  0.19599  1.0000
  H   H6        1.0  0.60813  0.23979  0.69599  1.0000
  H   H7        1.0  0.10813  0.23979  0.80400  1.0000
  H   H8        1.0  0.39187  0.76021  0.30400  1.0000
  H   H9        1.0  0.84121  0.49873  0.69643  1.0000
  H   H10       1.0  0.65879  0.50127  0.19642  1.0000
  H   H11       1.0  0.15880  0.50127  0.30358  1.0000
  H   H12       1.0  0.34120  0.49873  0.80358  1.0000
  H   H13       1.0  0.96122  0.99730  0.66304  1.0000
  H   H14       1.0  0.53879  0.00269  0.16304  1.0000
  H   H15       1.0  0.03879  0.00269  0.33695  1.0000
  H   H16       1.0  0.46121  0.99731  0.83696  1.0000
  H   H17       1.0  0.92519  0.62797  0.91614  1.0000
  H   H18       1.0  0.57481  0.37202  0.41614  1.0000
  H   H19       1.0  0.07481  0.37203  0.08386  1.0000
  H   H20       1.0  0.42518  0.62797  0.58386  1.0000
  C   C1        1.0  0.87618  0.62174  0.70930  1.0000
  C   C2        1.0  0.62382  0.37826  0.20929  1.0000
  C   C3        1.0  0.12383  0.37825  0.29071  1.0000
  C   C4        1.0  0.37617  0.62175  0.79071  1.0000
  C   C5        1.0  0.88700  0.74411  0.61960  1.0000
  C   C6        1.0  0.61300  0.25588  0.11960  1.0000
  C   C7        1.0  0.11301  0.25588  0.38039  1.0000
  C   C8        1.0  0.38699  0.74412  0.88040  1.0000
  C   C9        1.0  0.93892  0.87801  0.69439  1.0000
  C   C10       1.0  0.56108  0.12199  0.19439  1.0000
  C   C11       1.0  0.06108  0.12199  0.30561  1.0000
  C   C12       1.0  0.43892  0.87801  0.80561  1.0000
  S   S1        1.0  0.81820  0.73706  0.45433  1.0000
  S   S2        1.0  0.68180  0.26294  0.95432  1.0000
  S   S3        1.0  0.18180  0.26294  0.54567  1.0000
  S   S4        1.0  0.31820  0.73707  0.04568  1.0000
  N   N1        1.0  0.95946  0.83976  0.82092  1.0000
  N   N2        1.0  0.54054  0.16024  0.32092  1.0000
  N   N3        1.0  0.04054  0.16024  0.17908  1.0000
  N   N4        1.0  0.45946  0.83976  0.67908  1.0000
  N   N5        1.0  0.92019  0.68442  0.82780  1.0000
  N   N6        1.0  0.57981  0.31558  0.32780  1.0000
  N   N7        1.0  0.07981  0.31558  0.17220  1.0000
  N   N8        1.0  0.42019  0.68442  0.67220  1.0000
  O   O1        1.0  0.75630  0.88970  0.42923  1.0000
  O   O2        1.0  0.74370  0.11030  0.92922  1.0000
  O   O3        1.0  0.24371  0.11030  0.57078  1.0000
  O   O4        1.0  0.25629  0.88970  0.07078  1.0000
  O   O5        1.0  0.97598  0.71977  0.36805  1.0000
  O   O6        1.0  0.52402  0.28023  0.86805  1.0000
  O   O7        1.0  0.02402  0.28023  0.63195  1.0000
  O   O8        1.0  0.47598  0.71977  0.13195  1.0000
  O   O9        1.0  0.67722  0.60744  0.44372  1.0000
  O   O10       1.0  0.82278  0.39256  0.94372  1.0000
  O   O11       1.0  0.32278  0.39256  0.55628  1.0000
  O   O12       1.0  0.17722  0.60745  0.05628  1.0000
  O   O13       1.0  0.84172  0.78745  0.11006  1.0000
  O   O14       1.0  0.65828  0.21255  0.61006  1.0000
  O   O15       1.0  0.15828  0.21255  0.88994  1.0000
  O   O16       1.0  0.34172  0.78745  0.38994  1.0000
