data_image0
_chemical_formula_structural       Hg2H8C10S10Cl4
_chemical_formula_sum              "Hg2 H8 C10 S10 Cl4"
_cell_length_a       8.24406
_cell_length_b       8.56229
_cell_length_c       9.77587
_cell_angle_alpha    102.337
_cell_angle_beta     100.608
_cell_angle_gamma    119.04

_space_group_name_H-M_alt    "P 1"
_space_group_IT_number       1

loop_
  _space_group_symop_operation_xyz
  'x, y, z'

loop_
  _atom_site_type_symbol
  _atom_site_label
  _atom_site_symmetry_multiplicity
  _atom_site_fract_x
  _atom_site_fract_y
  _atom_site_fract_z
  _atom_site_occupancy
  Hg  Hg1       1.0  0.96045  0.77968  0.06131  1.0000
  Hg  Hg2       1.0  0.03955  0.22032  0.93869  1.0000
  H   H1        1.0  0.69618  0.28307  0.07405  1.0000
  H   H2        1.0  0.30383  0.71694  0.92596  1.0000
  H   H3        1.0  0.90082  0.46960  0.23265  1.0000
  H   H4        1.0  0.09919  0.53041  0.76736  1.0000
  H   H5        1.0  0.71821  0.16280  0.28071  1.0000
  H   H6        1.0  0.28180  0.83720  0.71929  1.0000
  H   H7        1.0  0.49726  0.15936  0.23345  1.0000
  H   H8        1.0  0.50275  0.84064  0.76655  1.0000
  C   C1        1.0  0.73227  0.58738  0.47315  1.0000
  C   C2        1.0  0.26773  0.41261  0.52686  1.0000
  C   C3        1.0  0.69449  0.63879  0.35267  1.0000
  C   C4        1.0  0.30550  0.36121  0.64731  1.0000
  C   C5        1.0  0.77651  0.91462  0.58123  1.0000
  C   C6        1.0  0.22349  0.08538  0.41877  1.0000
  C   C7        1.0  0.73974  0.37513  0.18874  1.0000
  C   C8        1.0  0.26027  0.62487  0.81126  1.0000
  C   C9        1.0  0.65841  0.25306  0.28057  1.0000
  C   C10       1.0  0.34159  0.74694  0.71943  1.0000
  S   S1        1.0  0.63196  0.51264  0.16665  1.0000
  S   S2        1.0  0.36804  0.48736  0.83335  1.0000
  S   S3        1.0  0.73038  0.38441  0.47694  1.0000
  S   S4        1.0  0.26961  0.61559  0.52306  1.0000
  S   S5        1.0  0.71824  0.85781  0.39352  1.0000
  S   S6        1.0  0.28175  0.14219  0.60648  1.0000
  S   S7        1.0  0.79360  0.75091  0.64541  1.0000
  S   S8        1.0  0.20639  0.24909  0.35459  1.0000
  S   S9        1.0  0.80027  0.11509  0.68643  1.0000
  S   S10       1.0  0.19973  0.88491  0.31357  1.0000
  Cl  Cl1       1.0  0.78010  0.96047  0.05023  1.0000
  Cl  Cl2       1.0  0.21990  0.03953  0.94977  1.0000
  Cl  Cl3       1.0  0.78926  0.48140  0.84623  1.0000
  Cl  Cl4       1.0  0.21073  0.51860  0.15377  1.0000
