data_image0
_chemical_formula_structural       ZnH10C6S2N4O8
_chemical_formula_sum              "Zn1 H10 C6 S2 N4 O8"
_cell_length_a       7.06076
_cell_length_b       7.28849
_cell_length_c       7.32423
_cell_angle_alpha    63.0267
_cell_angle_beta     67.6458
_cell_angle_gamma    72.0691

_space_group_name_H-M_alt    "P 1"
_space_group_IT_number       1

loop_
  _space_group_symop_operation_xyz
  'x, y, z'

loop_
  _atom_site_type_symbol
  _atom_site_label
  _atom_site_symmetry_multiplicity
  _atom_site_fract_x
  _atom_site_fract_y
  _atom_site_fract_z
  _atom_site_occupancy
  Zn  Zn1       1.0  1.00000  0.00000  0.00000  1.0000
  H   H1        1.0  0.19804  0.32992  0.82705  1.0000
  H   H2        1.0  0.80196  0.67008  0.17295  1.0000
  H   H3        1.0  0.98597  0.39298  0.76063  1.0000
  H   H4        1.0  0.01403  0.60702  0.23937  1.0000
  H   H5        1.0  0.23820  0.28053  0.50371  1.0000
  H   H6        1.0  0.76180  0.71947  0.49629  1.0000
  H   H7        1.0  0.39677  0.17448  0.18606  1.0000
  H   H8        1.0  0.60323  0.82552  0.81394  1.0000
  H   H9        1.0  0.12484  0.67932  0.76697  1.0000
  H   H10       1.0  0.87515  0.32068  0.23303  1.0000
  C   C1        1.0  0.32127  0.07427  0.34565  1.0000
  C   C2        1.0  0.67873  0.92573  0.65435  1.0000
  C   C3        1.0  0.28445  0.87060  0.42536  1.0000
  C   C4        1.0  0.71555  0.12940  0.57464  1.0000
  C   C5        1.0  0.18231  0.82045  0.64460  1.0000
  C   C6        1.0  0.81769  0.17955  0.35540  1.0000
  S   S1        1.0  0.34289  0.72273  0.27174  1.0000
  S   S2        1.0  0.65711  0.27727  0.72826  1.0000
  N   N1        1.0  0.15773  0.98301  0.69523  1.0000
  N   N2        1.0  0.84227  0.01699  0.30477  1.0000
  N   N3        1.0  0.24450  0.13396  0.51211  1.0000
  N   N4        1.0  0.75550  0.86605  0.48789  1.0000
  O   O1        1.0  0.29927  0.87444  0.06795  1.0000
  O   O2        1.0  0.70072  0.12556  0.93205  1.0000
  O   O3        1.0  0.20104  0.56755  0.39196  1.0000
  O   O4        1.0  0.79897  0.43244  0.60805  1.0000
  O   O5        1.0  0.56128  0.62582  0.23835  1.0000
  O   O6        1.0  0.43872  0.37418  0.76165  1.0000
  O   O7        1.0  0.05008  0.31162  0.87864  1.0000
  O   O8        1.0  0.94992  0.68838  0.12136  1.0000
