data_image0
_chemical_formula_structural       Na4H20C12S4N8O16
_chemical_formula_sum              "Na4 H20 C12 S4 N8 O16"
_cell_length_a       7.07103
_cell_length_b       10.0426
_cell_length_c       10.3165
_cell_angle_alpha    115.801
_cell_angle_beta     90
_cell_angle_gamma    90

_space_group_name_H-M_alt    "P 1"
_space_group_IT_number       1

loop_
  _space_group_symop_operation_xyz
  'x, y, z'

loop_
  _atom_site_type_symbol
  _atom_site_label
  _atom_site_symmetry_multiplicity
  _atom_site_fract_x
  _atom_site_fract_y
  _atom_site_fract_z
  _atom_site_occupancy
  Na  Na1       1.0  0.48153  0.26610  0.50650  1.0000
  Na  Na2       1.0  0.98153  0.23390  0.49350  1.0000
  Na  Na3       1.0  0.51847  0.73390  0.49350  1.0000
  Na  Na4       1.0  0.01847  0.76610  0.50650  1.0000
  H   H1        1.0  0.74134  0.05827  0.23716  1.0000
  H   H2        1.0  0.24134  0.44173  0.76284  1.0000
  H   H3        1.0  0.25866  0.94173  0.76284  1.0000
  H   H4        1.0  0.75866  0.55827  0.23716  1.0000
  H   H5        1.0  0.66988  0.99604  0.34461  1.0000
  H   H6        1.0  0.16988  0.50396  0.65539  1.0000
  H   H7        1.0  0.33011  0.00396  0.65539  1.0000
  H   H8        1.0  0.83012  0.49604  0.34461  1.0000
  H   H9        1.0  0.03580  0.27348  0.82472  1.0000
  H   H10       1.0  0.53580  0.22652  0.17528  1.0000
  H   H11       1.0  0.96420  0.72652  0.17528  1.0000
  H   H12       1.0  0.46420  0.77348  0.82472  1.0000
  H   H13       1.0  0.98328  0.22706  0.04407  1.0000
  H   H14       1.0  0.48328  0.27294  0.95593  1.0000
  H   H15       1.0  0.01672  0.77294  0.95593  1.0000
  H   H16       1.0  0.51672  0.72706  0.04407  1.0000
  H   H17       1.0  0.39215  0.57649  0.12553  1.0000
  H   H18       1.0  0.89215  0.92351  0.87447  1.0000
  H   H19       1.0  0.60785  0.42351  0.87448  1.0000
  H   H20       1.0  0.10785  0.07649  0.12552  1.0000
  C   C1        1.0  0.08214  0.30748  0.04040  1.0000
  C   C2        1.0  0.58214  0.19252  0.95960  1.0000
  C   C3        1.0  0.91786  0.69252  0.95960  1.0000
  C   C4        1.0  0.41786  0.80748  0.04041  1.0000
  C   C5        1.0  0.19944  0.40821  0.14577  1.0000
  C   C6        1.0  0.69944  0.09180  0.85422  1.0000
  C   C7        1.0  0.80056  0.59180  0.85423  1.0000
  C   C8        1.0  0.30056  0.90821  0.14578  1.0000
  C   C9        1.0  0.28991  0.48768  0.07928  1.0000
  C   C10       1.0  0.78991  0.01232  0.92072  1.0000
  C   C11       1.0  0.71009  0.51232  0.92072  1.0000
  C   C12       1.0  0.21009  0.98768  0.07928  1.0000
  S   S1        1.0  0.22516  0.42152  0.31981  1.0000
  S   S2        1.0  0.72517  0.07848  0.68019  1.0000
  S   S3        1.0  0.77483  0.57848  0.68019  1.0000
  S   S4        1.0  0.27484  0.92152  0.31981  1.0000
  N   N1        1.0  0.23346  0.43740  0.94164  1.0000
  N   N2        1.0  0.73346  0.06260  0.05836  1.0000
  N   N3        1.0  0.76654  0.56260  0.05836  1.0000
  N   N4        1.0  0.26654  0.93740  0.94163  1.0000
  N   N5        1.0  0.10824  0.32778  0.92122  1.0000
  N   N6        1.0  0.60824  0.17222  0.07878  1.0000
  N   N7        1.0  0.89176  0.67222  0.07878  1.0000
  N   N8        1.0  0.39176  0.82778  0.92122  1.0000
  O   O1        1.0  0.39180  0.33241  0.31896  1.0000
  O   O2        1.0  0.89181  0.16759  0.68104  1.0000
  O   O3        1.0  0.60819  0.66759  0.68104  1.0000
  O   O4        1.0  0.10820  0.83241  0.31895  1.0000
  O   O5        1.0  0.25385  0.57884  0.41460  1.0000
  O   O6        1.0  0.75385  0.92116  0.58540  1.0000
  O   O7        1.0  0.74615  0.42116  0.58540  1.0000
  O   O8        1.0  0.24615  0.07884  0.41461  1.0000
  O   O9        1.0  0.04816  0.36030  0.34609  1.0000
  O   O10       1.0  0.54816  0.13970  0.65391  1.0000
  O   O11       1.0  0.95184  0.63970  0.65391  1.0000
  O   O12       1.0  0.45185  0.86030  0.34609  1.0000
  O   O13       1.0  0.72776  0.08322  0.34105  1.0000
  O   O14       1.0  0.22776  0.41678  0.65895  1.0000
  O   O15       1.0  0.27224  0.91678  0.65895  1.0000
  O   O16       1.0  0.77224  0.58322  0.34105  1.0000
