data_image0
_chemical_formula_structural       Ag4H12C12S4N8O12
_chemical_formula_sum              "Ag4 H12 C12 S4 N8 O12"
_cell_length_a       5.41287
_cell_length_b       7.66243
_cell_length_c       14.0542
_cell_angle_alpha    89.6436
_cell_angle_beta     90.0002
_cell_angle_gamma    90.0001

_space_group_name_H-M_alt    "P 1"
_space_group_IT_number       1

loop_
  _space_group_symop_operation_xyz
  'x, y, z'

loop_
  _atom_site_type_symbol
  _atom_site_label
  _atom_site_symmetry_multiplicity
  _atom_site_fract_x
  _atom_site_fract_y
  _atom_site_fract_z
  _atom_site_occupancy
  Ag  Ag1       1.0  0.00000  0.00000  0.00001  1.0000
  Ag  Ag2       1.0  0.50001  0.00001  0.50000  1.0000
  Ag  Ag3       1.0  0.50000  0.49999  0.50000  1.0000
  Ag  Ag4       1.0  0.99999  0.50000  1.00000  1.0000
  H   H1        1.0  0.59952  0.77545  0.91418  1.0000
  H   H2        1.0  0.09952  0.22455  0.58581  1.0000
  H   H3        1.0  0.40048  0.22456  0.08582  1.0000
  H   H4        1.0  0.90049  0.77544  0.41418  1.0000
  H   H5        1.0  0.55243  0.63245  0.74753  1.0000
  H   H6        1.0  0.05239  0.36756  0.75247  1.0000
  H   H7        1.0  0.44760  0.36758  0.25248  1.0000
  H   H8        1.0  0.94760  0.63242  0.24753  1.0000
  H   H9        1.0  0.24519  0.91276  0.78230  1.0000
  H   H10       1.0  0.74518  0.08724  0.71770  1.0000
  H   H11       1.0  0.75482  0.08724  0.21770  1.0000
  H   H12       1.0  0.25485  0.91278  0.28231  1.0000
  C   C1        1.0  0.70841  0.70958  0.77090  1.0000
  C   C2        1.0  0.20839  0.29042  0.72909  1.0000
  C   C3        1.0  0.29159  0.29043  0.22910  1.0000
  C   C4        1.0  0.79159  0.70958  0.27090  1.0000
  C   C5        1.0  0.92892  0.75152  0.72487  1.0000
  C   C6        1.0  0.42893  0.24847  0.77513  1.0000
  C   C7        1.0  0.07106  0.24847  0.27513  1.0000
  C   C8        1.0  0.57108  0.75153  0.22487  1.0000
  C   C9        1.0  0.06372  0.85430  0.78943  1.0000
  C   C10       1.0  0.56370  0.14568  0.71056  1.0000
  C   C11       1.0  0.93629  0.14568  0.21056  1.0000
  C   C12       1.0  0.43632  0.85434  0.28943  1.0000
  S   S1        1.0  0.01530  0.67696  0.61177  1.0000
  S   S2        1.0  0.51531  0.32305  0.88825  1.0000
  S   S3        1.0  0.98468  0.32306  0.38825  1.0000
  S   S4        1.0  0.48469  0.67696  0.11176  1.0000
  N   N1        1.0  0.93263  0.87368  0.86967  1.0000
  N   N2        1.0  0.43264  0.12630  0.63031  1.0000
  N   N3        1.0  0.06735  0.12630  0.13031  1.0000
  N   N4        1.0  0.56739  0.87369  0.36968  1.0000
  N   N5        1.0  0.71773  0.78584  0.85666  1.0000
  N   N6        1.0  0.21774  0.21414  0.64333  1.0000
  N   N7        1.0  0.28224  0.21415  0.14334  1.0000
  N   N8        1.0  0.78226  0.78584  0.35665  1.0000
  O   O1        1.0  0.28428  0.64573  0.61999  1.0000
  O   O2        1.0  0.78432  0.35427  0.87999  1.0000
  O   O3        1.0  0.71566  0.35428  0.38000  1.0000
  O   O4        1.0  0.21570  0.64574  0.12001  1.0000
  O   O5        1.0  0.87111  0.51595  0.59879  1.0000
  O   O6        1.0  0.37108  0.48408  0.90120  1.0000
  O   O7        1.0  0.12893  0.48409  0.40120  1.0000
  O   O8        1.0  0.62890  0.51593  0.09880  1.0000
  O   O9        1.0  0.95701  0.81489  0.54221  1.0000
  O   O10       1.0  0.45698  0.18509  0.95780  1.0000
  O   O11       1.0  0.04301  0.18507  0.45780  1.0000
  O   O12       1.0  0.54300  0.81490  0.04221  1.0000
