data_image0
_chemical_formula_structural       Mg4H36C16N4O24
_chemical_formula_sum              "Mg4 H36 C16 N4 O24"
_cell_length_a       6.11705
_cell_length_b       8.70634
_cell_length_c       14.8827
_cell_angle_alpha    89.999
_cell_angle_beta     89.9991
_cell_angle_gamma    89.9991

_space_group_name_H-M_alt    "P 1"
_space_group_IT_number       1

loop_
  _space_group_symop_operation_xyz
  'x, y, z'

loop_
  _atom_site_type_symbol
  _atom_site_label
  _atom_site_symmetry_multiplicity
  _atom_site_fract_x
  _atom_site_fract_y
  _atom_site_fract_z
  _atom_site_occupancy
  Mg  Mg1       1.0  0.38284  0.14106  0.88452  1.0000
  Mg  Mg2       1.0  0.88283  0.35893  0.11547  1.0000
  Mg  Mg3       1.0  0.61713  0.64105  0.61548  1.0000
  Mg  Mg4       1.0  0.11714  0.85893  0.38453  1.0000
  H   H1        1.0  0.40860  0.85840  0.80294  1.0000
  H   H2        1.0  0.90860  0.64159  0.19705  1.0000
  H   H3        1.0  0.59144  0.35841  0.69705  1.0000
  H   H4        1.0  0.09140  0.14159  0.30295  1.0000
  H   H5        1.0  0.18154  0.85433  0.86108  1.0000
  H   H6        1.0  0.68151  0.64566  0.13892  1.0000
  H   H7        1.0  0.81852  0.35433  0.63893  1.0000
  H   H8        1.0  0.31847  0.14566  0.36108  1.0000
  H   H9        1.0  0.14707  0.89254  0.69217  1.0000
  H   H10       1.0  0.64706  0.60746  0.30782  1.0000
  H   H11       1.0  0.85297  0.39253  0.80783  1.0000
  H   H12       1.0  0.35292  0.10747  0.19218  1.0000
  H   H13       1.0  0.83054  0.07256  0.71599  1.0000
  H   H14       1.0  0.33054  0.42743  0.28400  1.0000
  H   H15       1.0  0.16944  0.57256  0.78401  1.0000
  H   H16       1.0  0.66944  0.92744  0.21600  1.0000
  H   H17       1.0  0.82539  0.90643  0.78186  1.0000
  H   H18       1.0  0.32537  0.59358  0.21813  1.0000
  H   H19       1.0  0.17466  0.40644  0.71814  1.0000
  H   H20       1.0  0.67461  0.09357  0.28186  1.0000
  H   H21       1.0  0.32435  0.38926  0.98142  1.0000
  H   H22       1.0  0.82437  0.11073  0.01858  1.0000
  H   H23       1.0  0.67564  0.88926  0.51858  1.0000
  H   H24       1.0  0.17565  0.61073  0.48142  1.0000
  H   H25       1.0  0.56881  0.38993  0.94950  1.0000
  H   H26       1.0  0.06882  0.11007  0.05050  1.0000
  H   H27       1.0  0.43118  0.88993  0.55050  1.0000
  H   H28       1.0  0.93119  0.61007  0.44950  1.0000
  H   H29       1.0  0.35364  0.97589  0.05620  1.0000
  H   H30       1.0  0.85362  0.52411  0.94379  1.0000
  H   H31       1.0  0.64637  0.47590  0.44379  1.0000
  H   H32       1.0  0.14636  0.02411  0.55621  1.0000
  H   H33       1.0  0.42933  0.15459  0.05617  1.0000
  H   H34       1.0  0.92933  0.34542  0.94382  1.0000
  H   H35       1.0  0.57067  0.65459  0.44382  1.0000
  H   H36       1.0  0.07067  0.84541  0.55618  1.0000
  C   C1        1.0  0.26120  0.12302  0.70176  1.0000
  C   C2        1.0  0.76120  0.37699  0.29824  1.0000
  C   C3        1.0  0.73879  0.62301  0.79824  1.0000
  C   C4        1.0  0.23878  0.87698  0.20177  1.0000
  C   C5        1.0  0.15330  0.98042  0.74487  1.0000
  C   C6        1.0  0.65332  0.51959  0.25512  1.0000
  C   C7        1.0  0.84671  0.48040  0.75513  1.0000
  C   C8        1.0  0.34668  0.01960  0.24488  1.0000
  C   C9        1.0  0.91564  0.01380  0.77145  1.0000
  C   C10       1.0  0.41565  0.48622  0.22854  1.0000
  C   C11       1.0  0.08436  0.51379  0.72855  1.0000
  C   C12       1.0  0.58434  0.98622  0.27146  1.0000
  C   C13       1.0  0.88950  0.11125  0.85486  1.0000
  C   C14       1.0  0.38946  0.38875  0.14514  1.0000
  C   C15       1.0  0.11048  0.61126  0.64515  1.0000
  C   C16       1.0  0.61049  0.88875  0.35486  1.0000
  N   N1        1.0  0.27878  0.92568  0.82369  1.0000
  N   N2        1.0  0.77880  0.57432  0.17630  1.0000
  N   N3        1.0  0.72125  0.42568  0.67630  1.0000
  N   N4        1.0  0.22120  0.07431  0.32370  1.0000
  O   O1        1.0  0.19821  0.16182  0.62417  1.0000
  O   O2        1.0  0.69818  0.33818  0.37581  1.0000
  O   O3        1.0  0.80183  0.66181  0.87583  1.0000
  O   O4        1.0  0.30182  0.83820  0.12418  1.0000
  O   O5        1.0  0.40305  0.19577  0.74859  1.0000
  O   O6        1.0  0.90304  0.30426  0.25141  1.0000
  O   O7        1.0  0.59697  0.69575  0.75141  1.0000
  O   O8        1.0  0.09696  0.80425  0.24859  1.0000
  O   O9        1.0  0.04809  0.19538  0.88173  1.0000
  O   O10       1.0  0.54806  0.30462  0.11829  1.0000
  O   O11       1.0  0.95193  0.69539  0.61829  1.0000
  O   O12       1.0  0.45192  0.80462  0.38171  1.0000
  O   O13       1.0  0.70939  0.10816  0.89719  1.0000
  O   O14       1.0  0.20933  0.39185  0.10282  1.0000
  O   O15       1.0  0.29062  0.60812  0.60281  1.0000
  O   O16       1.0  0.79063  0.89186  0.39718  1.0000
  O   O17       1.0  0.41738  0.36772  0.92876  1.0000
  O   O18       1.0  0.91742  0.13227  0.07124  1.0000
  O   O19       1.0  0.58260  0.86772  0.57124  1.0000
  O   O20       1.0  0.08261  0.63227  0.42876  1.0000
  O   O21       1.0  0.34893  0.07572  0.02028  1.0000
  O   O22       1.0  0.84889  0.42427  0.97971  1.0000
  O   O23       1.0  0.65111  0.57573  0.47971  1.0000
  O   O24       1.0  0.15111  0.92427  0.52029  1.0000
