data_image0
_chemical_formula_structural       NiH46C44N4O10
_chemical_formula_sum              "Ni1 H46 C44 N4 O10"
_cell_length_a       7.65336
_cell_length_b       10.0875
_cell_length_c       12.86
_cell_angle_alpha    92.7116
_cell_angle_beta     100.028
_cell_angle_gamma    93.82

_space_group_name_H-M_alt    "P 1"
_space_group_IT_number       1

loop_
  _space_group_symop_operation_xyz
  'x, y, z'

loop_
  _atom_site_type_symbol
  _atom_site_label
  _atom_site_symmetry_multiplicity
  _atom_site_fract_x
  _atom_site_fract_y
  _atom_site_fract_z
  _atom_site_occupancy
  Ni  Ni1       1.0  1.00000  1.00000  0.00000  1.0000
  H   H1        1.0  0.28202  0.75027  0.41416  1.0000
  H   H2        1.0  0.71798  0.24973  0.58584  1.0000
  H   H3        1.0  0.10578  0.11366  0.80587  1.0000
  H   H4        1.0  0.89422  0.88634  0.19414  1.0000
  H   H5        1.0  0.11315  0.96177  0.82388  1.0000
  H   H6        1.0  0.88684  0.03822  0.17612  1.0000
  H   H7        1.0  0.17768  0.40932  0.29834  1.0000
  H   H8        1.0  0.82232  0.59069  0.70166  1.0000
  H   H9        1.0  0.44369  0.55302  0.38286  1.0000
  H   H10       1.0  0.55631  0.44698  0.61714  1.0000
  H   H11       1.0  0.78125  0.28518  0.25603  1.0000
  H   H12       1.0  0.21874  0.71481  0.74397  1.0000
  H   H13       1.0  0.51377  0.14576  0.16683  1.0000
  H   H14       1.0  0.48622  0.85424  0.83317  1.0000
  H   H15       1.0  0.76763  0.58003  0.44121  1.0000
  H   H16       1.0  0.23237  0.41996  0.55878  1.0000
  H   H17       1.0  0.90541  0.46148  0.40164  1.0000
  H   H18       1.0  0.09458  0.53851  0.59836  1.0000
  H   H19       1.0  0.86405  0.55276  0.21920  1.0000
  H   H20       1.0  0.13596  0.44724  0.78080  1.0000
  H   H21       1.0  0.73777  0.67688  0.26230  1.0000
  H   H22       1.0  0.26223  0.32312  0.73771  1.0000
  H   H23       1.0  0.37386  0.98568  0.02902  1.0000
  H   H24       1.0  0.62614  0.01432  0.97098  1.0000
  H   H25       1.0  0.59075  0.81134  0.04836  1.0000
  H   H26       1.0  0.40925  0.18866  0.95165  1.0000
  H   H27       1.0  0.14744  0.52511  0.05557  1.0000
  H   H28       1.0  0.85257  0.47489  0.94443  1.0000
  H   H29       1.0  0.94997  0.71326  0.03584  1.0000
  H   H30       1.0  0.05003  0.28674  0.96417  1.0000
  H   H31       1.0  0.64832  0.58362  0.07553  1.0000
  H   H32       1.0  0.35169  0.41639  0.92446  1.0000
  H   H33       1.0  0.48633  0.47308  0.11500  1.0000
  H   H34       1.0  0.51368  0.52692  0.88500  1.0000
  H   H35       1.0  0.36252  0.86390  0.26878  1.0000
  H   H36       1.0  0.63748  0.13611  0.73122  1.0000
  H   H37       1.0  0.66861  0.98192  0.27955  1.0000
  H   H38       1.0  0.33139  0.01809  0.72045  1.0000
  H   H39       1.0  0.78868  0.87042  0.60406  1.0000
  H   H40       1.0  0.21132  0.12958  0.39594  1.0000
  H   H41       1.0  0.48263  0.75701  0.57724  1.0000
  H   H42       1.0  0.51737  0.24299  0.42276  1.0000
  H   H43       1.0  0.97625  0.00154  0.37814  1.0000
  H   H44       1.0  0.02375  0.99846  0.62186  1.0000
  H   H45       1.0  0.90851  0.12427  0.46109  1.0000
  H   H46       1.0  0.09150  0.87574  0.53891  1.0000
  C   C1        1.0  0.16474  0.18336  0.17437  1.0000
  C   C2        1.0  0.83525  0.81664  0.82563  1.0000
  C   C3        1.0  0.32759  0.26945  0.22496  1.0000
  C   C4        1.0  0.67241  0.73056  0.77505  1.0000
  C   C5        1.0  0.30968  0.38405  0.28709  1.0000
  C   C6        1.0  0.69032  0.61596  0.71291  1.0000
  C   C7        1.0  0.46017  0.46418  0.33513  1.0000
  C   C8        1.0  0.53983  0.53582  0.66487  1.0000
  C   C9        1.0  0.63176  0.43082  0.32473  1.0000
  C   C10       1.0  0.36824  0.56918  0.67526  1.0000
  C   C11       1.0  0.64901  0.31428  0.26416  1.0000
  C   C12       1.0  0.35098  0.68572  0.73584  1.0000
  C   C13       1.0  0.49863  0.23549  0.21391  1.0000
  C   C14       1.0  0.50136  0.76452  0.78609  1.0000
  C   C15       1.0  0.79357  0.52051  0.37242  1.0000
  C   C16       1.0  0.20644  0.47949  0.62757  1.0000
  C   C17       1.0  0.84556  0.61307  0.28984  1.0000
  C   C18       1.0  0.15445  0.38693  0.71016  1.0000
  C   C19       1.0  0.01696  0.70123  0.32425  1.0000
  C   C20       1.0  0.98305  0.29877  0.67575  1.0000
  C   C21       1.0  0.33083  0.88179  0.03407  1.0000
  C   C22       1.0  0.66916  0.11821  0.96593  1.0000
  C   C23       1.0  0.44953  0.78303  0.04418  1.0000
  C   C24       1.0  0.55047  0.21697  0.95582  1.0000
  C   C25       1.0  0.38673  0.65045  0.04903  1.0000
  C   C26       1.0  0.61327  0.34955  0.95097  1.0000
  C   C27       1.0  0.20380  0.62553  0.04765  1.0000
  C   C28       1.0  0.79621  0.37447  0.95235  1.0000
  C   C29       1.0  0.09248  0.72923  0.03745  1.0000
  C   C30       1.0  0.90752  0.27076  0.96255  1.0000
  C   C31       1.0  0.51049  0.54054  0.05355  1.0000
  C   C32       1.0  0.48952  0.45947  0.94645  1.0000
  C   C33       1.0  0.46455  0.87009  0.33981  1.0000
  C   C34       1.0  0.53545  0.12991  0.66019  1.0000
  C   C35       1.0  0.63045  0.93702  0.34856  1.0000
  C   C36       1.0  0.36955  0.06298  0.65143  1.0000
  C   C37       1.0  0.70033  0.87352  0.52819  1.0000
  C   C38       1.0  0.29967  0.12647  0.47181  1.0000
  C   C39       1.0  0.53156  0.80920  0.51480  1.0000
  C   C40       1.0  0.46844  0.19080  0.48520  1.0000
  C   C41       1.0  0.75248  0.94061  0.44434  1.0000
  C   C42       1.0  0.24752  0.05939  0.55566  1.0000
  C   C43       1.0  0.93007  0.01720  0.45374  1.0000
  C   C44       1.0  0.06993  0.98280  0.54626  1.0000
  N   N1        1.0  0.15417  0.85597  0.02857  1.0000
  N   N2        1.0  0.84583  0.14402  0.97144  1.0000
  N   N3        1.0  0.41818  0.80836  0.42258  1.0000
  N   N4        1.0  0.58183  0.19164  0.57743  1.0000
  O   O1        1.0  0.18092  0.11964  0.08692  1.0000
  O   O2        1.0  0.81907  0.88036  0.91308  1.0000
  O   O3        1.0  0.02920  0.17875  0.21738  1.0000
  O   O4        1.0  0.97079  0.82125  0.78262  1.0000
  O   O5        1.0  0.04766  0.79841  0.26984  1.0000
  O   O6        1.0  0.95235  0.20159  0.73017  1.0000
  O   O7        1.0  0.12479  0.66915  0.40583  1.0000
  O   O8        1.0  0.87521  0.33085  0.59417  1.0000
  O   O9        1.0  0.18305  0.04886  0.84378  1.0000
  O   O10       1.0  0.81695  0.95113  0.15622  1.0000
