data_image0
_chemical_formula_structural       ZnH16C14N2O8
_chemical_formula_sum              "Zn1 H16 C14 N2 O8"
_cell_length_a       5.35123
_cell_length_b       7.10025
_cell_length_c       9.90561
_cell_angle_alpha    86.4205
_cell_angle_beta     85.1808
_cell_angle_gamma    74.8241

_space_group_name_H-M_alt    "P 1"
_space_group_IT_number       1

loop_
  _space_group_symop_operation_xyz
  'x, y, z'

loop_
  _atom_site_type_symbol
  _atom_site_label
  _atom_site_symmetry_multiplicity
  _atom_site_fract_x
  _atom_site_fract_y
  _atom_site_fract_z
  _atom_site_occupancy
  Zn  Zn1       1.0  0.99991  0.99988  0.00002  1.0000
  H   H1        1.0  0.52846  0.18154  0.75164  1.0000
  H   H2        1.0  0.47156  0.81846  0.24835  1.0000
  H   H3        1.0  0.43344  0.30405  0.51368  1.0000
  H   H4        1.0  0.56655  0.69596  0.48633  1.0000
  H   H5        1.0  0.66814  0.62098  0.67441  1.0000
  H   H6        1.0  0.33189  0.37901  0.32559  1.0000
  H   H7        1.0  0.79780  0.48118  0.90291  1.0000
  H   H8        1.0  0.20219  0.51876  0.09708  1.0000
  H   H9        1.0  0.82440  0.17786  0.57038  1.0000
  H   H10       1.0  0.17551  0.82218  0.42961  1.0000
  H   H11       1.0  0.65685  0.20703  0.14879  1.0000
  H   H12       1.0  0.34317  0.79293  0.85123  1.0000
  H   H13       1.0  0.50054  0.21363  0.01163  1.0000
  H   H14       1.0  0.49947  0.78641  0.98838  1.0000
  H   H15       1.0  0.74655  0.95488  0.56211  1.0000
  H   H16       1.0  0.25345  0.04513  0.43786  1.0000
  C   C1        1.0  0.34350  0.28008  0.72520  1.0000
  C   C2        1.0  0.65653  0.71993  0.27479  1.0000
  C   C3        1.0  0.28413  0.35026  0.59542  1.0000
  C   C4        1.0  0.71588  0.64972  0.40457  1.0000
  C   C5        1.0  0.03629  0.46917  0.56944  1.0000
  C   C6        1.0  0.96374  0.53081  0.43057  1.0000
  C   C7        1.0  0.86111  0.52363  0.68322  1.0000
  C   C8        1.0  0.13891  0.47635  0.31678  1.0000
  C   C9        1.0  0.92599  0.45115  0.81157  1.0000
  C   C10       1.0  0.07401  0.54883  0.18843  1.0000
  C   C11       1.0  0.04067  0.94962  0.69562  1.0000
  C   C12       1.0  0.95934  0.05043  0.30439  1.0000
  C   C13       1.0  0.91140  0.02039  0.56389  1.0000
  C   C14       1.0  0.08858  0.97966  0.43610  1.0000
  N   N1        1.0  0.16142  0.32532  0.83056  1.0000
  N   N2        1.0  0.83861  0.67469  0.16943  1.0000
  O   O1        1.0  0.20833  0.23950  0.95189  1.0000
  O   O2        1.0  0.79171  0.76058  0.04813  1.0000
  O   O3        1.0  0.89631  0.00835  0.80313  1.0000
  O   O4        1.0  0.10367  0.99173  0.19687  1.0000
  O   O5        1.0  0.27144  0.84333  0.69317  1.0000
  O   O6        1.0  0.72851  0.15666  0.30683  1.0000
  O   O7        1.0  0.66699  0.22182  0.04650  1.0000
  O   O8        1.0  0.33306  0.77812  0.95352  1.0000
