data_image0
_chemical_formula_structural       MnH16C14N2O8
_chemical_formula_sum              "Mn1 H16 C14 N2 O8"
_cell_length_a       5.31637
_cell_length_b       7.14555
_cell_length_c       9.97791
_cell_angle_alpha    86.3944
_cell_angle_beta     85.3064
_cell_angle_gamma    75.2387

_space_group_name_H-M_alt    "P 1"
_space_group_IT_number       1

loop_
  _space_group_symop_operation_xyz
  'x, y, z'

loop_
  _atom_site_type_symbol
  _atom_site_label
  _atom_site_symmetry_multiplicity
  _atom_site_fract_x
  _atom_site_fract_y
  _atom_site_fract_z
  _atom_site_occupancy
  Mn  Mn1       1.0  0.00000  1.00000  1.00000  1.0000
  H   H1        1.0  0.21500  0.52162  0.10162  1.0000
  H   H2        1.0  0.78500  0.47837  0.89838  1.0000
  H   H3        1.0  0.33623  0.38013  0.32906  1.0000
  H   H4        1.0  0.66378  0.61987  0.67094  1.0000
  H   H5        1.0  0.56661  0.69587  0.48343  1.0000
  H   H6        1.0  0.43340  0.30412  0.51657  1.0000
  H   H7        1.0  0.48038  0.82195  0.24748  1.0000
  H   H8        1.0  0.51963  0.17805  0.75252  1.0000
  H   H9        1.0  0.35684  0.78798  0.84757  1.0000
  H   H10       1.0  0.64316  0.21202  0.15244  1.0000
  H   H11       1.0  0.52129  0.78039  0.98103  1.0000
  H   H12       1.0  0.47871  0.21961  0.01897  1.0000
  H   H13       1.0  0.25534  0.04535  0.43901  1.0000
  H   H14       1.0  0.74466  0.95465  0.56099  1.0000
  H   H15       1.0  0.17331  0.82555  0.42743  1.0000
  H   H16       1.0  0.82669  0.17445  0.57257  1.0000
  C   C1        1.0  0.08343  0.55093  0.19128  1.0000
  C   C2        1.0  0.91657  0.44906  0.80872  1.0000
  C   C3        1.0  0.14398  0.47757  0.31889  1.0000
  C   C4        1.0  0.85601  0.52243  0.68110  1.0000
  C   C5        1.0  0.96559  0.53112  0.43101  1.0000
  C   C6        1.0  0.03442  0.46887  0.56899  1.0000
  C   C7        1.0  0.71862  0.65088  0.40342  1.0000
  C   C8        1.0  0.28137  0.34912  0.59659  1.0000
  C   C9        1.0  0.66373  0.72263  0.27458  1.0000
  C   C10       1.0  0.33627  0.27737  0.72542  1.0000
  C   C11       1.0  0.95717  0.05600  0.30659  1.0000
  C   C12       1.0  0.04284  0.94400  0.69341  1.0000
  C   C13       1.0  0.08803  0.98141  0.43622  1.0000
  C   C14       1.0  0.91197  0.01859  0.56378  1.0000
  N   N1        1.0  0.84893  0.67720  0.17116  1.0000
  N   N2        1.0  0.15107  0.32280  0.82884  1.0000
  O   O1        1.0  0.80776  0.76545  0.05053  1.0000
  O   O2        1.0  0.19224  0.23455  0.94947  1.0000
  O   O3        1.0  0.10026  0.00228  0.19843  1.0000
  O   O4        1.0  0.89974  0.99772  0.80157  1.0000
  O   O5        1.0  0.72584  0.16076  0.31014  1.0000
  O   O6        1.0  0.27416  0.83924  0.68986  1.0000
  O   O7        1.0  0.35222  0.77249  0.94882  1.0000
  O   O8        1.0  0.64778  0.22751  0.05118  1.0000
