data_image0
_chemical_formula_structural       Zn4H64C48N16Cl8
_chemical_formula_sum              "Zn4 H64 C48 N16 Cl8"
_cell_length_a       9.30943
_cell_length_b       12.4715
_cell_length_c       14.1959
_cell_angle_alpha    112.611
_cell_angle_beta     90
_cell_angle_gamma    90

_space_group_name_H-M_alt    "P 1"
_space_group_IT_number       1

loop_
  _space_group_symop_operation_xyz
  'x, y, z'

loop_
  _atom_site_type_symbol
  _atom_site_label
  _atom_site_symmetry_multiplicity
  _atom_site_fract_x
  _atom_site_fract_y
  _atom_site_fract_z
  _atom_site_occupancy
  Zn  Zn1       1.0  0.37682  0.78269  0.53891  1.0000
  Zn  Zn2       1.0  0.87682  0.71731  0.96109  1.0000
  Zn  Zn3       1.0  0.62318  0.21731  0.46109  1.0000
  Zn  Zn4       1.0  0.12318  0.28269  0.03891  1.0000
  H   H1        1.0  0.59687  0.93327  0.49450  1.0000
  H   H2        1.0  0.09687  0.56673  0.00550  1.0000
  H   H3        1.0  0.40313  0.06673  0.50550  1.0000
  H   H4        1.0  0.90313  0.43327  0.99450  1.0000
  H   H5        1.0  0.81928  0.90740  0.39323  1.0000
  H   H6        1.0  0.31928  0.59260  0.10677  1.0000
  H   H7        1.0  0.18072  0.09260  0.60677  1.0000
  H   H8        1.0  0.68072  0.40741  0.89323  1.0000
  H   H9        1.0  0.79229  0.53922  0.33055  1.0000
  H   H10       1.0  0.29229  0.96078  0.16945  1.0000
  H   H11       1.0  0.20771  0.46078  0.66945  1.0000
  H   H12       1.0  0.70771  0.03922  0.83054  1.0000
  H   H13       1.0  0.56901  0.58015  0.43322  1.0000
  H   H14       1.0  0.06901  0.91984  0.06678  1.0000
  H   H15       1.0  0.43099  0.41984  0.56678  1.0000
  H   H16       1.0  0.93099  0.08016  0.93322  1.0000
  H   H17       1.0  0.92303  0.70236  0.20929  1.0000
  H   H18       1.0  0.42303  0.79764  0.29070  1.0000
  H   H19       1.0  0.07697  0.29764  0.79070  1.0000
  H   H20       1.0  0.57697  0.20236  0.70929  1.0000
  H   H21       1.0  0.03381  0.77135  0.32031  1.0000
  H   H22       1.0  0.53381  0.72865  0.17968  1.0000
  H   H23       1.0  0.96619  0.22865  0.67969  1.0000
  H   H24       1.0  0.46619  0.27135  0.82031  1.0000
  H   H25       1.0  0.10884  0.60823  0.41005  1.0000
  H   H26       1.0  0.60884  0.89177  0.08995  1.0000
  H   H27       1.0  0.89116  0.39177  0.58995  1.0000
  H   H28       1.0  0.39116  0.10823  0.91005  1.0000
  H   H29       1.0  0.25145  0.39434  0.37893  1.0000
  H   H30       1.0  0.75145  0.10566  0.12107  1.0000
  H   H31       1.0  0.74855  0.60566  0.62107  1.0000
  H   H32       1.0  0.24855  0.89434  0.87893  1.0000
  H   H33       1.0  0.27793  0.30176  0.24899  1.0000
  H   H34       1.0  0.77793  0.19824  0.25101  1.0000
  H   H35       1.0  0.72207  0.69824  0.75101  1.0000
  H   H36       1.0  0.22207  0.80176  0.74899  1.0000
  H   H37       1.0  0.00060  0.31262  0.37014  1.0000
  H   H38       1.0  0.50060  0.18737  0.12987  1.0000
  H   H39       1.0  0.99940  0.68737  0.62987  1.0000
  H   H40       1.0  0.49940  0.81262  0.87014  1.0000
  H   H41       1.0  0.02719  0.22648  0.23931  1.0000
  H   H42       1.0  0.52719  0.27352  0.26070  1.0000
  H   H43       1.0  0.97281  0.77352  0.76069  1.0000
  H   H44       1.0  0.47281  0.72648  0.73931  1.0000
  H   H45       1.0  0.19765  0.20663  0.41617  1.0000
  H   H46       1.0  0.69765  0.29337  0.08383  1.0000
  H   H47       1.0  0.80235  0.79337  0.58383  1.0000
  H   H48       1.0  0.30235  0.70663  0.91617  1.0000
  H   H49       1.0  0.23634  0.12819  0.28653  1.0000
  H   H50       1.0  0.73634  0.37180  0.21347  1.0000
  H   H51       1.0  0.76366  0.87180  0.71347  1.0000
  H   H52       1.0  0.26367  0.62820  0.78653  1.0000
  H   H53       1.0  0.95399  0.11344  0.39534  1.0000
  H   H54       1.0  0.45399  0.38656  0.10466  1.0000
  H   H55       1.0  0.04601  0.88656  0.60466  1.0000
  H   H56       1.0  0.54601  0.61344  0.89534  1.0000
  H   H57       1.0  0.09172  0.00724  0.35678  1.0000
  H   H58       1.0  0.59172  0.49276  0.14322  1.0000
  H   H59       1.0  0.90828  0.99276  0.64322  1.0000
  H   H60       1.0  0.40828  0.50724  0.85678  1.0000
  H   H61       1.0  0.98861  0.03559  0.26316  1.0000
  H   H62       1.0  0.48861  0.46441  0.23684  1.0000
  H   H63       1.0  0.01139  0.96441  0.73684  1.0000
  H   H64       1.0  0.51139  0.53559  0.76316  1.0000
  C   C1        1.0  0.64171  0.84697  0.45496  1.0000
  C   C2        1.0  0.14171  0.65303  0.04504  1.0000
  C   C3        1.0  0.35829  0.15303  0.54504  1.0000
  C   C4        1.0  0.85828  0.34697  0.95496  1.0000
  C   C5        1.0  0.76686  0.83151  0.39807  1.0000
  C   C6        1.0  0.26686  0.66849  0.10193  1.0000
  C   C7        1.0  0.23314  0.16849  0.60193  1.0000
  C   C8        1.0  0.73314  0.33151  0.89807  1.0000
  C   C9        1.0  0.82341  0.71966  0.34999  1.0000
  C   C10       1.0  0.32341  0.78034  0.15001  1.0000
  C   C11       1.0  0.17659  0.28034  0.65001  1.0000
  C   C12       1.0  0.67659  0.21966  0.84999  1.0000
  C   C13       1.0  0.75231  0.62794  0.36373  1.0000
  C   C14       1.0  0.25231  0.87206  0.13627  1.0000
  C   C15       1.0  0.24769  0.37206  0.63627  1.0000
  C   C16       1.0  0.74769  0.12794  0.86373  1.0000
  C   C17       1.0  0.62711  0.64985  0.42126  1.0000
  C   C18       1.0  0.12711  0.85015  0.07874  1.0000
  C   C19       1.0  0.37289  0.35015  0.57874  1.0000
  C   C20       1.0  0.87289  0.14985  0.92126  1.0000
  C   C21       1.0  0.95500  0.70205  0.28392  1.0000
  C   C22       1.0  0.45500  0.79795  0.21608  1.0000
  C   C23       1.0  0.04500  0.29795  0.71608  1.0000
  C   C24       1.0  0.54500  0.20205  0.78392  1.0000
  C   C25       1.0  0.09179  0.55374  0.33038  1.0000
  C   C26       1.0  0.59179  0.94626  0.16962  1.0000
  C   C27       1.0  0.90821  0.44626  0.66962  1.0000
  C   C28       1.0  0.40821  0.05374  0.83038  1.0000
  C   C29       1.0  0.13147  0.44017  0.27346  1.0000
  C   C30       1.0  0.63147  0.05983  0.22654  1.0000
  C   C31       1.0  0.86853  0.55983  0.72654  1.0000
  C   C32       1.0  0.36853  0.94017  0.77346  1.0000
  C   C33       1.0  0.19669  0.35065  0.30542  1.0000
  C   C34       1.0  0.69669  0.14935  0.19459  1.0000
  C   C35       1.0  0.80331  0.64935  0.69459  1.0000
  C   C36       1.0  0.30331  0.85065  0.80542  1.0000
  C   C37       1.0  0.08259  0.26518  0.31334  1.0000
  C   C38       1.0  0.58259  0.23482  0.18666  1.0000
  C   C39       1.0  0.91741  0.73482  0.68666  1.0000
  C   C40       1.0  0.41741  0.76518  0.81334  1.0000
  C   C41       1.0  0.14797  0.16848  0.34024  1.0000
  C   C42       1.0  0.64797  0.33152  0.15976  1.0000
  C   C43       1.0  0.85203  0.83152  0.65976  1.0000
  C   C44       1.0  0.35203  0.66848  0.84024  1.0000
  C   C45       1.0  0.03945  0.07605  0.33866  1.0000
  C   C46       1.0  0.53944  0.42395  0.16134  1.0000
  C   C47       1.0  0.96056  0.92395  0.66134  1.0000
  C   C48       1.0  0.46056  0.57605  0.83866  1.0000
  N   N1        1.0  0.57173  0.75747  0.46551  1.0000
  N   N2        1.0  0.07173  0.74253  0.03449  1.0000
  N   N3        1.0  0.42827  0.24253  0.53449  1.0000
  N   N4        1.0  0.92827  0.25747  0.96551  1.0000
  N   N5        1.0  0.02482  0.59100  0.26338  1.0000
  N   N6        1.0  0.52482  0.90900  0.23662  1.0000
  N   N7        1.0  0.97518  0.40900  0.73662  1.0000
  N   N8        1.0  0.47518  0.09100  0.76338  1.0000
  N   N9        1.0  0.02112  0.50841  0.16944  1.0000
  N   N10       1.0  0.52112  0.99159  0.33056  1.0000
  N   N11       1.0  0.97888  0.49159  0.83056  1.0000
  N   N12       1.0  0.47888  0.00841  0.66944  1.0000
  N   N13       1.0  0.08681  0.41727  0.17558  1.0000
  N   N14       1.0  0.58681  0.08273  0.32442  1.0000
  N   N15       1.0  0.91319  0.58273  0.82442  1.0000
  N   N16       1.0  0.41319  0.91727  0.67558  1.0000
  Cl  Cl1       1.0  0.23718  0.85220  0.44491  1.0000
  Cl  Cl2       1.0  0.73718  0.64780  0.05509  1.0000
  Cl  Cl3       1.0  0.76282  0.14780  0.55509  1.0000
  Cl  Cl4       1.0  0.26282  0.35220  0.94491  1.0000
  Cl  Cl5       1.0  0.30486  0.61791  0.55104  1.0000
  Cl  Cl6       1.0  0.80486  0.88209  0.94896  1.0000
  Cl  Cl7       1.0  0.69514  0.38209  0.44896  1.0000
  Cl  Cl8       1.0  0.19514  0.11791  0.05104  1.0000
