data_image0
_chemical_formula_structural       Zn4H64C48N16Cl8
_chemical_formula_sum              "Zn4 H64 C48 N16 Cl8"
_cell_length_a       8.63229
_cell_length_b       11.2943
_cell_length_c       15.8088
_cell_angle_alpha    90
_cell_angle_beta     90
_cell_angle_gamma    103.968

_space_group_name_H-M_alt    "P 1"
_space_group_IT_number       1

loop_
  _space_group_symop_operation_xyz
  'x, y, z'

loop_
  _atom_site_type_symbol
  _atom_site_label
  _atom_site_symmetry_multiplicity
  _atom_site_fract_x
  _atom_site_fract_y
  _atom_site_fract_z
  _atom_site_occupancy
  Zn  Zn1       1.0  0.96468  0.21854  0.68040  1.0000
  Zn  Zn2       1.0  0.53532  0.28146  0.18040  1.0000
  Zn  Zn3       1.0  0.03531  0.78146  0.31960  1.0000
  Zn  Zn4       1.0  0.46468  0.71854  0.81960  1.0000
  H   H1        1.0  0.50533  0.08462  0.64504  1.0000
  H   H2        1.0  0.99467  0.41538  0.14504  1.0000
  H   H3        1.0  0.49467  0.91538  0.35496  1.0000
  H   H4        1.0  0.00533  0.58462  0.85496  1.0000
  H   H5        1.0  0.04628  0.99040  0.73219  1.0000
  H   H6        1.0  0.45372  0.50960  0.23219  1.0000
  H   H7        1.0  0.95371  0.00960  0.26781  1.0000
  H   H8        1.0  0.54628  0.49040  0.76781  1.0000
  H   H9        1.0  0.22167  0.93509  0.74227  1.0000
  H   H10       1.0  0.27833  0.56491  0.24227  1.0000
  H   H11       1.0  0.77833  0.06491  0.25773  1.0000
  H   H12       1.0  0.72166  0.43509  0.75773  1.0000
  H   H13       1.0  0.03681  0.93988  0.57615  1.0000
  H   H14       1.0  0.46320  0.56012  0.07615  1.0000
  H   H15       1.0  0.96320  0.06012  0.42385  1.0000
  H   H16       1.0  0.53680  0.43988  0.92385  1.0000
  H   H17       1.0  0.20231  0.87588  0.58882  1.0000
  H   H18       1.0  0.29770  0.62412  0.08882  1.0000
  H   H19       1.0  0.79770  0.12412  0.41118  1.0000
  H   H20       1.0  0.70230  0.37588  0.91118  1.0000
  H   H21       1.0  0.88523  0.79086  0.68425  1.0000
  H   H22       1.0  0.61478  0.70913  0.18425  1.0000
  H   H23       1.0  0.11478  0.20914  0.31575  1.0000
  H   H24       1.0  0.38522  0.29087  0.81575  1.0000
  H   H25       1.0  0.04660  0.72050  0.68917  1.0000
  H   H26       1.0  0.45341  0.77950  0.18917  1.0000
  H   H27       1.0  0.95341  0.27950  0.31083  1.0000
  H   H28       1.0  0.54659  0.22050  0.81083  1.0000
  H   H29       1.0  0.85384  0.74198  0.52806  1.0000
  H   H30       1.0  0.64617  0.75802  0.02806  1.0000
  H   H31       1.0  0.14617  0.25803  0.47193  1.0000
  H   H32       1.0  0.35384  0.24198  0.97194  1.0000
  H   H33       1.0  0.83624  0.60762  0.59004  1.0000
  H   H34       1.0  0.66377  0.89237  0.09004  1.0000
  H   H35       1.0  0.16376  0.39238  0.40995  1.0000
  H   H36       1.0  0.33624  0.10762  0.90996  1.0000
  H   H37       1.0  0.01387  0.66943  0.53328  1.0000
  H   H38       1.0  0.48614  0.83057  0.03328  1.0000
  H   H39       1.0  0.98613  0.33057  0.46671  1.0000
  H   H40       1.0  0.51387  0.16944  0.96672  1.0000
  H   H41       1.0  0.68040  0.30229  0.60576  1.0000
  H   H42       1.0  0.81960  0.19771  0.10576  1.0000
  H   H43       1.0  0.31960  0.69771  0.39424  1.0000
  H   H44       1.0  0.18040  0.80229  0.89424  1.0000
  H   H45       1.0  0.58082  0.42187  0.60095  1.0000
  H   H46       1.0  0.91918  0.07813  0.10095  1.0000
  H   H47       1.0  0.41917  0.57813  0.39905  1.0000
  H   H48       1.0  0.08083  0.92187  0.89905  1.0000
  H   H49       1.0  0.38655  0.14401  0.47941  1.0000
  H   H50       1.0  0.11345  0.35598  0.97941  1.0000
  H   H51       1.0  0.61344  0.85599  0.52059  1.0000
  H   H52       1.0  0.88655  0.64401  0.02059  1.0000
  H   H53       1.0  0.38877  0.13724  0.32384  1.0000
  H   H54       1.0  0.11122  0.36276  0.82384  1.0000
  H   H55       1.0  0.61122  0.86276  0.67616  1.0000
  H   H56       1.0  0.88877  0.63724  0.17616  1.0000
  H   H57       1.0  0.73385  0.46531  0.30909  1.0000
  H   H58       1.0  0.76614  0.03469  0.80909  1.0000
  H   H59       1.0  0.26614  0.53470  0.69091  1.0000
  H   H60       1.0  0.23386  0.96531  0.19091  1.0000
  H   H61       1.0  0.74860  0.48516  0.46467  1.0000
  H   H62       1.0  0.75140  0.01484  0.96468  1.0000
  H   H63       1.0  0.25139  0.51485  0.53533  1.0000
  H   H64       1.0  0.24860  0.98515  0.03532  1.0000
  C   C1        1.0  0.25111  0.09779  0.67114  1.0000
  C   C2        1.0  0.24889  0.40221  0.17114  1.0000
  C   C3        1.0  0.74889  0.90222  0.32886  1.0000
  C   C4        1.0  0.75110  0.59778  0.82886  1.0000
  C   C5        1.0  0.40975  0.13200  0.64674  1.0000
  C   C6        1.0  0.09025  0.36800  0.14674  1.0000
  C   C7        1.0  0.59024  0.86800  0.35326  1.0000
  C   C8        1.0  0.90975  0.63200  0.85326  1.0000
  C   C9        1.0  0.15197  0.97694  0.69804  1.0000
  C   C10       1.0  0.34804  0.52306  0.19804  1.0000
  C   C11       1.0  0.84803  0.02306  0.30196  1.0000
  C   C12       1.0  0.65196  0.47694  0.80196  1.0000
  C   C13       1.0  0.09716  0.89256  0.62184  1.0000
  C   C14       1.0  0.40285  0.60744  0.12184  1.0000
  C   C15       1.0  0.90285  0.10744  0.37815  1.0000
  C   C16       1.0  0.59715  0.39256  0.87815  1.0000
  C   C17       1.0  0.98448  0.77167  0.64698  1.0000
  C   C18       1.0  0.51553  0.72833  0.14698  1.0000
  C   C19       1.0  0.01553  0.22833  0.35301  1.0000
  C   C20       1.0  0.48447  0.27167  0.85301  1.0000
  C   C21       1.0  0.91833  0.69346  0.57046  1.0000
  C   C22       1.0  0.58168  0.80654  0.07047  1.0000
  C   C23       1.0  0.08168  0.30654  0.42953  1.0000
  C   C24       1.0  0.41832  0.19346  0.92953  1.0000
  C   C25       1.0  0.57318  0.32740  0.58153  1.0000
  C   C26       1.0  0.92682  0.17260  0.08153  1.0000
  C   C27       1.0  0.42681  0.67261  0.41847  1.0000
  C   C28       1.0  0.07318  0.82739  0.91847  1.0000
  C   C29       1.0  0.56668  0.31668  0.48633  1.0000
  C   C30       1.0  0.93332  0.18332  0.98633  1.0000
  C   C31       1.0  0.43332  0.68333  0.51367  1.0000
  C   C32       1.0  0.06668  0.81667  0.01367  1.0000
  C   C33       1.0  0.46586  0.21805  0.44506  1.0000
  C   C34       1.0  0.03415  0.28195  0.94507  1.0000
  C   C35       1.0  0.53414  0.78195  0.55494  1.0000
  C   C36       1.0  0.96585  0.71805  0.05494  1.0000
  C   C37       1.0  0.46554  0.21373  0.35737  1.0000
  C   C38       1.0  0.03446  0.28627  0.85737  1.0000
  C   C39       1.0  0.53445  0.78627  0.64263  1.0000
  C   C40       1.0  0.96554  0.71373  0.14263  1.0000
  C   C41       1.0  0.65806  0.39633  0.34906  1.0000
  C   C42       1.0  0.84193  0.10367  0.84907  1.0000
  C   C43       1.0  0.34193  0.60367  0.65093  1.0000
  C   C44       1.0  0.15807  0.89633  0.15093  1.0000
  C   C45       1.0  0.66562  0.40668  0.43671  1.0000
  C   C46       1.0  0.83438  0.09332  0.93671  1.0000
  C   C47       1.0  0.33437  0.59333  0.56329  1.0000
  C   C48       1.0  0.16563  0.90668  0.06329  1.0000
  N   N1        1.0  0.19104  0.19838  0.65975  1.0000
  N   N2        1.0  0.30896  0.30162  0.15975  1.0000
  N   N3        1.0  0.80896  0.80162  0.34025  1.0000
  N   N4        1.0  0.69104  0.69838  0.84025  1.0000
  N   N5        1.0  0.30143  0.29139  0.62990  1.0000
  N   N6        1.0  0.19858  0.20861  0.12990  1.0000
  N   N7        1.0  0.69857  0.70862  0.37010  1.0000
  N   N8        1.0  0.80143  0.79139  0.87010  1.0000
  N   N9        1.0  0.43374  0.25042  0.62226  1.0000
  N   N10       1.0  0.06626  0.24958  0.12226  1.0000
  N   N11       1.0  0.56626  0.74958  0.37774  1.0000
  N   N12       1.0  0.93374  0.75042  0.87774  1.0000
  N   N13       1.0  0.55896  0.30175  0.30987  1.0000
  N   N14       1.0  0.94104  0.19825  0.80987  1.0000
  N   N15       1.0  0.44104  0.69825  0.69013  1.0000
  N   N16       1.0  0.05896  0.80175  0.19013  1.0000
  Cl  Cl1       1.0  0.96237  0.41288  0.65696  1.0000
  Cl  Cl2       1.0  0.53763  0.08712  0.15696  1.0000
  Cl  Cl3       1.0  0.03763  0.58712  0.34304  1.0000
  Cl  Cl4       1.0  0.46237  0.91289  0.84304  1.0000
  Cl  Cl5       1.0  0.78529  0.07264  0.61395  1.0000
  Cl  Cl6       1.0  0.71471  0.42737  0.11395  1.0000
  Cl  Cl7       1.0  0.21471  0.92737  0.38605  1.0000
  Cl  Cl8       1.0  0.28529  0.57264  0.88605  1.0000
