data_image0
_chemical_formula_structural       ZnH16C22S6N6
_chemical_formula_sum              "Zn1 H16 C22 S6 N6"
_cell_length_a       9.03986
_cell_length_b       10.2554
_cell_length_c       10.2964
_cell_angle_alpha    104.722
_cell_angle_beta     96.8716
_cell_angle_gamma    108.646

_space_group_name_H-M_alt    "P 1"
_space_group_IT_number       1

loop_
  _space_group_symop_operation_xyz
  'x, y, z'

loop_
  _atom_site_type_symbol
  _atom_site_label
  _atom_site_symmetry_multiplicity
  _atom_site_fract_x
  _atom_site_fract_y
  _atom_site_fract_z
  _atom_site_occupancy
  Zn  Zn1       1.0  1.00000  0.00000  0.00000  1.0000
  H   H1        1.0  0.03888  0.20104  0.29708  1.0000
  H   H2        1.0  0.96113  0.79896  0.70292  1.0000
  H   H3        1.0  0.23843  0.33335  0.52076  1.0000
  H   H4        1.0  0.76157  0.66665  0.47924  1.0000
  H   H5        1.0  0.21554  0.98040  0.78228  1.0000
  H   H6        1.0  0.78446  0.01960  0.21773  1.0000
  H   H7        1.0  0.36085  0.04790  0.11621  1.0000
  H   H8        1.0  0.63915  0.95210  0.88379  1.0000
  H   H9        1.0  0.57576  0.17941  0.32512  1.0000
  H   H10       1.0  0.42424  0.82059  0.67488  1.0000
  H   H11       1.0  0.12433  0.32084  0.02583  1.0000
  H   H12       1.0  0.87566  0.67917  0.97416  1.0000
  H   H13       1.0  0.39727  0.14135  0.67598  1.0000
  H   H14       1.0  0.60272  0.85865  0.32401  1.0000
  H   H15       1.0  0.30557  0.49944  0.93499  1.0000
  H   H16       1.0  0.69442  0.50056  0.06500  1.0000
  C   C1        1.0  0.42295  0.26441  0.44258  1.0000
  C   C2        1.0  0.57706  0.73559  0.55742  1.0000
  C   C3        1.0  0.78456  0.19082  0.04540  1.0000
  C   C4        1.0  0.21543  0.80918  0.95459  1.0000
  C   C5        1.0  0.15787  0.19512  0.30989  1.0000
  C   C6        1.0  0.84214  0.80488  0.69011  1.0000
  C   C7        1.0  0.26957  0.27004  0.43368  1.0000
  C   C8        1.0  0.73043  0.72997  0.56633  1.0000
  C   C9        1.0  0.23609  0.09568  0.81057  1.0000
  C   C10       1.0  0.76390  0.90432  0.18944  1.0000
  C   C11       1.0  0.33634  0.11073  0.20768  1.0000
  C   C12       1.0  0.66367  0.88927  0.79232  1.0000
  C   C13       1.0  0.45697  0.18379  0.32617  1.0000
  C   C14       1.0  0.54303  0.81622  0.67383  1.0000
  C   C15       1.0  0.18784  0.28616  0.94830  1.0000
  C   C16       1.0  0.81216  0.71384  0.05170  1.0000
  C   C17       1.0  0.33788  0.18565  0.75210  1.0000
  C   C18       1.0  0.66212  0.81435  0.24789  1.0000
  C   C19       1.0  0.28881  0.38491  0.89734  1.0000
  C   C20       1.0  0.71118  0.61509  0.10266  1.0000
  C   C21       1.0  0.36537  0.33357  0.79631  1.0000
  C   C22       1.0  0.63463  0.66642  0.20369  1.0000
  S   S1        1.0  0.57905  0.35087  0.59200  1.0000
  S   S2        1.0  0.42096  0.64913  0.40800  1.0000
  S   S3        1.0  0.62915  0.23362  0.01928  1.0000
  S   S4        1.0  0.37084  0.76637  0.98071  1.0000
  S   S5        1.0  0.48946  0.46416  0.73273  1.0000
  S   S6        1.0  0.51054  0.53583  0.26728  1.0000
  N   N1        1.0  0.89639  0.15478  0.06298  1.0000
  N   N2        1.0  0.10360  0.84522  0.93702  1.0000
  N   N3        1.0  0.18840  0.11496  0.19850  1.0000
  N   N4        1.0  0.81161  0.88505  0.80150  1.0000
  N   N5        1.0  0.16053  0.14349  0.90615  1.0000
  N   N6        1.0  0.83946  0.85651  0.09385  1.0000
