data_image0
_chemical_formula_structural       Cd2H22C32N6O14
_chemical_formula_sum              "Cd2 H22 C32 N6 O14"
_cell_length_a       8.49185
_cell_length_b       10.2733
_cell_length_c       10.5324
_cell_angle_alpha    108.478
_cell_angle_beta     93.7438
_cell_angle_gamma    102.353

_space_group_name_H-M_alt    "P 1"
_space_group_IT_number       1

loop_
  _space_group_symop_operation_xyz
  'x, y, z'

loop_
  _atom_site_type_symbol
  _atom_site_label
  _atom_site_symmetry_multiplicity
  _atom_site_fract_x
  _atom_site_fract_y
  _atom_site_fract_z
  _atom_site_occupancy
  Cd  Cd1       1.0  0.46452  0.40296  0.62685  1.0000
  Cd  Cd2       1.0  0.53548  0.59704  0.37315  1.0000
  H   H1        1.0  0.26229  0.17521  0.94149  1.0000
  H   H2        1.0  0.73771  0.82478  0.05850  1.0000
  H   H3        1.0  0.48315  0.92266  0.62978  1.0000
  H   H4        1.0  0.51685  0.07734  0.37022  1.0000
  H   H5        1.0  0.31034  0.76502  0.94239  1.0000
  H   H6        1.0  0.68966  0.23498  0.05761  1.0000
  H   H7        1.0  0.75757  0.29551  0.52331  1.0000
  H   H8        1.0  0.24244  0.70450  0.47670  1.0000
  H   H9        1.0  0.74115  0.61574  0.87394  1.0000
  H   H10       1.0  0.25886  0.38426  0.12606  1.0000
  H   H11       1.0  0.03207  0.64143  0.96278  1.0000
  H   H12       1.0  0.96793  0.35857  0.03722  1.0000
  H   H13       1.0  0.19040  0.48202  0.82031  1.0000
  H   H14       1.0  0.80960  0.51798  0.17969  1.0000
  H   H15       1.0  0.17867  0.12213  0.37948  1.0000
  H   H16       1.0  0.82132  0.87787  0.62052  1.0000
  H   H17       1.0  0.97912  0.01253  0.31362  1.0000
  H   H18       1.0  0.02088  0.98747  0.68638  1.0000
  H   H19       1.0  0.76715  0.02505  0.48870  1.0000
  H   H20       1.0  0.23285  0.97495  0.51130  1.0000
  H   H21       1.0  0.84749  0.13679  0.65705  1.0000
  H   H22       1.0  0.15251  0.86321  0.34295  1.0000
  C   C1        1.0  0.44661  0.69142  0.71644  1.0000
  C   C2        1.0  0.55340  0.30857  0.28356  1.0000
  C   C3        1.0  0.40682  0.17893  0.72243  1.0000
  C   C4        1.0  0.59317  0.82107  0.27757  1.0000
  C   C5        1.0  0.37931  0.06204  0.78192  1.0000
  C   C6        1.0  0.62069  0.93795  0.21808  1.0000
  C   C7        1.0  0.30161  0.07879  0.89678  1.0000
  C   C8        1.0  0.69838  0.92121  0.10322  1.0000
  C   C9        1.0  0.42704  0.93643  0.72199  1.0000
  C   C10       1.0  0.57296  0.06357  0.27801  1.0000
  C   C11       1.0  0.40195  0.82937  0.77966  1.0000
  C   C12       1.0  0.59805  0.17062  0.22033  1.0000
  C   C13       1.0  0.32758  0.84707  0.89652  1.0000
  C   C14       1.0  0.67242  0.15293  0.10348  1.0000
  C   C15       1.0  0.27588  0.97026  0.95133  1.0000
  C   C16       1.0  0.72411  0.02973  0.04867  1.0000
  C   C17       1.0  0.82375  0.36976  0.62027  1.0000
  C   C18       1.0  0.17625  0.63024  0.37974  1.0000
  C   C19       1.0  0.81500  0.54985  0.81656  1.0000
  C   C20       1.0  0.18500  0.45015  0.18344  1.0000
  C   C21       1.0  0.97641  0.56268  0.86477  1.0000
  C   C22       1.0  0.02359  0.43732  0.13523  1.0000
  C   C23       1.0  0.98528  0.37513  0.66129  1.0000
  C   C24       1.0  0.01473  0.62487  0.33871  1.0000
  C   C25       1.0  0.06371  0.47461  0.78629  1.0000
  C   C26       1.0  0.93629  0.52539  0.21372  1.0000
  C   C27       1.0  0.07308  0.28558  0.56475  1.0000
  C   C28       1.0  0.92693  0.71442  0.43525  1.0000
  C   C29       1.0  0.07389  0.05531  0.40275  1.0000
  C   C30       1.0  0.92611  0.94469  0.59725  1.0000
  C   C31       1.0  0.87688  0.06626  0.56472  1.0000
  C   C32       1.0  0.12312  0.93374  0.43528  1.0000
  N   N1        1.0  0.74092  0.45497  0.69613  1.0000
  N   N2        1.0  0.25908  0.54503  0.30387  1.0000
  N   N3        1.0  0.00997  0.14421  0.51514  1.0000
  N   N4        1.0  0.99003  0.85580  0.48487  1.0000
  N   N5        1.0  0.19018  0.98594  0.06946  1.0000
  N   N6        1.0  0.80982  0.01406  0.93053  1.0000
  O   O1        1.0  0.47732  0.16242  0.61740  1.0000
  O   O2        1.0  0.52268  0.83757  0.38259  1.0000
  O   O3        1.0  0.35621  0.28837  0.77979  1.0000
  O   O4        1.0  0.64379  0.71163  0.22021  1.0000
  O   O5        1.0  0.44637  0.61208  0.78791  1.0000
  O   O6        1.0  0.55363  0.38792  0.21209  1.0000
  O   O7        1.0  0.47594  0.65805  0.59515  1.0000
  O   O8        1.0  0.52406  0.34194  0.40485  1.0000
  O   O9        1.0  0.16254  0.88568  0.11382  1.0000
  O   O10       1.0  0.83746  0.11432  0.88618  1.0000
  O   O11       1.0  0.14865  0.09816  0.11890  1.0000
  O   O12       1.0  0.85135  0.90184  0.88110  1.0000
  O   O13       1.0  0.19626  0.34583  0.52568  1.0000
  O   O14       1.0  0.80374  0.65418  0.47433  1.0000
