data_image0
_chemical_formula_structural       Hg2H24C16S4N12
_chemical_formula_sum              "Hg2 H24 C16 S4 N12"
_cell_length_a       6.44442
_cell_length_b       8.96648
_cell_length_c       10.5291
_cell_angle_alpha    83.0908
_cell_angle_beta     81.8409
_cell_angle_gamma    86.7003

_space_group_name_H-M_alt    "P 1"
_space_group_IT_number       1

loop_
  _space_group_symop_operation_xyz
  'x, y, z'

loop_
  _atom_site_type_symbol
  _atom_site_label
  _atom_site_symmetry_multiplicity
  _atom_site_fract_x
  _atom_site_fract_y
  _atom_site_fract_z
  _atom_site_occupancy
  Hg  Hg1       1.0  0.21696  0.13370  0.31629  1.0000
  Hg  Hg2       1.0  0.78303  0.86630  0.68371  1.0000
  H   H1        1.0  0.74869  0.13577  0.23291  1.0000
  H   H2        1.0  0.25129  0.86422  0.76709  1.0000
  H   H3        1.0  0.69565  0.17585  0.39754  1.0000
  H   H4        1.0  0.30433  0.82415  0.60245  1.0000
  H   H5        1.0  0.45037  0.38161  0.45493  1.0000
  H   H6        1.0  0.54963  0.61841  0.54507  1.0000
  H   H7        1.0  0.33047  0.49357  0.32963  1.0000
  H   H8        1.0  0.66952  0.50645  0.67038  1.0000
  H   H9        1.0  0.40029  0.43627  0.10980  1.0000
  H   H10       1.0  0.59970  0.56373  0.89020  1.0000
  H   H11       1.0  0.58224  0.28551  0.06915  1.0000
  H   H12       1.0  0.41775  0.71447  0.93086  1.0000
  H   H13       1.0  0.96930  0.52720  0.33994  1.0000
  H   H14       1.0  0.03071  0.47280  0.66007  1.0000
  H   H15       1.0  0.82324  0.39882  0.45939  1.0000
  H   H16       1.0  0.17676  0.60118  0.54062  1.0000
  H   H17       1.0  0.52496  0.65982  0.17606  1.0000
  H   H18       1.0  0.47504  0.34017  0.82394  1.0000
  H   H19       1.0  0.80162  0.67499  0.17795  1.0000
  H   H20       1.0  0.19839  0.32500  0.82205  1.0000
  H   H21       1.0  0.94740  0.30812  0.07296  1.0000
  H   H22       1.0  0.05259  0.69187  0.92705  1.0000
  H   H23       1.0  0.04024  0.47493  0.12101  1.0000
  H   H24       1.0  0.95976  0.52506  0.87899  1.0000
  C   C1        1.0  0.63803  0.87309  0.40437  1.0000
  C   C2        1.0  0.36198  0.12692  0.59563  1.0000
  C   C3        1.0  0.18781  0.87056  0.13424  1.0000
  C   C4        1.0  0.81224  0.12945  0.86575  1.0000
  C   C5        1.0  0.71470  0.22538  0.29634  1.0000
  C   C6        1.0  0.28529  0.77462  0.70367  1.0000
  C   C7        1.0  0.47390  0.43057  0.35341  1.0000
  C   C8        1.0  0.52609  0.56945  0.64657  1.0000
  C   C9        1.0  0.54619  0.37577  0.13174  1.0000
  C   C10       1.0  0.45383  0.62423  0.86826  1.0000
  C   C11       1.0  0.84035  0.44925  0.35813  1.0000
  C   C12       1.0  0.15965  0.55075  0.64187  1.0000
  C   C13       1.0  0.67144  0.59819  0.19527  1.0000
  C   C14       1.0  0.32855  0.40181  0.80472  1.0000
  C   C15       1.0  0.91162  0.39703  0.13696  1.0000
  C   C16       1.0  0.08842  0.60299  0.86304  1.0000
  S   S1        1.0  0.87636  0.84209  0.44471  1.0000
  S   S2        1.0  0.12364  0.15791  0.55530  1.0000
  S   S3        1.0  0.21074  0.05396  0.09659  1.0000
  S   S4        1.0  0.78928  0.94604  0.90341  1.0000
  N   N1        1.0  0.46869  0.89485  0.37371  1.0000
  N   N2        1.0  0.53131  0.10515  0.62631  1.0000
  N   N3        1.0  0.17192  0.73910  0.15481  1.0000
  N   N4        1.0  0.82807  0.26089  0.84519  1.0000
  N   N5        1.0  0.51563  0.30660  0.26907  1.0000
  N   N6        1.0  0.48435  0.69341  0.73092  1.0000
  N   N7        1.0  0.89136  0.32698  0.27346  1.0000
  N   N8        1.0  0.10863  0.67302  0.72655  1.0000
  N   N9        1.0  0.64643  0.53304  0.33190  1.0000
  N   N10       1.0  0.35357  0.46696  0.66810  1.0000
  N   N11       1.0  0.71785  0.47960  0.10815  1.0000
  N   N12       1.0  0.28214  0.52040  0.89184  1.0000
