data_image0
_chemical_formula_structural       Cu2H40C36N8O8
_chemical_formula_sum              "Cu2 H40 C36 N8 O8"
_cell_length_a       8.29458
_cell_length_b       10.2028
_cell_length_c       10.8165
_cell_angle_alpha    85.2913
_cell_angle_beta     89.9429
_cell_angle_gamma    85.9127

_space_group_name_H-M_alt    "P 1"
_space_group_IT_number       1

loop_
  _space_group_symop_operation_xyz
  'x, y, z'

loop_
  _atom_site_type_symbol
  _atom_site_label
  _atom_site_symmetry_multiplicity
  _atom_site_fract_x
  _atom_site_fract_y
  _atom_site_fract_z
  _atom_site_occupancy
  Cu  Cu1       1.0  0.03428  0.50902  0.99875  1.0000
  Cu  Cu2       1.0  0.53277  0.00694  0.49938  1.0000
  H   H1        1.0  0.81557  0.07401  0.07912  1.0000
  H   H2        1.0  0.83479  0.12599  0.91716  1.0000
  H   H3        1.0  0.67013  0.18922  0.00041  1.0000
  H   H4        1.0  0.28928  0.86623  0.07895  1.0000
  H   H5        1.0  0.18630  0.95693  0.94902  1.0000
  H   H6        1.0  0.37057  0.86453  0.92685  1.0000
  H   H7        1.0  0.38836  0.56095  0.89848  1.0000
  H   H8        1.0  0.41756  0.17983  0.76984  1.0000
  H   H9        1.0  0.12338  0.22392  0.89068  1.0000
  H   H10       1.0  0.67042  0.30710  0.75876  1.0000
  H   H11       1.0  0.66338  0.46942  0.80608  1.0000
  H   H12       1.0  0.57649  0.66071  0.66034  1.0000
  H   H13       1.0  0.51696  0.74900  0.44505  1.0000
  H   H14       1.0  0.49051  0.35329  0.33733  1.0000
  H   H15       1.0  0.54897  0.26505  0.55280  1.0000
  H   H16       1.0  0.40626  0.54429  0.19088  1.0000
  H   H17       1.0  0.39645  0.70645  0.23877  1.0000
  H   H18       1.0  0.68101  0.45551  0.09894  1.0000
  H   H19       1.0  0.94451  0.79302  0.11027  1.0000
  H   H20       1.0  0.64968  0.83512  0.23050  1.0000
  H   H21       1.0  0.63321  0.77413  0.86475  1.0000
  H   H22       1.0  0.68018  0.92037  0.93465  1.0000
  H   H23       1.0  0.82838  0.83322  0.84811  1.0000
  H   H24       1.0  0.36575  0.09358  0.06622  1.0000
  H   H25       1.0  0.43641  0.23565  0.13061  1.0000
  H   H26       1.0  0.23638  0.19070  0.15914  1.0000
  H   H27       1.0  0.82300  0.78375  0.54046  1.0000
  H   H28       1.0  0.08121  0.00388  0.26781  1.0000
  H   H29       1.0  0.77702  0.13102  0.29845  1.0000
  H   H30       1.0  0.19475  0.77366  0.33524  1.0000
  H   H31       1.0  0.21232  0.80414  0.49293  1.0000
  H   H32       1.0  0.06174  0.57953  0.27527  1.0000
  H   H33       1.0  0.97136  0.35794  0.33619  1.0000
  H   H34       1.0  0.00430  0.43484  0.72167  1.0000
  H   H35       1.0  0.09450  0.65650  0.66074  1.0000
  H   H36       1.0  0.87037  0.24104  0.66139  1.0000
  H   H37       1.0  0.85334  0.21038  0.50371  1.0000
  H   H38       1.0  0.24472  0.23148  0.45894  1.0000
  H   H39       1.0  0.28584  0.88237  0.69863  1.0000
  H   H40       1.0  0.98122  0.00970  0.72682  1.0000
  C   C1        1.0  0.89453  0.27080  0.04262  1.0000
  C   C2        1.0  0.79927  0.15724  0.00865  1.0000
  C   C3        1.0  0.16687  0.74770  0.95265  1.0000
  C   C4        1.0  0.25796  0.86586  0.98057  1.0000
  C   C5        1.0  0.35415  0.46375  0.88115  1.0000
  C   C6        1.0  0.36450  0.26417  0.81403  1.0000
  C   C7        1.0  0.22125  0.28762  0.87461  1.0000
  C   C8        1.0  0.59843  0.40171  0.75405  1.0000
  C   C9        1.0  0.56676  0.45609  0.62162  1.0000
  C   C10       1.0  0.55772  0.59215  0.59034  1.0000
  C   C11       1.0  0.52464  0.64264  0.46865  1.0000
  C   C12       1.0  0.50025  0.55793  0.37609  1.0000
  C   C13       1.0  0.50907  0.42184  0.40737  1.0000
  C   C14       1.0  0.54181  0.37139  0.52915  1.0000
  C   C15       1.0  0.46961  0.61245  0.24354  1.0000
  C   C16       1.0  0.71486  0.55255  0.11707  1.0000
  C   C17       1.0  0.84688  0.72889  0.12540  1.0000
  C   C18       1.0  0.70329  0.75134  0.18581  1.0000
  C   C19       1.0  0.64809  0.94841  0.73640  1.0000
  C   C20       1.0  0.69863  0.86401  0.85332  1.0000
  C   C21       1.0  0.41633  0.06544  0.26227  1.0000
  C   C22       1.0  0.36213  0.15129  0.14716  1.0000
  C   C23       1.0  0.84999  0.86171  0.47133  1.0000
  C   C24       1.0  0.98126  0.97833  0.32737  1.0000
  C   C25       1.0  0.83117  0.04024  0.34412  1.0000
  C   C26       1.0  0.13158  0.76964  0.42418  1.0000
  C   C27       1.0  0.08344  0.63316  0.46307  1.0000
  C   C28       1.0  0.04863  0.54788  0.37326  1.0000
  C   C29       1.0  0.99762  0.42292  0.40792  1.0000
  C   C30       1.0  0.98212  0.38142  0.53380  1.0000
  C   C31       1.0  0.01714  0.46660  0.62363  1.0000
  C   C32       1.0  0.06811  0.59158  0.58900  1.0000
  C   C33       1.0  0.93384  0.24499  0.57258  1.0000
  C   C34       1.0  0.21631  0.15312  0.52719  1.0000
  C   C35       1.0  0.23276  0.97362  0.65315  1.0000
  C   C36       1.0  0.08257  0.03568  0.66896  1.0000
  N   N1        1.0  0.21599  0.41240  0.91651  1.0000
  N   N2        1.0  0.44703  0.37644  0.81952  1.0000
  N   N3        1.0  0.62136  0.63897  0.17917  1.0000
  N   N4        1.0  0.85291  0.60453  0.08249  1.0000
  N   N5        1.0  0.75080  0.96651  0.43442  1.0000
  N   N6        1.0  0.99035  0.86560  0.40791  1.0000
  N   N7        1.0  0.07495  0.14901  0.58925  1.0000
  N   N8        1.0  0.31467  0.04780  0.56418  1.0000
  O   O1        1.0  0.89005  0.37036  0.95867  1.0000
  O   O2        1.0  0.96943  0.26647  0.14333  1.0000
  O   O3        1.0  0.17790  0.64921  0.03762  1.0000
  O   O4        1.0  0.08920  0.74795  0.85347  1.0000
  O   O5        1.0  0.58305  0.88667  0.65104  1.0000
  O   O6        1.0  0.67235  0.06886  0.72447  1.0000
  O   O7        1.0  0.48127  0.12692  0.34786  1.0000
  O   O8        1.0  0.39484  0.94442  0.27293  1.0000
