data_image0
_chemical_formula_structural       Ni2H32C48S4N8O8
_chemical_formula_sum              "Ni2 H32 C48 S4 N8 O8"
_cell_length_a       8.27002
_cell_length_b       9.60008
_cell_length_c       14.8855
_cell_angle_alpha    92.0641
_cell_angle_beta     95.797
_cell_angle_gamma    105.292

_space_group_name_H-M_alt    "P 1"
_space_group_IT_number       1

loop_
  _space_group_symop_operation_xyz
  'x, y, z'

loop_
  _atom_site_type_symbol
  _atom_site_label
  _atom_site_symmetry_multiplicity
  _atom_site_fract_x
  _atom_site_fract_y
  _atom_site_fract_z
  _atom_site_occupancy
  Ni  Ni1       1.0  0.00000  1.00000  0.00000  1.0000
  Ni  Ni2       1.0  0.50000  0.50000  1.00000  1.0000
  H   H1        1.0  0.10090  0.74061  0.07854  1.0000
  H   H2        1.0  0.89911  0.25939  0.92146  1.0000
  H   H3        1.0  0.16893  0.61542  0.45998  1.0000
  H   H4        1.0  0.83107  0.38458  0.54002  1.0000
  H   H5        1.0  0.94470  0.07708  0.18976  1.0000
  H   H6        1.0  0.05530  0.92292  0.81024  1.0000
  H   H7        1.0  0.97903  0.99225  0.34657  1.0000
  H   H8        1.0  0.02097  0.00775  0.65343  1.0000
  H   H9        1.0  0.43082  0.36091  0.81239  1.0000
  H   H10       1.0  0.56918  0.63909  0.18761  1.0000
  H   H11       1.0  0.08022  0.76775  0.55479  1.0000
  H   H12       1.0  0.91978  0.23225  0.44521  1.0000
  H   H13       1.0  0.14490  0.64307  0.22883  1.0000
  H   H14       1.0  0.85510  0.35693  0.77117  1.0000
  H   H15       1.0  0.14201  0.74684  0.79173  1.0000
  H   H16       1.0  0.85799  0.25316  0.20827  1.0000
  H   H17       1.0  0.32210  0.42148  0.65835  1.0000
  H   H18       1.0  0.67790  0.57852  0.34165  1.0000
  H   H19       1.0  0.26339  0.67832  0.93887  1.0000
  H   H20       1.0  0.73661  0.32168  0.06113  1.0000
  H   H21       1.0  0.62980  0.78989  0.33730  1.0000
  H   H22       1.0  0.37020  0.21011  0.66270  1.0000
  H   H23       1.0  0.44025  0.09362  0.18350  1.0000
  H   H24       1.0  0.55975  0.90638  0.81650  1.0000
  H   H25       1.0  0.33894  0.27849  0.25991  1.0000
  H   H26       1.0  0.66106  0.72151  0.74009  1.0000
  H   H27       1.0  0.56738  0.88767  0.19098  1.0000
  H   H28       1.0  0.43262  0.11233  0.80902  1.0000
  H   H29       1.0  0.27913  0.39162  0.40174  1.0000
  H   H30       1.0  0.72087  0.60837  0.59825  1.0000
  H   H31       1.0  0.66736  0.70655  0.45252  1.0000
  H   H32       1.0  0.33264  0.29345  0.54748  1.0000
  C   C1        1.0  0.37857  0.16336  0.97772  1.0000
  C   C2        1.0  0.62144  0.83664  0.02228  1.0000
  C   C3        1.0  0.14872  0.32142  0.07164  1.0000
  C   C4        1.0  0.85128  0.67858  0.92836  1.0000
  C   C5        1.0  0.07577  0.79391  0.13938  1.0000
  C   C6        1.0  0.92423  0.20609  0.86062  1.0000
  C   C7        1.0  0.06466  0.81053  0.29984  1.0000
  C   C8        1.0  0.93534  0.18947  0.70016  1.0000
  C   C9        1.0  0.22500  0.58931  0.71344  1.0000
  C   C10       1.0  0.77500  0.41069  0.28656  1.0000
  C   C11       1.0  0.17299  0.63124  0.62198  1.0000
  C   C12       1.0  0.82701  0.36876  0.37802  1.0000
  C   C13       1.0  0.08940  0.75784  0.39170  1.0000
  C   C14       1.0  0.91060  0.24216  0.60830  1.0000
  C   C15       1.0  0.98777  0.98119  0.20209  1.0000
  C   C16       1.0  0.01223  0.01881  0.79791  1.0000
  C   C17       1.0  0.00679  0.93376  0.28868  1.0000
  C   C18       1.0  0.99321  0.06624  0.71132  1.0000
  C   C19       1.0  0.36620  0.44560  0.80425  1.0000
  C   C20       1.0  0.63380  0.55440  0.19574  1.0000
  C   C21       1.0  0.09940  0.73931  0.22349  1.0000
  C   C22       1.0  0.90060  0.26069  0.77651  1.0000
  C   C23       1.0  0.20455  0.66062  0.79314  1.0000
  C   C24       1.0  0.79545  0.33938  0.20686  1.0000
  C   C25       1.0  0.30456  0.47789  0.71972  1.0000
  C   C26       1.0  0.69543  0.52211  0.28028  1.0000
  C   C27       1.0  0.27154  0.62268  0.87524  1.0000
  C   C28       1.0  0.72847  0.37732  0.12476  1.0000
  C   C29       1.0  0.53765  0.93697  0.41743  1.0000
  C   C30       1.0  0.46235  0.06303  0.58257  1.0000
  C   C31       1.0  0.46677  0.05792  0.41438  1.0000
  C   C32       1.0  0.53323  0.94208  0.58562  1.0000
  C   C33       1.0  0.57083  0.87718  0.50490  1.0000
  C   C34       1.0  0.42917  0.12282  0.49510  1.0000
  C   C35       1.0  0.43293  0.11547  0.32867  1.0000
  C   C36       1.0  0.56707  0.88453  0.67134  1.0000
  C   C37       1.0  0.57309  0.88001  0.33644  1.0000
  C   C38       1.0  0.42691  0.11999  0.66356  1.0000
  C   C39       1.0  0.46887  0.05118  0.24848  1.0000
  C   C40       1.0  0.53113  0.94882  0.75152  1.0000
  C   C41       1.0  0.36429  0.23611  0.32538  1.0000
  C   C42       1.0  0.63570  0.76389  0.67462  1.0000
  C   C43       1.0  0.53875  0.93573  0.25284  1.0000
  C   C44       1.0  0.46125  0.06427  0.74716  1.0000
  C   C45       1.0  0.33079  0.29829  0.40390  1.0000
  C   C46       1.0  0.66920  0.70170  0.59610  1.0000
  C   C47       1.0  0.63723  0.75824  0.51241  1.0000
  C   C48       1.0  0.36277  0.24175  0.48759  1.0000
  S   S1        1.0  0.28745  0.99208  0.98177  1.0000
  S   S2        1.0  0.71256  0.00792  0.01823  1.0000
  S   S3        1.0  0.25528  0.49049  0.08833  1.0000
  S   S4        1.0  0.74472  0.50951  0.91167  1.0000
  N   N1        1.0  0.44456  0.28797  0.97352  1.0000
  N   N2        1.0  0.55544  0.71203  0.02648  1.0000
  N   N3        1.0  0.07186  0.19828  0.05914  1.0000
  N   N4        1.0  0.92814  0.80171  0.94086  1.0000
  N   N5        1.0  0.02181  0.91338  0.12853  1.0000
  N   N6        1.0  0.97819  0.08662  0.87147  1.0000
  N   N7        1.0  0.35430  0.51961  0.88073  1.0000
  N   N8        1.0  0.64570  0.48039  0.11927  1.0000
  O   O1        1.0  0.19739  0.56506  0.55309  1.0000
  O   O2        1.0  0.80261  0.43494  0.44691  1.0000
  O   O3        1.0  0.15379  0.64597  0.39396  1.0000
  O   O4        1.0  0.84621  0.35403  0.60604  1.0000
  O   O5        1.0  0.10483  0.74052  0.62087  1.0000
  O   O6        1.0  0.89517  0.25949  0.37913  1.0000
  O   O7        1.0  0.05030  0.81658  0.45926  1.0000
  O   O8        1.0  0.94970  0.18342  0.54074  1.0000
