data_image0
_chemical_formula_structural       Ni2H28C42S4N8O10
_chemical_formula_sum              "Ni2 H28 C42 S4 N8 O10"
_cell_length_a       9.05586
_cell_length_b       9.47472
_cell_length_c       13.3631
_cell_angle_alpha    90.2178
_cell_angle_beta     104.256
_cell_angle_gamma    107.047

_space_group_name_H-M_alt    "P 1"
_space_group_IT_number       1

loop_
  _space_group_symop_operation_xyz
  'x, y, z'

loop_
  _atom_site_type_symbol
  _atom_site_label
  _atom_site_symmetry_multiplicity
  _atom_site_fract_x
  _atom_site_fract_y
  _atom_site_fract_z
  _atom_site_occupancy
  Ni  Ni1       1.0  0.50000  0.50000  0.00000  1.0000
  Ni  Ni2       1.0  0.00000  0.00000  0.00000  1.0000
  H   H1        1.0  0.26857  0.27275  0.68850  1.0000
  H   H2        1.0  0.73143  0.72724  0.31150  1.0000
  H   H3        1.0  0.34453  0.08980  0.80733  1.0000
  H   H4        1.0  0.65547  0.91020  0.19267  1.0000
  H   H5        1.0  0.46922  0.91160  0.74980  1.0000
  H   H6        1.0  0.53078  0.08840  0.25019  1.0000
  H   H7        1.0  0.32338  0.28182  0.51374  1.0000
  H   H8        1.0  0.67661  0.71818  0.48626  1.0000
  H   H9        1.0  0.53066  0.62625  0.79307  1.0000
  H   H10       1.0  0.46934  0.37376  0.20694  1.0000
  H   H11       1.0  0.63763  0.57667  0.64726  1.0000
  H   H12       1.0  0.36237  0.42333  0.35274  1.0000
  H   H13       1.0  0.81241  0.25107  0.82483  1.0000
  H   H14       1.0  0.18759  0.74893  0.17517  1.0000
  H   H15       1.0  0.69426  0.31298  0.96353  1.0000
  H   H16       1.0  0.30574  0.68702  0.03647  1.0000
  H   H17       1.0  0.10353  0.95247  0.22991  1.0000
  H   H18       1.0  0.89648  0.04753  0.77009  1.0000
  H   H19       1.0  0.06125  0.04064  0.39497  1.0000
  H   H20       1.0  0.93875  0.95936  0.60503  1.0000
  H   H21       1.0  0.89032  0.37351  0.22524  1.0000
  H   H22       1.0  0.10968  0.62649  0.77476  1.0000
  H   H23       1.0  0.93933  0.27177  0.06854  1.0000
  H   H24       1.0  0.06068  0.72823  0.93146  1.0000
  H   H25       1.0  0.90293  0.24629  0.58794  1.0000
  H   H26       1.0  0.09707  0.75372  0.41207  1.0000
  H   H27       1.0  0.82923  0.39432  0.46588  1.0000
  H   H28       1.0  0.17077  0.60568  0.53412  1.0000
  C   C1        1.0  0.32360  0.19548  0.66348  1.0000
  C   C2        1.0  0.67640  0.80451  0.33652  1.0000
  C   C3        1.0  0.36585  0.09228  0.73037  1.0000
  C   C4        1.0  0.63415  0.90771  0.26963  1.0000
  C   C5        1.0  0.43555  0.99263  0.69884  1.0000
  C   C6        1.0  0.56446  0.00737  0.30116  1.0000
  C   C7        1.0  0.46580  0.99643  0.60085  1.0000
  C   C8        1.0  0.53420  0.00357  0.39915  1.0000
  C   C9        1.0  0.42570  0.10231  0.53388  1.0000
  C   C10       1.0  0.57430  0.89769  0.46612  1.0000
  C   C11       1.0  0.54035  0.88894  0.56952  1.0000
  C   C12       1.0  0.45965  0.11106  0.43048  1.0000
  C   C13       1.0  0.35392  0.20072  0.56598  1.0000
  C   C14       1.0  0.64608  0.79927  0.43402  1.0000
  C   C15       1.0  0.61133  0.83291  0.96074  1.0000
  C   C16       1.0  0.38868  0.16710  0.03926  1.0000
  C   C17       1.0  0.86614  0.70233  0.09050  1.0000
  C   C18       1.0  0.13386  0.29767  0.90950  1.0000
  C   C19       1.0  0.59326  0.54354  0.79718  1.0000
  C   C20       1.0  0.40674  0.45646  0.20282  1.0000
  C   C21       1.0  0.65351  0.51541  0.71572  1.0000
  C   C22       1.0  0.34649  0.48459  0.28428  1.0000
  C   C23       1.0  0.73307  0.40818  0.72427  1.0000
  C   C24       1.0  0.26693  0.59182  0.27573  1.0000
  C   C25       1.0  0.75094  0.33479  0.81481  1.0000
  C   C26       1.0  0.24906  0.66521  0.18519  1.0000
  C   C27       1.0  0.68684  0.36953  0.89256  1.0000
  C   C28       1.0  0.31316  0.63048  0.10744  1.0000
  C   C29       1.0  0.79372  0.37236  0.63685  1.0000
  C   C30       1.0  0.20628  0.62764  0.36315  1.0000
  C   C31       1.0  0.05686  0.04554  0.23258  1.0000
  C   C32       1.0  0.94314  0.95446  0.76742  1.0000
  C   C33       1.0  0.03412  0.09513  0.32415  1.0000
  C   C34       1.0  0.96588  0.90487  0.67585  1.0000
  C   C35       1.0  0.97008  0.21282  0.32232  1.0000
  C   C36       1.0  0.02992  0.78718  0.67768  1.0000
  C   C37       1.0  0.93793  0.28008  0.22996  1.0000
  C   C38       1.0  0.06207  0.71992  0.77004  1.0000
  C   C39       1.0  0.96401  0.22349  0.14228  1.0000
  C   C40       1.0  0.03599  0.77651  0.85772  1.0000
  C   C41       1.0  0.93009  0.26179  0.41534  1.0000
  C   C42       1.0  0.06991  0.73821  0.58466  1.0000
  S   S1        1.0  0.71492  0.99935  0.94517  1.0000
  S   S2        1.0  0.28508  0.00065  0.05483  1.0000
  S   S3        1.0  0.75839  0.55949  0.13425  1.0000
  S   S4        1.0  0.24161  0.44051  0.86576  1.0000
  N   N1        1.0  0.53511  0.71159  0.97138  1.0000
  N   N2        1.0  0.46489  0.28840  0.02862  1.0000
  N   N3        1.0  0.94600  0.80600  0.05900  1.0000
  N   N4        1.0  0.05400  0.19401  0.94100  1.0000
  N   N5        1.0  0.60832  0.47111  0.88390  1.0000
  N   N6        1.0  0.39168  0.52889  0.11610  1.0000
  N   N7        1.0  0.01863  0.10582  0.14251  1.0000
  N   N8        1.0  0.98138  0.89418  0.85749  1.0000
  O   O1        1.0  0.57263  0.79474  0.62793  1.0000
  O   O2        1.0  0.42737  0.20526  0.37207  1.0000
  O   O3        1.0  0.86223  0.26652  0.65159  1.0000
  O   O4        1.0  0.13777  0.73349  0.34841  1.0000
  O   O5        1.0  0.77770  0.43927  0.55641  1.0000
  O   O6        1.0  0.22230  0.56073  0.44359  1.0000
  O   O7        1.0  0.95909  0.20395  0.49896  1.0000
  O   O8        1.0  0.04092  0.79605  0.50104  1.0000
  O   O9        1.0  0.86023  0.36645  0.40008  1.0000
  O   O10       1.0  0.13977  0.63354  0.59992  1.0000
