data_image0
_chemical_formula_structural       Cd2H36C38N8Cl2O4
_chemical_formula_sum              "Cd2 H36 C38 N8 Cl2 O4"
_cell_length_a       9.40557
_cell_length_b       9.80462
_cell_length_c       10.7763
_cell_angle_alpha    86.1053
_cell_angle_beta     80.8104
_cell_angle_gamma    72.0731

_space_group_name_H-M_alt    "P 1"
_space_group_IT_number       1

loop_
  _space_group_symop_operation_xyz
  'x, y, z'

loop_
  _atom_site_type_symbol
  _atom_site_label
  _atom_site_symmetry_multiplicity
  _atom_site_fract_x
  _atom_site_fract_y
  _atom_site_fract_z
  _atom_site_occupancy
  Cd  Cd1       1.0  0.45697  0.70158  0.50273  1.0000
  Cd  Cd2       1.0  0.54303  0.29842  0.49727  1.0000
  H   H1        1.0  0.08667  0.90572  0.54852  1.0000
  H   H2        1.0  0.91333  0.09428  0.45148  1.0000
  H   H3        1.0  0.24158  0.81881  0.12080  1.0000
  H   H4        1.0  0.75842  0.18119  0.87919  1.0000
  H   H5        1.0  0.17257  0.98585  0.19489  1.0000
  H   H6        1.0  0.82743  0.01416  0.80511  1.0000
  H   H7        1.0  0.47837  0.75810  0.97185  1.0000
  H   H8        1.0  0.52163  0.24190  0.02815  1.0000
  H   H9        1.0  0.32665  0.15727  0.16650  1.0000
  H   H10       1.0  0.67335  0.84274  0.83350  1.0000
  H   H11       1.0  0.73591  0.45875  0.62411  1.0000
  H   H12       1.0  0.26409  0.54125  0.37588  1.0000
  H   H13       1.0  0.70672  0.89725  0.56292  1.0000
  H   H14       1.0  0.29328  0.10275  0.43707  1.0000
  H   H15       1.0  0.97606  0.75257  0.65549  1.0000
  H   H16       1.0  0.02393  0.24743  0.34451  1.0000
  H   H17       1.0  0.10461  0.49876  0.70108  1.0000
  H   H18       1.0  0.89539  0.50124  0.29892  1.0000
  H   H19       1.0  0.04365  0.37092  0.63472  1.0000
  H   H20       1.0  0.95635  0.62908  0.36528  1.0000
  H   H21       1.0  0.74737  0.57277  0.86925  1.0000
  H   H22       1.0  0.25263  0.42723  0.13074  1.0000
  H   H23       1.0  0.67299  0.47789  0.08073  1.0000
  H   H24       1.0  0.32701  0.52211  0.91927  1.0000
  H   H25       1.0  0.83730  0.25133  0.16228  1.0000
  H   H26       1.0  0.16270  0.74867  0.83772  1.0000
  H   H27       1.0  0.08419  0.12611  0.03398  1.0000
  H   H28       1.0  0.91582  0.87390  0.96602  1.0000
  H   H29       1.0  0.25608  0.27793  0.74907  1.0000
  H   H30       1.0  0.74392  0.72207  0.25093  1.0000
  H   H31       1.0  0.28739  0.15428  0.87529  1.0000
  H   H32       1.0  0.71261  0.84572  0.12471  1.0000
  H   H33       1.0  0.97448  0.15295  0.69081  1.0000
  H   H34       1.0  0.02552  0.84705  0.30919  1.0000
  H   H35       1.0  0.43888  0.96212  0.71761  1.0000
  H   H36       1.0  0.56112  0.03788  0.28239  1.0000
  C   C1        1.0  0.14207  0.95230  0.60736  1.0000
  C   C2        1.0  0.85793  0.04770  0.39264  1.0000
  C   C3        1.0  0.33141  0.82886  0.28911  1.0000
  C   C4        1.0  0.66860  0.17114  0.71089  1.0000
  C   C5        1.0  0.27630  0.89766  0.16663  1.0000
  C   C6        1.0  0.72370  0.10235  0.83337  1.0000
  C   C7        1.0  0.48774  0.86444  0.98458  1.0000
  C   C8        1.0  0.51226  0.13556  0.01542  1.0000
  C   C9        1.0  0.38896  0.95173  0.07926  1.0000
  C   C10       1.0  0.61105  0.04827  0.92074  1.0000
  C   C11       1.0  0.40257  0.08815  0.09300  1.0000
  C   C12       1.0  0.59744  0.91186  0.90700  1.0000
  C   C13       1.0  0.76132  0.56024  0.61835  1.0000
  C   C14       1.0  0.23867  0.43976  0.38165  1.0000
  C   C15       1.0  0.75256  0.78504  0.58835  1.0000
  C   C16       1.0  0.24744  0.21496  0.41165  1.0000
  C   C17       1.0  0.88515  0.71598  0.63461  1.0000
  C   C18       1.0  0.11485  0.28402  0.36539  1.0000
  C   C19       1.0  0.00697  0.45895  0.70198  1.0000
  C   C20       1.0  0.99303  0.54105  0.29802  1.0000
  C   C21       1.0  0.95882  0.40428  0.83196  1.0000
  C   C22       1.0  0.04118  0.59572  0.16804  1.0000
  C   C23       1.0  0.82187  0.47457  0.90512  1.0000
  C   C24       1.0  0.17813  0.52543  0.09488  1.0000
  C   C25       1.0  0.77876  0.42086  0.02365  1.0000
  C   C26       1.0  0.22124  0.57914  0.97635  1.0000
  C   C27       1.0  0.87193  0.29409  0.07023  1.0000
  C   C28       1.0  0.12807  0.70591  0.92977  1.0000
  C   C29       1.0  0.00936  0.22440  0.99841  1.0000
  C   C30       1.0  0.99064  0.77560  0.00160  1.0000
  C   C31       1.0  0.05500  0.27863  0.88031  1.0000
  C   C32       1.0  0.94500  0.72137  0.11969  1.0000
  C   C33       1.0  0.20787  0.20327  0.80912  1.0000
  C   C34       1.0  0.79213  0.79673  0.19088  1.0000
  C   C35       1.0  0.08599  0.07470  0.67744  1.0000
  C   C36       1.0  0.91401  0.92530  0.32257  1.0000
  C   C37       1.0  0.32881  0.97500  0.69159  1.0000
  C   C38       1.0  0.67119  0.02500  0.30841  1.0000
  N   N1        1.0  0.67668  0.68667  0.57907  1.0000
  N   N2        1.0  0.32331  0.31333  0.42093  1.0000
  N   N3        1.0  0.88883  0.57405  0.65279  1.0000
  N   N4        1.0  0.11117  0.42595  0.34721  1.0000
  N   N5        1.0  0.20580  0.08691  0.73041  1.0000
  N   N6        1.0  0.79421  0.91309  0.26959  1.0000
  N   N7        1.0  0.29344  0.89155  0.61687  1.0000
  N   N8        1.0  0.70656  0.10845  0.38313  1.0000
  Cl  Cl1       1.0  0.37898  0.51144  0.65324  1.0000
  Cl  Cl2       1.0  0.62101  0.48855  0.34676  1.0000
  O   O1        1.0  0.44679  0.85135  0.32125  1.0000
  O   O2        1.0  0.55321  0.14865  0.67875  1.0000
  O   O3        1.0  0.25664  0.75416  0.35474  1.0000
  O   O4        1.0  0.74336  0.24584  0.64525  1.0000
