data_image0
_chemical_formula_structural       Ni2H26C38S4N8O8
_chemical_formula_sum              "Ni2 H26 C38 S4 N8 O8"
_cell_length_a       7.08931
_cell_length_b       11.0555
_cell_length_c       12.9913
_cell_angle_alpha    85.6512
_cell_angle_beta     77.6712
_cell_angle_gamma    79.9477

_space_group_name_H-M_alt    "P 1"
_space_group_IT_number       1

loop_
  _space_group_symop_operation_xyz
  'x, y, z'

loop_
  _atom_site_type_symbol
  _atom_site_label
  _atom_site_symmetry_multiplicity
  _atom_site_fract_x
  _atom_site_fract_y
  _atom_site_fract_z
  _atom_site_occupancy
  Ni  Ni1       1.0  0.00000  1.00000  0.00000  1.0000
  Ni  Ni2       1.0  0.00000  0.50000  1.00000  1.0000
  H   H1        1.0  0.17103  0.03127  0.76310  1.0000
  H   H2        1.0  0.82896  0.96871  0.23689  1.0000
  H   H3        1.0  0.03356  0.08410  0.59937  1.0000
  H   H4        1.0  0.96644  0.91589  0.40063  1.0000
  H   H5        1.0  0.47691  0.01440  0.78337  1.0000
  H   H6        1.0  0.52309  0.98560  0.21664  1.0000
  H   H7        1.0  0.63784  0.96109  0.93718  1.0000
  H   H8        1.0  0.36216  0.03891  0.06283  1.0000
  H   H9        1.0  0.86070  0.35353  0.21072  1.0000
  H   H10       1.0  0.13930  0.64647  0.78928  1.0000
  H   H11       1.0  0.01070  0.24632  0.35779  1.0000
  H   H12       1.0  0.98930  0.75368  0.64221  1.0000
  H   H13       1.0  0.54595  0.37694  0.20778  1.0000
  H   H14       1.0  0.45405  0.62306  0.79222  1.0000
  H   H15       1.0  0.37603  0.47697  0.06674  1.0000
  H   H16       1.0  0.62397  0.52302  0.93326  1.0000
  H   H17       1.0  0.40114  0.13090  0.54075  1.0000
  H   H18       1.0  0.59886  0.86910  0.45925  1.0000
  H   H19       1.0  0.64421  0.19259  0.41862  1.0000
  H   H20       1.0  0.35579  0.80741  0.58138  1.0000
  H   H21       1.0  0.84882  0.52567  0.43842  1.0000
  H   H22       1.0  0.15118  0.47434  0.56157  1.0000
  H   H23       1.0  0.60564  0.61332  0.33041  1.0000
  H   H24       1.0  0.39437  0.38669  0.66958  1.0000
  H   H25       1.0  0.99005  0.33094  0.73425  1.0000
  H   H26       1.0  0.00994  0.66908  0.26575  1.0000
  C   C1        1.0  0.20445  0.22785  0.91444  1.0000
  C   C2        1.0  0.79554  0.77215  0.08556  1.0000
  C   C3        1.0  0.77441  0.28070  0.03535  1.0000
  C   C4        1.0  0.22559  0.71930  0.96465  1.0000
  C   C5        1.0  0.01824  0.02821  0.76373  1.0000
  C   C6        1.0  0.98176  0.97178  0.23627  1.0000
  C   C7        1.0  0.94199  0.05760  0.67315  1.0000
  C   C8        1.0  0.05801  0.94239  0.32685  1.0000
  C   C9        1.0  0.74290  0.05598  0.67981  1.0000
  C   C10       1.0  0.25710  0.94402  0.32019  1.0000
  C   C11       1.0  0.63121  0.01893  0.77518  1.0000
  C   C12       1.0  0.36879  0.98107  0.22482  1.0000
  C   C13       1.0  0.71949  0.99040  0.86143  1.0000
  C   C14       1.0  0.28051  0.00960  0.13857  1.0000
  C   C15       1.0  0.65085  0.09714  0.58797  1.0000
  C   C16       1.0  0.34916  0.90286  0.41203  1.0000
  C   C17       1.0  0.01270  0.35597  0.21255  1.0000
  C   C18       1.0  0.98730  0.64403  0.78746  1.0000
  C   C19       1.0  0.09609  0.29621  0.29420  1.0000
  C   C20       1.0  0.90391  0.70380  0.70580  1.0000
  C   C21       1.0  0.29263  0.30114  0.29241  1.0000
  C   C22       1.0  0.70737  0.69887  0.70759  1.0000
  C   C23       1.0  0.39493  0.36811  0.21053  1.0000
  C   C24       1.0  0.60508  0.63189  0.78947  1.0000
  C   C25       1.0  0.30081  0.42440  0.13202  1.0000
  C   C26       1.0  0.69919  0.57560  0.86798  1.0000
  C   C27       1.0  0.39179  0.23597  0.37534  1.0000
  C   C28       1.0  0.60821  0.76403  0.62466  1.0000
  C   C29       1.0  0.69626  0.51416  0.46529  1.0000
  C   C30       1.0  0.30375  0.48584  0.53469  1.0000
  C   C31       1.0  0.63901  0.44905  0.56137  1.0000
  C   C32       1.0  0.36100  0.55095  0.43861  1.0000
  C   C33       1.0  0.55950  0.56433  0.40514  1.0000
  C   C34       1.0  0.44050  0.43568  0.59485  1.0000
  C   C35       1.0  0.77679  0.40026  0.62506  1.0000
  C   C36       1.0  0.22322  0.59975  0.37493  1.0000
  C   C37       1.0  0.89075  0.36153  0.68232  1.0000
  C   C38       1.0  0.10925  0.63848  0.31768  1.0000
  S   S1        1.0  0.26477  0.36317  0.88161  1.0000
  S   S2        1.0  0.73522  0.63683  0.11839  1.0000
  S   S3        1.0  0.70396  0.14798  0.06257  1.0000
  S   S4        1.0  0.29604  0.85201  0.93744  1.0000
  N   N1        1.0  0.16083  0.12937  0.93823  1.0000
  N   N2        1.0  0.83917  0.87063  0.06177  1.0000
  N   N3        1.0  0.82194  0.37893  0.01888  1.0000
  N   N4        1.0  0.17806  0.62106  0.98112  1.0000
  N   N5        1.0  0.90800  0.99845  0.85705  1.0000
  N   N6        1.0  0.09201  0.00154  0.14296  1.0000
  N   N7        1.0  0.11340  0.41791  0.13192  1.0000
  N   N8        1.0  0.88660  0.58209  0.86809  1.0000
  O   O1        1.0  0.74857  0.13079  0.50227  1.0000
  O   O2        1.0  0.25143  0.86921  0.49774  1.0000
  O   O3        1.0  0.46053  0.09691  0.60625  1.0000
  O   O4        1.0  0.53946  0.90309  0.39376  1.0000
  O   O5        1.0  0.58041  0.23968  0.35871  1.0000
  O   O6        1.0  0.41959  0.76033  0.64129  1.0000
  O   O7        1.0  0.29988  0.18169  0.45285  1.0000
  O   O8        1.0  0.70012  0.81831  0.54715  1.0000
