data_image0
_chemical_formula_structural       Mn3H30C36S6N12
_chemical_formula_sum              "Mn3 H30 C36 S6 N12"
_cell_length_a       8.66087
_cell_length_b       8.43511
_cell_length_c       15.7035
_cell_angle_alpha    93.4547
_cell_angle_beta     96.4182
_cell_angle_gamma    114.062

_space_group_name_H-M_alt    "P 1"
_space_group_IT_number       1

loop_
  _space_group_symop_operation_xyz
  'x, y, z'

loop_
  _atom_site_type_symbol
  _atom_site_label
  _atom_site_symmetry_multiplicity
  _atom_site_fract_x
  _atom_site_fract_y
  _atom_site_fract_z
  _atom_site_occupancy
  Mn  Mn1       1.0  0.50000  0.50000  0.50000  1.0000
  Mn  Mn2       1.0  0.83121  0.82416  0.83550  1.0000
  Mn  Mn3       1.0  0.16880  0.17584  0.16450  1.0000
  H   H1        1.0  0.70556  0.88319  0.01033  1.0000
  H   H2        1.0  0.29445  0.11681  0.98967  1.0000
  H   H3        1.0  0.44224  0.77822  0.08186  1.0000
  H   H4        1.0  0.55776  0.22178  0.91815  1.0000
  H   H5        1.0  0.17342  0.53964  0.00208  1.0000
  H   H6        1.0  0.82658  0.46036  0.99792  1.0000
  H   H7        1.0  0.17771  0.41382  0.85361  1.0000
  H   H8        1.0  0.82229  0.58619  0.14639  1.0000
  H   H9        1.0  0.45175  0.53494  0.79107  1.0000
  H   H10       1.0  0.54825  0.46507  0.20893  1.0000
  H   H11       1.0  0.00957  0.08127  0.70026  1.0000
  H   H12       1.0  0.99043  0.91873  0.29974  1.0000
  H   H13       1.0  0.28593  0.20304  0.63962  1.0000
  H   H14       1.0  0.71406  0.79696  0.36037  1.0000
  H   H15       1.0  0.51665  0.10990  0.69186  1.0000
  H   H16       1.0  0.48334  0.89010  0.30813  1.0000
  H   H17       1.0  0.46211  0.89793  0.80201  1.0000
  H   H18       1.0  0.53789  0.10208  0.19799  1.0000
  H   H19       1.0  0.17757  0.78639  0.85497  1.0000
  H   H20       1.0  0.82243  0.21361  0.14503  1.0000
  H   H21       1.0  0.11862  0.24579  0.42194  1.0000
  H   H22       1.0  0.88138  0.75421  0.57806  1.0000
  H   H23       1.0  0.82198  0.13489  0.46057  1.0000
  H   H24       1.0  0.17802  0.86511  0.53943  1.0000
  H   H25       1.0  0.77951  0.25154  0.60212  1.0000
  H   H26       1.0  0.22049  0.74846  0.39788  1.0000
  H   H27       1.0  0.03488  0.47577  0.69999  1.0000
  H   H28       1.0  0.96512  0.52424  0.30001  1.0000
  H   H29       1.0  0.32336  0.57170  0.65182  1.0000
  H   H30       1.0  0.67664  0.42830  0.34818  1.0000
  C   C1        1.0  0.64143  0.84599  0.64855  1.0000
  C   C2        1.0  0.35857  0.15400  0.35145  1.0000
  C   C3        1.0  0.67055  0.47587  0.69069  1.0000
  C   C4        1.0  0.32945  0.52412  0.30930  1.0000
  C   C5        1.0  0.96391  0.17690  0.97830  1.0000
  C   C6        1.0  0.03608  0.82309  0.02169  1.0000
  C   C7        1.0  0.58554  0.78024  0.97758  1.0000
  C   C8        1.0  0.41446  0.21976  0.02242  1.0000
  C   C9        1.0  0.43936  0.72122  0.01726  1.0000
  C   C10       1.0  0.56064  0.27877  0.98274  1.0000
  C   C11       1.0  0.28967  0.58847  0.97260  1.0000
  C   C12       1.0  0.71034  0.41152  0.02740  1.0000
  C   C13       1.0  0.29191  0.51898  0.89002  1.0000
  C   C14       1.0  0.70809  0.48102  0.10998  1.0000
  C   C15       1.0  0.44363  0.58581  0.85516  1.0000
  C   C16       1.0  0.55638  0.41419  0.14484  1.0000
  C   C17       1.0  0.11312  0.04359  0.72070  1.0000
  C   C18       1.0  0.88688  0.95641  0.27930  1.0000
  C   C19       1.0  0.26655  0.11103  0.68727  1.0000
  C   C20       1.0  0.73345  0.88897  0.31272  1.0000
  C   C21       1.0  0.39494  0.05913  0.71639  1.0000
  C   C22       1.0  0.60506  0.94087  0.28360  1.0000
  C   C23       1.0  0.36476  0.94104  0.77763  1.0000
  C   C24       1.0  0.63524  0.05896  0.22236  1.0000
  C   C25       1.0  0.20721  0.87895  0.80717  1.0000
  C   C26       1.0  0.79279  0.12105  0.19283  1.0000
  C   C27       1.0  0.09443  0.29271  0.48310  1.0000
  C   C28       1.0  0.90557  0.70729  0.51690  1.0000
  C   C29       1.0  0.93001  0.23155  0.50470  1.0000
  C   C30       1.0  0.06999  0.76845  0.49530  1.0000
  C   C31       1.0  0.90683  0.29662  0.58371  1.0000
  C   C32       1.0  0.09317  0.70338  0.41629  1.0000
  C   C33       1.0  0.04884  0.42092  0.63817  1.0000
  C   C34       1.0  0.95116  0.57908  0.36183  1.0000
  C   C35       1.0  0.20865  0.47470  0.61157  1.0000
  C   C36       1.0  0.79134  0.52530  0.38843  1.0000
  S   S1        1.0  0.55791  0.83380  0.54928  1.0000
  S   S2        1.0  0.44210  0.16620  0.45073  1.0000
  S   S3        1.0  0.77809  0.49506  0.78513  1.0000
  S   S4        1.0  0.22191  0.50493  0.21487  1.0000
  S   S5        1.0  0.86926  0.15029  0.87994  1.0000
  S   S6        1.0  0.13074  0.84971  0.12006  1.0000
  N   N1        1.0  0.70139  0.85400  0.72132  1.0000
  N   N2        1.0  0.29861  0.14599  0.27869  1.0000
  N   N3        1.0  0.58956  0.45882  0.62192  1.0000
  N   N4        1.0  0.41045  0.54118  0.37808  1.0000
  N   N5        1.0  0.03184  0.19671  0.05052  1.0000
  N   N6        1.0  0.96817  0.80328  0.94949  1.0000
  N   N7        1.0  0.58823  0.71484  0.89764  1.0000
  N   N8        1.0  0.41177  0.28516  0.10236  1.0000
  N   N9        1.0  0.08298  0.92910  0.77958  1.0000
  N   N10       1.0  0.91702  0.07090  0.22042  1.0000
  N   N11       1.0  0.23202  0.41175  0.53555  1.0000
  N   N12       1.0  0.76798  0.58825  0.46444  1.0000
