data_image0
_chemical_formula_structural       Cd4H44C68N12O16
_chemical_formula_sum              "Cd4 H44 C68 N12 O16"
_cell_length_a       7.55623
_cell_length_b       11.9791
_cell_length_c       16.8
_cell_angle_alpha    98.9514
_cell_angle_beta     90
_cell_angle_gamma    90

_space_group_name_H-M_alt    "P 1"
_space_group_IT_number       1

loop_
  _space_group_symop_operation_xyz
  'x, y, z'

loop_
  _atom_site_type_symbol
  _atom_site_label
  _atom_site_symmetry_multiplicity
  _atom_site_fract_x
  _atom_site_fract_y
  _atom_site_fract_z
  _atom_site_occupancy
  Cd  Cd1       1.0  0.73536  0.79130  0.77720  1.0000
  Cd  Cd2       1.0  0.23536  0.70870  0.72280  1.0000
  Cd  Cd3       1.0  0.26465  0.20870  0.22280  1.0000
  Cd  Cd4       1.0  0.76465  0.29130  0.27720  1.0000
  H   H1        1.0  0.83262  0.05847  0.75369  1.0000
  H   H2        1.0  0.33262  0.44153  0.74631  1.0000
  H   H3        1.0  0.16738  0.94153  0.24631  1.0000
  H   H4        1.0  0.66738  0.55847  0.25369  1.0000
  H   H5        1.0  0.51087  0.95357  0.93200  1.0000
  H   H6        1.0  0.01087  0.54643  0.56800  1.0000
  H   H7        1.0  0.48913  0.04643  0.06800  1.0000
  H   H8        1.0  0.98913  0.45357  0.43200  1.0000
  H   H9        1.0  0.55669  0.18805  0.96864  1.0000
  H   H10       1.0  0.05669  0.31195  0.53137  1.0000
  H   H11       1.0  0.44331  0.81195  0.03137  1.0000
  H   H12       1.0  0.94331  0.68805  0.46863  1.0000
  H   H13       1.0  0.85779  0.30756  0.97404  1.0000
  H   H14       1.0  0.35779  0.19244  0.52596  1.0000
  H   H15       1.0  0.14221  0.69244  0.02596  1.0000
  H   H16       1.0  0.64221  0.80756  0.47404  1.0000
  H   H17       1.0  0.94656  0.56351  0.82508  1.0000
  H   H18       1.0  0.44655  0.93649  0.67492  1.0000
  H   H19       1.0  0.05344  0.43649  0.17492  1.0000
  H   H20       1.0  0.55344  0.06351  0.32508  1.0000
  H   H21       1.0  0.81072  0.44039  0.70790  1.0000
  H   H22       1.0  0.31072  0.05961  0.79210  1.0000
  H   H23       1.0  0.18928  0.55961  0.29210  1.0000
  H   H24       1.0  0.68928  0.94039  0.20790  1.0000
  H   H25       1.0  0.69274  0.24882  0.72476  1.0000
  H   H26       1.0  0.19274  0.25118  0.77524  1.0000
  H   H27       1.0  0.30726  0.75118  0.27524  1.0000
  H   H28       1.0  0.80726  0.74882  0.22476  1.0000
  H   H29       1.0  0.38284  0.69610  0.53228  1.0000
  H   H30       1.0  0.88284  0.80390  0.96772  1.0000
  H   H31       1.0  0.61716  0.30390  0.46772  1.0000
  H   H32       1.0  0.11716  0.19610  0.03228  1.0000
  H   H33       1.0  0.71254  0.42962  0.59345  1.0000
  H   H34       1.0  0.21254  0.07038  0.90655  1.0000
  H   H35       1.0  0.28746  0.57038  0.40655  1.0000
  H   H36       1.0  0.78746  0.92962  0.09345  1.0000
  H   H37       1.0  0.81305  0.04937  0.62184  1.0000
  H   H38       1.0  0.31305  0.45063  0.87816  1.0000
  H   H39       1.0  0.18695  0.95063  0.37816  1.0000
  H   H40       1.0  0.68695  0.54937  0.12184  1.0000
  H   H41       1.0  0.18405  0.82642  0.48497  1.0000
  H   H42       1.0  0.68405  0.67358  0.01503  1.0000
  H   H43       1.0  0.81595  0.17358  0.51503  1.0000
  H   H44       1.0  0.31595  0.32642  0.98497  1.0000
  C   C1        1.0  0.74809  0.06165  0.80604  1.0000
  C   C2        1.0  0.24809  0.43835  0.69396  1.0000
  C   C3        1.0  0.25191  0.93835  0.19396  1.0000
  C   C4        1.0  0.75191  0.56165  0.30605  1.0000
  C   C5        1.0  0.58518  0.01119  0.90126  1.0000
  C   C6        1.0  0.08518  0.48881  0.59874  1.0000
  C   C7        1.0  0.41482  0.98881  0.09874  1.0000
  C   C8        1.0  0.91482  0.51119  0.40126  1.0000
  C   C9        1.0  0.60596  0.12625  0.91965  1.0000
  C   C10       1.0  0.10595  0.37375  0.58035  1.0000
  C   C11       1.0  0.39405  0.87375  0.08035  1.0000
  C   C12       1.0  0.89404  0.62625  0.41965  1.0000
  C   C13       1.0  0.77043  0.26720  0.84996  1.0000
  C   C14       1.0  0.27043  0.23280  0.65004  1.0000
  C   C15       1.0  0.22957  0.73280  0.15004  1.0000
  C   C16       1.0  0.72957  0.76720  0.34996  1.0000
  C   C17       1.0  0.84593  0.33538  0.91556  1.0000
  C   C18       1.0  0.34593  0.16462  0.58444  1.0000
  C   C19       1.0  0.15407  0.66462  0.08444  1.0000
  C   C20       1.0  0.65407  0.83538  0.41556  1.0000
  C   C21       1.0  0.90944  0.44253  0.90532  1.0000
  C   C22       1.0  0.40944  0.05747  0.59468  1.0000
  C   C23       1.0  0.09056  0.55747  0.09468  1.0000
  C   C24       1.0  0.59056  0.94253  0.40532  1.0000
  C   C25       1.0  0.89708  0.47956  0.83041  1.0000
  C   C26       1.0  0.39708  0.02044  0.66959  1.0000
  C   C27       1.0  0.10292  0.52044  0.16959  1.0000
  C   C28       1.0  0.60291  0.97956  0.33041  1.0000
  C   C29       1.0  0.82133  0.40954  0.76527  1.0000
  C   C30       1.0  0.32133  0.09046  0.73473  1.0000
  C   C31       1.0  0.17867  0.59046  0.23473  1.0000
  C   C32       1.0  0.67867  0.90954  0.26527  1.0000
  C   C33       1.0  0.75663  0.30339  0.77456  1.0000
  C   C34       1.0  0.25663  0.19661  0.72544  1.0000
  C   C35       1.0  0.24337  0.69661  0.22544  1.0000
  C   C36       1.0  0.74337  0.80339  0.27456  1.0000
  C   C37       1.0  0.61294  0.64671  0.64440  1.0000
  C   C38       1.0  0.11294  0.85329  0.85560  1.0000
  C   C39       1.0  0.38706  0.35329  0.35560  1.0000
  C   C40       1.0  0.88706  0.14671  0.14440  1.0000
  C   C41       1.0  0.55417  0.57057  0.57020  1.0000
  C   C42       1.0  0.05417  0.92942  0.92980  1.0000
  C   C43       1.0  0.44583  0.42943  0.42980  1.0000
  C   C44       1.0  0.94583  0.07057  0.07020  1.0000
  C   C45       1.0  0.43497  0.61056  0.51715  1.0000
  C   C46       1.0  0.93497  0.88943  0.98285  1.0000
  C   C47       1.0  0.56503  0.38944  0.48285  1.0000
  C   C48       1.0  0.06503  0.11056  0.01715  1.0000
  C   C49       1.0  0.61836  0.45966  0.55255  1.0000
  C   C50       1.0  0.11836  0.04034  0.94745  1.0000
  C   C51       1.0  0.38164  0.54034  0.44746  1.0000
  C   C52       1.0  0.88164  0.95966  0.05255  1.0000
  C   C53       1.0  0.99994  0.85747  0.62561  1.0000
  C   C54       1.0  0.49994  0.64254  0.87439  1.0000
  C   C55       1.0  0.00006  0.14253  0.37439  1.0000
  C   C56       1.0  0.50006  0.35747  0.12561  1.0000
  C   C57       1.0  0.99805  0.93009  0.55996  1.0000
  C   C58       1.0  0.49805  0.56991  0.94003  1.0000
  C   C59       1.0  0.00195  0.06991  0.44003  1.0000
  C   C60       1.0  0.50195  0.43009  0.05996  1.0000
  C   C61       1.0  0.89681  0.02923  0.56883  1.0000
  C   C62       1.0  0.39681  0.47077  0.93117  1.0000
  C   C63       1.0  0.10319  0.97077  0.43117  1.0000
  C   C64       1.0  0.60319  0.52923  0.06883  1.0000
  C   C65       1.0  0.10128  0.90169  0.49041  1.0000
  C   C66       1.0  0.60128  0.59831  0.00959  1.0000
  C   C67       1.0  0.89872  0.09831  0.50959  1.0000
  C   C68       1.0  0.39872  0.40169  0.99041  1.0000
  N   N1        1.0  0.70911  0.15718  0.85816  1.0000
  N   N2        1.0  0.20911  0.34282  0.64184  1.0000
  N   N3        1.0  0.29089  0.84282  0.14184  1.0000
  N   N4        1.0  0.79088  0.65718  0.35816  1.0000
  N   N5        1.0  0.67477  0.97247  0.83086  1.0000
  N   N6        1.0  0.17477  0.52753  0.66914  1.0000
  N   N7        1.0  0.32523  0.02753  0.16914  1.0000
  N   N8        1.0  0.82523  0.47247  0.33086  1.0000
  N   N9        1.0  0.98860  0.51937  0.96745  1.0000
  N   N10       1.0  0.48860  0.98063  0.53255  1.0000
  N   N11       1.0  0.01140  0.48063  0.03255  1.0000
  N   N12       1.0  0.51140  0.01937  0.46745  1.0000
  O   O1        1.0  0.51866  0.73497  0.67056  1.0000
  O   O2        1.0  0.01866  0.76503  0.82944  1.0000
  O   O3        1.0  0.48135  0.26503  0.32944  1.0000
  O   O4        1.0  0.98135  0.23497  0.17056  1.0000
  O   O5        1.0  0.75434  0.62510  0.67946  1.0000
  O   O6        1.0  0.25434  0.87490  0.82054  1.0000
  O   O7        1.0  0.24566  0.37491  0.32054  1.0000
  O   O8        1.0  0.74566  0.12509  0.17946  1.0000
  O   O9        1.0  0.89809  0.88570  0.68527  1.0000
  O   O10       1.0  0.39809  0.61430  0.81472  1.0000
  O   O11       1.0  0.10191  0.11430  0.31473  1.0000
  O   O12       1.0  0.60191  0.38570  0.18527  1.0000
  O   O13       1.0  0.10662  0.77343  0.61597  1.0000
  O   O14       1.0  0.60662  0.72657  0.88403  1.0000
  O   O15       1.0  0.89338  0.22657  0.38403  1.0000
  O   O16       1.0  0.39337  0.27343  0.11596  1.0000
