data_image0
_chemical_formula_structural       Hg4H28C44N12Cl8O4F8
_chemical_formula_sum              "Hg4 H28 C44 N12 Cl8 O4 F8"
_cell_length_a       3.92539
_cell_length_b       10.7318
_cell_length_c       31.538
_cell_angle_alpha    99.9134
_cell_angle_beta     90
_cell_angle_gamma    90

_space_group_name_H-M_alt    "P 1"
_space_group_IT_number       1

loop_
  _space_group_symop_operation_xyz
  'x, y, z'

loop_
  _atom_site_type_symbol
  _atom_site_label
  _atom_site_symmetry_multiplicity
  _atom_site_fract_x
  _atom_site_fract_y
  _atom_site_fract_z
  _atom_site_occupancy
  Hg  Hg1       1.0  0.06773  0.81941  0.76171  1.0000
  Hg  Hg2       1.0  0.56769  0.18058  0.73829  1.0000
  Hg  Hg3       1.0  0.93231  0.18058  0.23829  1.0000
  Hg  Hg4       1.0  0.43230  0.81941  0.26171  1.0000
  H   H1        1.0  0.61202  0.45360  0.85497  1.0000
  H   H2        1.0  0.11205  0.54640  0.64503  1.0000
  H   H3        1.0  0.38795  0.54640  0.14503  1.0000
  H   H4        1.0  0.88799  0.45360  0.35497  1.0000
  H   H5        1.0  0.73384  0.55847  0.79100  1.0000
  H   H6        1.0  0.23385  0.44153  0.70900  1.0000
  H   H7        1.0  0.26615  0.44154  0.20900  1.0000
  H   H8        1.0  0.76616  0.55846  0.29101  1.0000
  H   H9        1.0  0.23693  0.85090  0.87081  1.0000
  H   H10       1.0  0.73692  0.14909  0.62919  1.0000
  H   H11       1.0  0.76307  0.14910  0.12919  1.0000
  H   H12       1.0  0.26308  0.85090  0.37081  1.0000
  H   H13       1.0  0.74949  0.64004  0.11324  1.0000
  H   H14       1.0  0.24949  0.35996  0.38676  1.0000
  H   H15       1.0  0.25053  0.35997  0.88676  1.0000
  H   H16       1.0  0.75052  0.64004  0.61324  1.0000
  H   H17       1.0  0.01749  0.84525  0.14910  1.0000
  H   H18       1.0  0.51748  0.15476  0.35090  1.0000
  H   H19       1.0  0.98253  0.15476  0.85090  1.0000
  H   H20       1.0  0.48251  0.84524  0.64910  1.0000
  H   H21       1.0  0.28034  0.93002  0.02451  1.0000
  H   H22       1.0  0.78033  0.06999  0.47549  1.0000
  H   H23       1.0  0.71964  0.06999  0.97549  1.0000
  H   H24       1.0  0.21966  0.93001  0.52451  1.0000
  H   H25       1.0  0.85779  0.63105  0.96841  1.0000
  H   H26       1.0  0.35777  0.36895  0.53159  1.0000
  H   H27       1.0  0.14220  0.36895  0.03159  1.0000
  H   H28       1.0  0.64222  0.63105  0.46841  1.0000
  C   C1        1.0  0.74581  0.54398  0.85900  1.0000
  C   C2        1.0  0.24584  0.45602  0.64100  1.0000
  C   C3        1.0  0.25416  0.45603  0.14100  1.0000
  C   C4        1.0  0.75419  0.54397  0.35900  1.0000
  C   C5        1.0  0.81781  0.60034  0.82328  1.0000
  C   C6        1.0  0.31782  0.39966  0.67671  1.0000
  C   C7        1.0  0.18218  0.39967  0.17671  1.0000
  C   C8        1.0  0.68219  0.60033  0.32329  1.0000
  C   C9        1.0  0.09256  0.76299  0.86719  1.0000
  C   C10       1.0  0.59255  0.23700  0.63281  1.0000
  C   C11       1.0  0.90743  0.23701  0.13281  1.0000
  C   C12       1.0  0.40745  0.76299  0.36719  1.0000
  C   C13       1.0  0.00970  0.70733  0.90297  1.0000
  C   C14       1.0  0.50971  0.29266  0.59703  1.0000
  C   C15       1.0  0.99028  0.29267  0.09703  1.0000
  C   C16       1.0  0.49030  0.70733  0.40297  1.0000
  C   C17       1.0  0.11372  0.77165  0.94735  1.0000
  C   C18       1.0  0.61372  0.22834  0.55264  1.0000
  C   C19       1.0  0.88626  0.22836  0.05265  1.0000
  C   C20       1.0  0.38628  0.77164  0.44735  1.0000
  C   C21       1.0  0.01295  0.75196  0.02343  1.0000
  C   C22       1.0  0.51295  0.24804  0.47657  1.0000
  C   C23       1.0  0.98704  0.24805  0.97657  1.0000
  C   C24       1.0  0.48705  0.75195  0.52343  1.0000
  C   C25       1.0  0.86855  0.67365  0.05008  1.0000
  C   C26       1.0  0.36855  0.32636  0.44992  1.0000
  C   C27       1.0  0.13146  0.32636  0.94992  1.0000
  C   C28       1.0  0.63146  0.67364  0.55008  1.0000
  C   C29       1.0  0.86825  0.70403  0.09444  1.0000
  C   C30       1.0  0.36825  0.29598  0.40556  1.0000
  C   C31       1.0  0.13177  0.29597  0.90556  1.0000
  C   C32       1.0  0.63176  0.70403  0.59444  1.0000
  C   C33       1.0  0.01640  0.81741  0.11427  1.0000
  C   C34       1.0  0.51640  0.18260  0.38573  1.0000
  C   C35       1.0  0.98362  0.18260  0.88573  1.0000
  C   C36       1.0  0.48360  0.81740  0.61427  1.0000
  C   C37       1.0  0.15878  0.89454  0.08790  1.0000
  C   C38       1.0  0.65879  0.10547  0.41210  1.0000
  C   C39       1.0  0.84122  0.10547  0.91210  1.0000
  C   C40       1.0  0.34121  0.89453  0.58790  1.0000
  C   C41       1.0  0.16407  0.86574  0.04332  1.0000
  C   C42       1.0  0.66407  0.13426  0.45669  1.0000
  C   C43       1.0  0.83593  0.13427  0.95668  1.0000
  C   C44       1.0  0.33592  0.86574  0.54331  1.0000
  N   N1        1.0  0.83707  0.59794  0.89877  1.0000
  N   N2        1.0  0.33709  0.40205  0.60123  1.0000
  N   N3        1.0  0.16290  0.40206  0.10123  1.0000
  N   N4        1.0  0.66294  0.59794  0.39877  1.0000
  N   N5        1.0  0.99153  0.70947  0.82767  1.0000
  N   N6        1.0  0.49152  0.29053  0.67232  1.0000
  N   N7        1.0  0.00847  0.29054  0.17232  1.0000
  N   N8        1.0  0.50848  0.70946  0.32768  1.0000
  N   N9        1.0  0.98845  0.71280  0.97909  1.0000
  N   N10       1.0  0.48844  0.28720  0.52091  1.0000
  N   N11       1.0  0.01154  0.28721  0.02091  1.0000
  N   N12       1.0  0.51155  0.71280  0.47909  1.0000
  Cl  Cl1       1.0  0.46380  0.96990  0.79793  1.0000
  Cl  Cl2       1.0  0.96380  0.03010  0.70206  1.0000
  Cl  Cl3       1.0  0.53620  0.03010  0.20206  1.0000
  Cl  Cl4       1.0  0.03620  0.96989  0.29794  1.0000
  Cl  Cl5       1.0  0.71033  0.67447  0.71603  1.0000
  Cl  Cl6       1.0  0.21034  0.32552  0.78397  1.0000
  Cl  Cl7       1.0  0.28968  0.32552  0.28397  1.0000
  Cl  Cl8       1.0  0.78966  0.67448  0.21603  1.0000
  O   O1        1.0  0.29422  0.86737  0.95257  1.0000
  O   O2        1.0  0.79421  0.13262  0.54742  1.0000
  O   O3        1.0  0.70576  0.13263  0.04743  1.0000
  O   O4        1.0  0.20577  0.86737  0.45257  1.0000
  F   F1        1.0  0.71707  0.56347  0.03054  1.0000
  F   F2        1.0  0.21706  0.43653  0.46946  1.0000
  F   F3        1.0  0.28295  0.43653  0.96946  1.0000
  F   F4        1.0  0.78295  0.56347  0.53054  1.0000
  F   F5        1.0  0.30134  0.00624  0.10693  1.0000
  F   F6        1.0  0.80133  0.99377  0.39307  1.0000
  F   F7        1.0  0.69866  0.99377  0.89307  1.0000
  F   F8        1.0  0.19865  0.00623  0.60693  1.0000
