data_image0
_chemical_formula_structural       Sb2H16C8N4Cl6O4
_chemical_formula_sum              "Sb2 H16 C8 N4 Cl6 O4"
_cell_length_a       7.12812
_cell_length_b       8.82141
_cell_length_c       10.4787
_cell_angle_alpha    96.3762
_cell_angle_beta     111.484
_cell_angle_gamma    108.73

_space_group_name_H-M_alt    "P 1"
_space_group_IT_number       1

loop_
  _space_group_symop_operation_xyz
  'x, y, z'

loop_
  _atom_site_type_symbol
  _atom_site_label
  _atom_site_symmetry_multiplicity
  _atom_site_fract_x
  _atom_site_fract_y
  _atom_site_fract_z
  _atom_site_occupancy
  Sb  Sb1       1.0  0.29914  0.83897  0.31301  1.0000
  Sb  Sb2       1.0  0.70086  0.16103  0.68697  1.0000
  H   H1        1.0  0.17828  0.16900  0.41568  1.0000
  H   H2        1.0  0.82174  0.83098  0.58434  1.0000
  H   H3        1.0  0.03152  0.33743  0.29518  1.0000
  H   H4        1.0  0.96853  0.66258  0.70484  1.0000
  H   H5        1.0  0.86693  0.32083  0.39104  1.0000
  H   H6        1.0  0.13311  0.67919  0.60901  1.0000
  H   H7        1.0  0.77080  0.16825  0.23004  1.0000
  H   H8        1.0  0.22921  0.83175  0.76997  1.0000
  H   H9        1.0  0.16865  0.19829  0.93552  1.0000
  H   H10       1.0  0.83133  0.80172  0.06449  1.0000
  H   H11       1.0  0.38530  0.44388  0.14266  1.0000
  H   H12       1.0  0.61464  0.55616  0.85732  1.0000
  H   H13       1.0  0.55659  0.34185  0.12533  1.0000
  H   H14       1.0  0.44342  0.65818  0.87467  1.0000
  H   H15       1.0  0.44132  0.30631  0.25099  1.0000
  H   H16       1.0  0.55865  0.69371  0.74905  1.0000
  C   C1        1.0  0.93187  0.04649  0.46301  1.0000
  C   C2        1.0  0.06817  0.95350  0.53698  1.0000
  C   C3        1.0  0.91721  0.25096  0.32569  1.0000
  C   C4        1.0  0.08285  0.74902  0.67435  1.0000
  C   C5        1.0  0.10028  0.06116  0.06589  1.0000
  C   C6        1.0  0.89976  0.93888  0.93411  1.0000
  C   C7        1.0  0.41256  0.32841  0.14599  1.0000
  C   C8        1.0  0.58728  0.67153  0.85395  1.0000
  N   N1        1.0  0.02521  0.15538  0.40535  1.0000
  N   N2        1.0  0.97480  0.84460  0.59466  1.0000
  N   N3        1.0  0.22210  0.19087  0.03881  1.0000
  N   N4        1.0  0.77787  0.80913  0.96117  1.0000
  Cl  Cl1       1.0  0.41087  0.63755  0.43110  1.0000
  Cl  Cl2       1.0  0.58913  0.36245  0.56888  1.0000
  Cl  Cl3       1.0  0.91425  0.66521  0.24214  1.0000
  Cl  Cl4       1.0  0.08575  0.33479  0.75784  1.0000
  Cl  Cl5       1.0  0.30947  0.73418  0.09189  1.0000
  Cl  Cl6       1.0  0.69054  0.26584  0.90809  1.0000
  O   O1        1.0  0.74474  0.01904  0.45999  1.0000
  O   O2        1.0  0.25528  0.98092  0.54000  1.0000
  O   O3        1.0  0.13802  0.03642  0.18730  1.0000
  O   O4        1.0  0.86195  0.96357  0.81268  1.0000
