data_image0
_chemical_formula_structural       Gd4H32C36N4O32
_chemical_formula_sum              "Gd4 H32 C36 N4 O32"
_cell_length_a       8.34832
_cell_length_b       9.8055
_cell_length_c       14.8211
_cell_angle_alpha    90
_cell_angle_beta     90
_cell_angle_gamma    96.3541

_space_group_name_H-M_alt    "P 1"
_space_group_IT_number       1

loop_
  _space_group_symop_operation_xyz
  'x, y, z'

loop_
  _atom_site_type_symbol
  _atom_site_label
  _atom_site_symmetry_multiplicity
  _atom_site_fract_x
  _atom_site_fract_y
  _atom_site_fract_z
  _atom_site_occupancy
  Gd  Gd1       1.0  0.00495  0.11257  0.38732  1.0000
  Gd  Gd2       1.0  0.49506  0.88743  0.88732  1.0000
  Gd  Gd3       1.0  0.99506  0.88743  0.61268  1.0000
  Gd  Gd4       1.0  0.50494  0.11257  0.11268  1.0000
  H   H1        1.0  0.34035  0.53720  0.17741  1.0000
  H   H2        1.0  0.15965  0.46280  0.67741  1.0000
  H   H3        1.0  0.65965  0.46280  0.82259  1.0000
  H   H4        1.0  0.84036  0.53720  0.32259  1.0000
  H   H5        1.0  0.28875  0.76996  0.23957  1.0000
  H   H6        1.0  0.21125  0.23005  0.73957  1.0000
  H   H7        1.0  0.71125  0.23004  0.76043  1.0000
  H   H8        1.0  0.78875  0.76996  0.26043  1.0000
  H   H9        1.0  0.12690  0.55933  0.48400  1.0000
  H   H10       1.0  0.37310  0.44067  0.98400  1.0000
  H   H11       1.0  0.87310  0.44068  0.51600  1.0000
  H   H12       1.0  0.62690  0.55933  0.01600  1.0000
  H   H13       1.0  0.53518  0.86283  0.52972  1.0000
  H   H14       1.0  0.96482  0.13718  0.02972  1.0000
  H   H15       1.0  0.46482  0.13718  0.47028  1.0000
  H   H16       1.0  0.03518  0.86282  0.97028  1.0000
  H   H17       1.0  0.62191  0.72247  0.48247  1.0000
  H   H18       1.0  0.87808  0.27753  0.98247  1.0000
  H   H19       1.0  0.37809  0.27753  0.51753  1.0000
  H   H20       1.0  0.12191  0.72246  0.01753  1.0000
  H   H21       1.0  0.48600  0.81366  0.41649  1.0000
  H   H22       1.0  0.01400  0.18634  0.91649  1.0000
  H   H23       1.0  0.51400  0.18634  0.58351  1.0000
  H   H24       1.0  0.98600  0.81366  0.08351  1.0000
  H   H25       1.0  0.85933  0.02693  0.21364  1.0000
  H   H26       1.0  0.64067  0.97307  0.71364  1.0000
  H   H27       1.0  0.14067  0.97307  0.78636  1.0000
  H   H28       1.0  0.35933  0.02693  0.28636  1.0000
  H   H29       1.0  0.04538  0.00191  0.19993  1.0000
  H   H30       1.0  0.45462  0.99808  0.69993  1.0000
  H   H31       1.0  0.95462  0.99808  0.80008  1.0000
  H   H32       1.0  0.54538  0.00191  0.30007  1.0000
  C   C1        1.0  0.29537  0.29065  0.25875  1.0000
  C   C2        1.0  0.20463  0.70935  0.75875  1.0000
  C   C3        1.0  0.70463  0.70935  0.74125  1.0000
  C   C4        1.0  0.79537  0.29065  0.24125  1.0000
  C   C5        1.0  0.25684  0.42732  0.29459  1.0000
  C   C6        1.0  0.24316  0.57268  0.79459  1.0000
  C   C7        1.0  0.74316  0.57268  0.70541  1.0000
  C   C8        1.0  0.75685  0.42732  0.20541  1.0000
  C   C9        1.0  0.28999  0.54797  0.24448  1.0000
  C   C10       1.0  0.21001  0.45203  0.74449  1.0000
  C   C11       1.0  0.71001  0.45203  0.75551  1.0000
  C   C12       1.0  0.78999  0.54797  0.25551  1.0000
  C   C13       1.0  0.26177  0.67564  0.27825  1.0000
  C   C14       1.0  0.23823  0.32436  0.77825  1.0000
  C   C15       1.0  0.73823  0.32436  0.72175  1.0000
  C   C16       1.0  0.76177  0.67564  0.22175  1.0000
  C   C17       1.0  0.20368  0.68106  0.36670  1.0000
  C   C18       1.0  0.29631  0.31894  0.86670  1.0000
  C   C19       1.0  0.79631  0.31894  0.63330  1.0000
  C   C20       1.0  0.70369  0.68106  0.13330  1.0000
  C   C21       1.0  0.16998  0.81053  0.41551  1.0000
  C   C22       1.0  0.33002  0.18947  0.91551  1.0000
  C   C23       1.0  0.83002  0.18947  0.58449  1.0000
  C   C24       1.0  0.66998  0.81053  0.08449  1.0000
  C   C25       1.0  0.17179  0.56060  0.41522  1.0000
  C   C26       1.0  0.32821  0.43940  0.91522  1.0000
  C   C27       1.0  0.82821  0.43940  0.58478  1.0000
  C   C28       1.0  0.67179  0.56060  0.08478  1.0000
  C   C29       1.0  0.72265  0.91875  0.43447  1.0000
  C   C30       1.0  0.77735  0.08125  0.93447  1.0000
  C   C31       1.0  0.27735  0.08125  0.56553  1.0000
  C   C32       1.0  0.22265  0.91875  0.06553  1.0000
  C   C33       1.0  0.58214  0.82266  0.46682  1.0000
  C   C34       1.0  0.91786  0.17734  0.96682  1.0000
  C   C35       1.0  0.41786  0.17734  0.53318  1.0000
  C   C36       1.0  0.08214  0.82266  0.03318  1.0000
  N   N1        1.0  0.19308  0.43586  0.38017  1.0000
  N   N2        1.0  0.30692  0.56414  0.88017  1.0000
  N   N3        1.0  0.80692  0.56414  0.61983  1.0000
  N   N4        1.0  0.69308  0.43586  0.11983  1.0000
  O   O1        1.0  0.15440  0.32980  0.43249  1.0000
  O   O2        1.0  0.34560  0.67020  0.93249  1.0000
  O   O3        1.0  0.84560  0.67020  0.56751  1.0000
  O   O4        1.0  0.65440  0.32980  0.06751  1.0000
  O   O5        1.0  0.22880  0.18106  0.29394  1.0000
  O   O6        1.0  0.27120  0.81894  0.79394  1.0000
  O   O7        1.0  0.77120  0.81894  0.70606  1.0000
  O   O8        1.0  0.72880  0.18106  0.20606  1.0000
  O   O9        1.0  0.39632  0.29577  0.19462  1.0000
  O   O10       1.0  0.10368  0.70423  0.69462  1.0000
  O   O11       1.0  0.60368  0.70423  0.80538  1.0000
  O   O12       1.0  0.89632  0.29577  0.30538  1.0000
  O   O13       1.0  0.16483  0.91869  0.36949  1.0000
  O   O14       1.0  0.33517  0.08131  0.86949  1.0000
  O   O15       1.0  0.83517  0.08131  0.63051  1.0000
  O   O16       1.0  0.66483  0.91870  0.13051  1.0000
  O   O17       1.0  0.14872  0.79659  0.49980  1.0000
  O   O18       1.0  0.35128  0.20341  0.99980  1.0000
  O   O19       1.0  0.85128  0.20341  0.50020  1.0000
  O   O20       1.0  0.64872  0.79659  0.00020  1.0000
  O   O21       1.0  0.70749  0.00487  0.37192  1.0000
  O   O22       1.0  0.79251  0.99513  0.87192  1.0000
  O   O23       1.0  0.29251  0.99513  0.62808  1.0000
  O   O24       1.0  0.20749  0.00487  0.12808  1.0000
  O   O25       1.0  0.95500  0.99913  0.24426  1.0000
  O   O26       1.0  0.54500  0.00087  0.74426  1.0000
  O   O27       1.0  0.04500  0.00087  0.75574  1.0000
  O   O28       1.0  0.45500  0.99913  0.25574  1.0000
  O   O29       1.0  0.86190  0.91494  0.47104  1.0000
  O   O30       1.0  0.63810  0.08506  0.97104  1.0000
  O   O31       1.0  0.13811  0.08506  0.52896  1.0000
  O   O32       1.0  0.36190  0.91494  0.02896  1.0000
