data_image0
_chemical_formula_structural       Tb4H32C36N4O32
_chemical_formula_sum              "Tb4 H32 C36 N4 O32"
_cell_length_a       8.35675
_cell_length_b       9.78093
_cell_length_c       14.7443
_cell_angle_alpha    90
_cell_angle_beta     90
_cell_angle_gamma    96.6343

_space_group_name_H-M_alt    "P 1"
_space_group_IT_number       1

loop_
  _space_group_symop_operation_xyz
  'x, y, z'

loop_
  _atom_site_type_symbol
  _atom_site_label
  _atom_site_symmetry_multiplicity
  _atom_site_fract_x
  _atom_site_fract_y
  _atom_site_fract_z
  _atom_site_occupancy
  Tb  Tb1       1.0  0.00462  0.11243  0.38697  1.0000
  Tb  Tb2       1.0  0.49538  0.88757  0.88697  1.0000
  Tb  Tb3       1.0  0.99538  0.88757  0.61303  1.0000
  Tb  Tb4       1.0  0.50462  0.11243  0.11303  1.0000
  H   H1        1.0  0.33803  0.53769  0.17543  1.0000
  H   H2        1.0  0.16197  0.46231  0.67543  1.0000
  H   H3        1.0  0.66197  0.46231  0.82457  1.0000
  H   H4        1.0  0.83803  0.53769  0.32457  1.0000
  H   H5        1.0  0.28649  0.77038  0.23805  1.0000
  H   H6        1.0  0.21352  0.22962  0.73805  1.0000
  H   H7        1.0  0.71352  0.22962  0.76195  1.0000
  H   H8        1.0  0.78648  0.77038  0.26195  1.0000
  H   H9        1.0  0.12745  0.55864  0.48423  1.0000
  H   H10       1.0  0.37255  0.44136  0.98423  1.0000
  H   H11       1.0  0.87255  0.44136  0.51577  1.0000
  H   H12       1.0  0.62745  0.55864  0.01577  1.0000
  H   H13       1.0  0.55946  0.84736  0.54101  1.0000
  H   H14       1.0  0.94054  0.15264  0.04101  1.0000
  H   H15       1.0  0.44054  0.15264  0.45899  1.0000
  H   H16       1.0  0.05946  0.84736  0.95899  1.0000
  H   H17       1.0  0.61189  0.71761  0.46747  1.0000
  H   H18       1.0  0.88811  0.28239  0.96747  1.0000
  H   H19       1.0  0.38811  0.28239  0.53253  1.0000
  H   H20       1.0  0.11189  0.71761  0.03253  1.0000
  H   H21       1.0  0.47503  0.83514  0.42946  1.0000
  H   H22       1.0  0.02497  0.16485  0.92946  1.0000
  H   H23       1.0  0.52496  0.16485  0.57054  1.0000
  H   H24       1.0  0.97503  0.83514  0.07054  1.0000
  H   H25       1.0  0.85624  0.01830  0.21290  1.0000
  H   H26       1.0  0.64376  0.98170  0.71290  1.0000
  H   H27       1.0  0.14376  0.98170  0.78710  1.0000
  H   H28       1.0  0.35624  0.01830  0.28710  1.0000
  H   H29       1.0  0.04434  0.00081  0.19960  1.0000
  H   H30       1.0  0.45566  0.99919  0.69960  1.0000
  H   H31       1.0  0.95566  0.99919  0.80040  1.0000
  H   H32       1.0  0.54434  0.00081  0.30040  1.0000
  C   C1        1.0  0.29332  0.29007  0.25738  1.0000
  C   C2        1.0  0.20668  0.70993  0.75738  1.0000
  C   C3        1.0  0.70668  0.70993  0.74262  1.0000
  C   C4        1.0  0.79333  0.29007  0.24262  1.0000
  C   C5        1.0  0.25594  0.42716  0.29344  1.0000
  C   C6        1.0  0.24406  0.57284  0.79344  1.0000
  C   C7        1.0  0.74406  0.57284  0.70656  1.0000
  C   C8        1.0  0.75594  0.42716  0.20656  1.0000
  C   C9        1.0  0.28828  0.54821  0.24300  1.0000
  C   C10       1.0  0.21172  0.45180  0.74300  1.0000
  C   C11       1.0  0.71172  0.45179  0.75700  1.0000
  C   C12       1.0  0.78828  0.54821  0.25700  1.0000
  C   C13       1.0  0.26010  0.67595  0.27711  1.0000
  C   C14       1.0  0.23990  0.32405  0.77711  1.0000
  C   C15       1.0  0.73990  0.32405  0.72289  1.0000
  C   C16       1.0  0.76010  0.67595  0.22289  1.0000
  C   C17       1.0  0.20289  0.68114  0.36620  1.0000
  C   C18       1.0  0.29711  0.31887  0.86620  1.0000
  C   C19       1.0  0.79711  0.31887  0.63380  1.0000
  C   C20       1.0  0.70289  0.68114  0.13380  1.0000
  C   C21       1.0  0.16930  0.81076  0.41526  1.0000
  C   C22       1.0  0.33070  0.18924  0.91526  1.0000
  C   C23       1.0  0.83070  0.18924  0.58474  1.0000
  C   C24       1.0  0.66930  0.81076  0.08474  1.0000
  C   C25       1.0  0.17176  0.56019  0.41501  1.0000
  C   C26       1.0  0.32823  0.43981  0.91501  1.0000
  C   C27       1.0  0.82823  0.43981  0.58499  1.0000
  C   C28       1.0  0.67176  0.56019  0.08499  1.0000
  C   C29       1.0  0.72332  0.91905  0.43548  1.0000
  C   C30       1.0  0.77668  0.08095  0.93548  1.0000
  C   C31       1.0  0.27668  0.08095  0.56452  1.0000
  C   C32       1.0  0.22332  0.91905  0.06452  1.0000
  C   C33       1.0  0.58250  0.82404  0.46964  1.0000
  C   C34       1.0  0.91750  0.17595  0.96964  1.0000
  C   C35       1.0  0.41750  0.17595  0.53036  1.0000
  C   C36       1.0  0.08250  0.82404  0.03036  1.0000
  N   N1        1.0  0.19316  0.43527  0.37974  1.0000
  N   N2        1.0  0.30684  0.56473  0.87974  1.0000
  N   N3        1.0  0.80684  0.56473  0.62026  1.0000
  N   N4        1.0  0.69316  0.43527  0.12026  1.0000
  O   O1        1.0  0.15572  0.32867  0.43235  1.0000
  O   O2        1.0  0.34428  0.67133  0.93235  1.0000
  O   O3        1.0  0.84428  0.67133  0.56765  1.0000
  O   O4        1.0  0.65572  0.32867  0.06765  1.0000
  O   O5        1.0  0.22409  0.18047  0.29196  1.0000
  O   O6        1.0  0.27591  0.81953  0.79196  1.0000
  O   O7        1.0  0.77591  0.81953  0.70804  1.0000
  O   O8        1.0  0.72409  0.18047  0.20804  1.0000
  O   O9        1.0  0.39564  0.29492  0.19363  1.0000
  O   O10       1.0  0.10436  0.70508  0.69363  1.0000
  O   O11       1.0  0.60436  0.70507  0.80637  1.0000
  O   O12       1.0  0.89564  0.29492  0.30637  1.0000
  O   O13       1.0  0.16629  0.91989  0.36927  1.0000
  O   O14       1.0  0.33371  0.08011  0.86927  1.0000
  O   O15       1.0  0.83371  0.08011  0.63073  1.0000
  O   O16       1.0  0.66629  0.91989  0.13073  1.0000
  O   O17       1.0  0.14624  0.79623  0.49979  1.0000
  O   O18       1.0  0.35376  0.20377  0.99980  1.0000
  O   O19       1.0  0.85376  0.20377  0.50020  1.0000
  O   O20       1.0  0.64624  0.79623  0.00021  1.0000
  O   O21       1.0  0.70816  0.00409  0.37195  1.0000
  O   O22       1.0  0.79184  0.99591  0.87195  1.0000
  O   O23       1.0  0.29184  0.99591  0.62805  1.0000
  O   O24       1.0  0.20816  0.00409  0.12805  1.0000
  O   O25       1.0  0.95431  0.99784  0.24433  1.0000
  O   O26       1.0  0.54569  0.00216  0.74432  1.0000
  O   O27       1.0  0.04569  0.00216  0.75568  1.0000
  O   O28       1.0  0.45431  0.99784  0.25567  1.0000
  O   O29       1.0  0.86321  0.91484  0.47119  1.0000
  O   O30       1.0  0.63679  0.08516  0.97119  1.0000
  O   O31       1.0  0.13679  0.08516  0.52881  1.0000
  O   O32       1.0  0.36321  0.91484  0.02881  1.0000
