data_image0
_chemical_formula_structural       La4H32C36N4O32
_chemical_formula_sum              "La4 H32 C36 N4 O32"
_cell_length_a       8.48471
_cell_length_b       9.99722
_cell_length_c       14.9969
_cell_angle_alpha    90
_cell_angle_beta     90
_cell_angle_gamma    98.4399

_space_group_name_H-M_alt    "P 1"
_space_group_IT_number       1

loop_
  _space_group_symop_operation_xyz
  'x, y, z'

loop_
  _atom_site_type_symbol
  _atom_site_label
  _atom_site_symmetry_multiplicity
  _atom_site_fract_x
  _atom_site_fract_y
  _atom_site_fract_z
  _atom_site_occupancy
  La  La1       1.0  0.00253  0.11839  0.38178  1.0000
  La  La2       1.0  0.49747  0.88161  0.88178  1.0000
  La  La3       1.0  0.99747  0.88161  0.61822  1.0000
  La  La4       1.0  0.50253  0.11839  0.11822  1.0000
  H   H1        1.0  0.32186  0.55527  0.16798  1.0000
  H   H2        1.0  0.17814  0.44473  0.66799  1.0000
  H   H3        1.0  0.67814  0.44473  0.83201  1.0000
  H   H4        1.0  0.82186  0.55527  0.33202  1.0000
  H   H5        1.0  0.26660  0.77748  0.23242  1.0000
  H   H6        1.0  0.23340  0.22251  0.73242  1.0000
  H   H7        1.0  0.73339  0.22252  0.76758  1.0000
  H   H8        1.0  0.76661  0.77748  0.26758  1.0000
  H   H9        1.0  0.14360  0.56309  0.47858  1.0000
  H   H10       1.0  0.35640  0.43691  0.97859  1.0000
  H   H11       1.0  0.85639  0.43691  0.52141  1.0000
  H   H12       1.0  0.64361  0.56309  0.02141  1.0000
  H   H13       1.0  0.49631  0.87598  0.51018  1.0000
  H   H14       1.0  0.00369  0.12402  0.01017  1.0000
  H   H15       1.0  0.50369  0.12402  0.48982  1.0000
  H   H16       1.0  0.99630  0.87598  0.98982  1.0000
  H   H17       1.0  0.61177  0.74036  0.51727  1.0000
  H   H18       1.0  0.88823  0.25964  0.01727  1.0000
  H   H19       1.0  0.38823  0.25964  0.48273  1.0000
  H   H20       1.0  0.11177  0.74036  0.98273  1.0000
  H   H21       1.0  0.50537  0.76908  0.41681  1.0000
  H   H22       1.0  0.99463  0.23092  0.91681  1.0000
  H   H23       1.0  0.49463  0.23092  0.58319  1.0000
  H   H24       1.0  0.00537  0.76908  0.08319  1.0000
  H   H25       1.0  0.84797  0.98067  0.20147  1.0000
  H   H26       1.0  0.65203  0.01933  0.70147  1.0000
  H   H27       1.0  0.15203  0.01933  0.79853  1.0000
  H   H28       1.0  0.34797  0.98067  0.29853  1.0000
  H   H29       1.0  0.03889  0.99649  0.19154  1.0000
  H   H30       1.0  0.46111  0.00352  0.69154  1.0000
  H   H31       1.0  0.96110  0.00351  0.80846  1.0000
  H   H32       1.0  0.53889  0.99648  0.30846  1.0000
  C   C1        1.0  0.28936  0.31128  0.24636  1.0000
  C   C2        1.0  0.21064  0.68871  0.74636  1.0000
  C   C3        1.0  0.71064  0.68872  0.75364  1.0000
  C   C4        1.0  0.78936  0.31128  0.25365  1.0000
  C   C5        1.0  0.25670  0.44334  0.28598  1.0000
  C   C6        1.0  0.24330  0.55666  0.78599  1.0000
  C   C7        1.0  0.74329  0.55666  0.71401  1.0000
  C   C8        1.0  0.75670  0.44334  0.21402  1.0000
  C   C9        1.0  0.27923  0.56243  0.23610  1.0000
  C   C10       1.0  0.22077  0.43757  0.73610  1.0000
  C   C11       1.0  0.72077  0.43757  0.76390  1.0000
  C   C12       1.0  0.77923  0.56243  0.26390  1.0000
  C   C13       1.0  0.24944  0.68481  0.27154  1.0000
  C   C14       1.0  0.25057  0.31519  0.77154  1.0000
  C   C15       1.0  0.75056  0.31519  0.72846  1.0000
  C   C16       1.0  0.74944  0.68481  0.22846  1.0000
  C   C17       1.0  0.20177  0.68702  0.36084  1.0000
  C   C18       1.0  0.29823  0.31298  0.86084  1.0000
  C   C19       1.0  0.79823  0.31298  0.63916  1.0000
  C   C20       1.0  0.70177  0.68703  0.13916  1.0000
  C   C21       1.0  0.17235  0.81320  0.40993  1.0000
  C   C22       1.0  0.32765  0.18680  0.90993  1.0000
  C   C23       1.0  0.82765  0.18680  0.59007  1.0000
  C   C24       1.0  0.67235  0.81320  0.09007  1.0000
  C   C25       1.0  0.18025  0.56758  0.40914  1.0000
  C   C26       1.0  0.31975  0.43242  0.90914  1.0000
  C   C27       1.0  0.81975  0.43242  0.59086  1.0000
  C   C28       1.0  0.68025  0.56758  0.09086  1.0000
  C   C29       1.0  0.71664  0.91002  0.43842  1.0000
  C   C30       1.0  0.78336  0.08998  0.93842  1.0000
  C   C31       1.0  0.28336  0.08998  0.56158  1.0000
  C   C32       1.0  0.21664  0.91002  0.06157  1.0000
  C   C33       1.0  0.57444  0.81706  0.47310  1.0000
  C   C34       1.0  0.92555  0.18293  0.97310  1.0000
  C   C35       1.0  0.42555  0.18294  0.52690  1.0000
  C   C36       1.0  0.07444  0.81707  0.02690  1.0000
  N   N1        1.0  0.20382  0.44762  0.37275  1.0000
  N   N2        1.0  0.29618  0.55238  0.87276  1.0000
  N   N3        1.0  0.79618  0.55238  0.62725  1.0000
  N   N4        1.0  0.70383  0.44762  0.12725  1.0000
  O   O1        1.0  0.17799  0.34047  0.42395  1.0000
  O   O2        1.0  0.32201  0.65953  0.92395  1.0000
  O   O3        1.0  0.82201  0.65953  0.57605  1.0000
  O   O4        1.0  0.67799  0.34048  0.07605  1.0000
  O   O5        1.0  0.21011  0.20161  0.27254  1.0000
  O   O6        1.0  0.28989  0.79839  0.77254  1.0000
  O   O7        1.0  0.78989  0.79840  0.72745  1.0000
  O   O8        1.0  0.71010  0.20161  0.22746  1.0000
  O   O9        1.0  0.39608  0.32147  0.18650  1.0000
  O   O10       1.0  0.10392  0.67853  0.68650  1.0000
  O   O11       1.0  0.60393  0.67853  0.81350  1.0000
  O   O12       1.0  0.89607  0.32147  0.31350  1.0000
  O   O13       1.0  0.17743  0.92255  0.36573  1.0000
  O   O14       1.0  0.32256  0.07745  0.86573  1.0000
  O   O15       1.0  0.82256  0.07745  0.63427  1.0000
  O   O16       1.0  0.67744  0.92255  0.13427  1.0000
  O   O17       1.0  0.14460  0.79840  0.49238  1.0000
  O   O18       1.0  0.35540  0.20160  0.99238  1.0000
  O   O19       1.0  0.85540  0.20160  0.50762  1.0000
  O   O20       1.0  0.64460  0.79840  0.00762  1.0000
  O   O21       1.0  0.70131  0.99213  0.37517  1.0000
  O   O22       1.0  0.79869  0.00787  0.87517  1.0000
  O   O23       1.0  0.29869  0.00787  0.62483  1.0000
  O   O24       1.0  0.20131  0.99213  0.12483  1.0000
  O   O25       1.0  0.94950  0.99855  0.23459  1.0000
  O   O26       1.0  0.55050  0.00145  0.73459  1.0000
  O   O27       1.0  0.05049  0.00145  0.76541  1.0000
  O   O28       1.0  0.44950  0.99855  0.26541  1.0000
  O   O29       1.0  0.85480  0.90692  0.47268  1.0000
  O   O30       1.0  0.64520  0.09308  0.97268  1.0000
  O   O31       1.0  0.14520  0.09308  0.52732  1.0000
  O   O32       1.0  0.35480  0.90692  0.02732  1.0000
