data_image0
_chemical_formula_structural       Na4Zn4H44C36O40
_chemical_formula_sum              "Na4 Zn4 H44 C36 O40"
_cell_length_a       6.94637
_cell_length_b       11.0089
_cell_length_c       18.3804
_cell_angle_alpha    78.7768
_cell_angle_beta     85.6876
_cell_angle_gamma    73.6721

_space_group_name_H-M_alt    "P 1"
_space_group_IT_number       1

loop_
  _space_group_symop_operation_xyz
  'x, y, z'

loop_
  _atom_site_type_symbol
  _atom_site_label
  _atom_site_symmetry_multiplicity
  _atom_site_fract_x
  _atom_site_fract_y
  _atom_site_fract_z
  _atom_site_occupancy
  Na  Na1       1.0  0.49711  0.24719  0.25227  1.0000
  Na  Na2       1.0  0.50289  0.75281  0.74773  1.0000
  Na  Na3       1.0  0.49372  0.74761  0.24899  1.0000
  Na  Na4       1.0  0.50628  0.25240  0.75101  1.0000
  Zn  Zn1       1.0  0.30480  0.98149  0.33748  1.0000
  Zn  Zn2       1.0  0.69520  0.01851  0.66252  1.0000
  Zn  Zn3       1.0  0.31348  0.48664  0.83806  1.0000
  Zn  Zn4       1.0  0.68653  0.51336  0.16194  1.0000
  H   H1        1.0  0.68404  0.83753  0.37092  1.0000
  H   H2        1.0  0.31596  0.16247  0.62908  1.0000
  H   H3        1.0  0.68923  0.92394  0.28731  1.0000
  H   H4        1.0  0.31077  0.07606  0.71269  1.0000
  H   H5        1.0  0.94774  0.03892  0.39526  1.0000
  H   H6        1.0  0.05226  0.96108  0.60474  1.0000
  H   H7        1.0  0.90417  0.17472  0.33798  1.0000
  H   H8        1.0  0.09583  0.82529  0.66202  1.0000
  H   H9        1.0  0.52220  0.05577  0.40923  1.0000
  H   H10       1.0  0.47780  0.94423  0.59077  1.0000
  H   H11       1.0  0.32978  0.18526  0.39967  1.0000
  H   H12       1.0  0.67022  0.81474  0.60033  1.0000
  H   H13       1.0  0.52638  0.57095  0.90677  1.0000
  H   H14       1.0  0.47362  0.42905  0.09324  1.0000
  H   H15       1.0  0.33017  0.69659  0.89510  1.0000
  H   H16       1.0  0.66984  0.30341  0.10490  1.0000
  H   H17       1.0  0.91207  0.68008  0.83587  1.0000
  H   H18       1.0  0.08793  0.31992  0.16413  1.0000
  H   H19       1.0  0.95908  0.54788  0.89618  1.0000
  H   H20       1.0  0.04093  0.45212  0.10382  1.0000
  H   H21       1.0  0.69237  0.33798  0.87550  1.0000
  H   H22       1.0  0.30764  0.66202  0.12449  1.0000
  H   H23       1.0  0.70376  0.42522  0.79224  1.0000
  H   H24       1.0  0.29623  0.57478  0.20775  1.0000
  H   H25       1.0  0.11978  0.43584  0.24296  1.0000
  H   H26       1.0  0.88022  0.56416  0.75704  1.0000
  H   H27       1.0  0.19933  0.41205  0.32511  1.0000
  H   H28       1.0  0.80067  0.58795  0.67489  1.0000
  H   H29       1.0  0.87103  0.05823  0.25789  1.0000
  H   H30       1.0  0.12898  0.94177  0.74210  1.0000
  H   H31       1.0  0.78977  0.08366  0.17553  1.0000
  H   H32       1.0  0.21024  0.91633  0.82447  1.0000
  H   H33       1.0  0.25195  0.03210  0.89789  1.0000
  H   H34       1.0  0.74804  0.96790  0.10211  1.0000
  H   H35       1.0  0.22795  0.86515  0.12969  1.0000
  H   H36       1.0  0.77204  0.13485  0.87030  1.0000
  H   H37       1.0  0.26297  0.25560  0.06223  1.0000
  H   H38       1.0  0.73702  0.74440  0.93777  1.0000
  H   H39       1.0  0.24980  0.51958  0.39988  1.0000
  H   H40       1.0  0.75020  0.48043  0.60011  1.0000
  H   H41       1.0  0.23299  0.36206  0.63347  1.0000
  H   H42       1.0  0.76701  0.63793  0.36653  1.0000
  H   H43       1.0  0.25856  0.75314  0.55889  1.0000
  H   H44       1.0  0.74144  0.24687  0.44111  1.0000
  C   C1        1.0  0.24154  0.80775  0.98933  1.0000
  C   C2        1.0  0.75846  0.19225  0.01067  1.0000
  C   C3        1.0  0.24071  0.93276  0.01141  1.0000
  C   C4        1.0  0.75928  0.06724  0.98860  1.0000
  C   C5        1.0  0.24840  0.03852  0.95622  1.0000
  C   C6        1.0  0.75160  0.96148  0.04378  1.0000
  C   C7        1.0  0.23772  0.94533  0.08578  1.0000
  C   C8        1.0  0.76227  0.05468  0.91422  1.0000
  C   C9        1.0  0.24599  0.06141  0.10440  1.0000
  C   C10       1.0  0.75400  0.93859  0.89560  1.0000
  C   C11       1.0  0.25263  0.16606  0.04845  1.0000
  C   C12       1.0  0.74736  0.83394  0.95156  1.0000
  C   C13       1.0  0.25176  0.15527  0.97428  1.0000
  C   C14       1.0  0.74823  0.84474  0.02573  1.0000
  C   C15       1.0  0.25384  0.07432  0.18317  1.0000
  C   C16       1.0  0.74616  0.92569  0.81683  1.0000
  C   C17       1.0  0.26233  0.26456  0.91327  1.0000
  C   C18       1.0  0.73765  0.73545  0.08673  1.0000
  C   C19       1.0  0.25522  0.75523  0.41110  1.0000
  C   C20       1.0  0.74478  0.24478  0.58890  1.0000
  C   C21       1.0  0.24771  0.64742  0.47356  1.0000
  C   C22       1.0  0.75229  0.35258  0.52644  1.0000
  C   C23       1.0  0.24637  0.52887  0.45774  1.0000
  C   C24       1.0  0.75363  0.47113  0.54226  1.0000
  C   C25       1.0  0.24197  0.42462  0.51450  1.0000
  C   C26       1.0  0.75803  0.57538  0.48550  1.0000
  C   C27       1.0  0.24472  0.29807  0.49391  1.0000
  C   C28       1.0  0.75528  0.70194  0.50609  1.0000
  C   C29       1.0  0.24039  0.44081  0.58824  1.0000
  C   C30       1.0  0.75960  0.55919  0.41176  1.0000
  C   C31       1.0  0.24772  0.55885  0.60459  1.0000
  C   C32       1.0  0.75227  0.44115  0.39541  1.0000
  C   C33       1.0  0.25018  0.66186  0.54702  1.0000
  C   C34       1.0  0.74981  0.33815  0.45298  1.0000
  C   C35       1.0  0.26092  0.57605  0.68234  1.0000
  C   C36       1.0  0.73908  0.42395  0.31766  1.0000
  O   O1        1.0  0.23511  0.81100  0.91875  1.0000
  O   O2        1.0  0.76490  0.18899  0.08125  1.0000
  O   O3        1.0  0.25234  0.70723  0.03716  1.0000
  O   O4        1.0  0.74767  0.29276  0.96284  1.0000
  O   O5        1.0  0.27965  0.24713  0.84734  1.0000
  O   O6        1.0  0.72035  0.75287  0.15266  1.0000
  O   O7        1.0  0.25693  0.37331  0.93201  1.0000
  O   O8        1.0  0.74307  0.62669  0.06799  1.0000
  O   O9        1.0  0.23766  0.18327  0.20029  1.0000
  O   O10       1.0  0.76235  0.81672  0.79971  1.0000
  O   O11       1.0  0.28078  0.97036  0.23178  1.0000
  O   O12       1.0  0.71922  0.02964  0.76822  1.0000
  O   O13       1.0  0.27005  0.73577  0.34567  1.0000
  O   O14       1.0  0.72996  0.26423  0.65433  1.0000
  O   O15       1.0  0.25010  0.86471  0.42888  1.0000
  O   O16       1.0  0.74992  0.13529  0.57112  1.0000
  O   O17       1.0  0.61785  0.86833  0.32094  1.0000
  O   O18       1.0  0.38216  0.13167  0.67906  1.0000
  O   O19       1.0  0.98205  0.08064  0.34614  1.0000
  O   O20       1.0  0.01795  0.91936  0.65386  1.0000
  O   O21       1.0  0.42301  0.10856  0.37290  1.0000
  O   O22       1.0  0.57699  0.89144  0.62710  1.0000
  O   O23       1.0  0.23727  0.29962  0.42367  1.0000
  O   O24       1.0  0.76272  0.70039  0.57633  1.0000
  O   O25       1.0  0.25790  0.19815  0.54267  1.0000
  O   O26       1.0  0.74210  0.80185  0.45733  1.0000
  O   O27       1.0  0.24484  0.68665  0.69708  1.0000
  O   O28       1.0  0.75516  0.31335  0.30292  1.0000
  O   O29       1.0  0.29274  0.47376  0.73240  1.0000
  O   O30       1.0  0.70726  0.52624  0.26759  1.0000
  O   O31       1.0  0.42681  0.61936  0.86965  1.0000
  O   O32       1.0  0.57320  0.38063  0.13035  1.0000
  O   O33       1.0  0.99111  0.58610  0.84592  1.0000
  O   O34       1.0  0.00890  0.41390  0.15408  1.0000
  O   O35       1.0  0.62803  0.37225  0.82539  1.0000
  O   O36       1.0  0.37198  0.62775  0.17461  1.0000
  O   O37       1.0  0.23430  0.43341  0.27208  1.0000
  O   O38       1.0  0.76570  0.56659  0.72792  1.0000
  O   O39       1.0  0.75615  0.06115  0.22877  1.0000
  O   O40       1.0  0.24386  0.93885  0.77123  1.0000
