data_image0
_chemical_formula_structural       Cu2H14C12N4Cl2O6
_chemical_formula_sum              "Cu2 H14 C12 N4 Cl2 O6"
_cell_length_a       3.81116
_cell_length_b       11.1641
_cell_length_c       11.3881
_cell_angle_alpha    111.154
_cell_angle_beta     96.5512
_cell_angle_gamma    96.5197

_space_group_name_H-M_alt    "P 1"
_space_group_IT_number       1

loop_
  _space_group_symop_operation_xyz
  'x, y, z'

loop_
  _atom_site_type_symbol
  _atom_site_label
  _atom_site_symmetry_multiplicity
  _atom_site_fract_x
  _atom_site_fract_y
  _atom_site_fract_z
  _atom_site_occupancy
  Cu  Cu1       1.0  0.68058  0.02442  0.28674  1.0000
  Cu  Cu2       1.0  0.31943  0.97558  0.71326  1.0000
  H   H1        1.0  0.40853  0.12935  0.08098  1.0000
  H   H2        1.0  0.59141  0.87066  0.91903  1.0000
  H   H3        1.0  0.27025  0.48168  0.40707  1.0000
  H   H4        1.0  0.72979  0.51832  0.59292  1.0000
  H   H5        1.0  0.31360  0.27736  0.96955  1.0000
  H   H6        1.0  0.68638  0.72265  0.03046  1.0000
  H   H7        1.0  0.73291  0.36796  0.97390  1.0000
  H   H8        1.0  0.26707  0.63204  0.02610  1.0000
  H   H9        1.0  0.42430  0.44809  0.06747  1.0000
  H   H10       1.0  0.57569  0.55192  0.93254  1.0000
  H   H11       1.0  0.76624  0.88174  0.42858  1.0000
  H   H12       1.0  0.23373  0.11827  0.57142  1.0000
  H   H13       1.0  0.42027  0.81858  0.31909  1.0000
  H   H14       1.0  0.57969  0.18142  0.68092  1.0000
  C   C1        1.0  0.69305  0.32961  0.14248  1.0000
  C   C2        1.0  0.30693  0.67039  0.85753  1.0000
  C   C3        1.0  0.60167  0.20854  0.15300  1.0000
  C   C4        1.0  0.39833  0.79146  0.84700  1.0000
  C   C5        1.0  0.98907  0.28340  0.34581  1.0000
  C   C6        1.0  0.01096  0.71659  0.65418  1.0000
  C   C7        1.0  0.07543  0.40312  0.33435  1.0000
  C   C8        1.0  0.92460  0.59687  0.66564  1.0000
  C   C9        1.0  0.52834  0.35629  0.03136  1.0000
  C   C10       1.0  0.47166  0.64371  0.96864  1.0000
  C   C11       1.0  0.15959  0.25009  0.45256  1.0000
  C   C12       1.0  0.84044  0.74990  0.54743  1.0000
  N   N1        1.0  0.75001  0.18758  0.25445  1.0000
  N   N2        1.0  0.25001  0.81242  0.74555  1.0000
  N   N3        1.0  0.92955  0.42606  0.23368  1.0000
  N   N4        1.0  0.07045  0.57394  0.76631  1.0000
  Cl  Cl1       1.0  0.16963  0.93252  0.14366  1.0000
  Cl  Cl2       1.0  0.83037  0.06748  0.85633  1.0000
  O   O1        1.0  0.04204  0.13140  0.44428  1.0000
  O   O2        1.0  0.95795  0.86861  0.55572  1.0000
  O   O3        1.0  0.39801  0.32770  0.53754  1.0000
  O   O4        1.0  0.60203  0.67230  0.46246  1.0000
  O   O5        1.0  0.65098  0.87571  0.34144  1.0000
  O   O6        1.0  0.34900  0.12428  0.65856  1.0000
