data_image0
_chemical_formula_structural       Fe2H32C28N4O12
_chemical_formula_sum              "Fe2 H32 C28 N4 O12"
_cell_length_a       8.45769
_cell_length_b       9.02903
_cell_length_c       9.39052
_cell_angle_alpha    105.698
_cell_angle_beta     89.9995
_cell_angle_gamma    90.0009

_space_group_name_H-M_alt    "P 1"
_space_group_IT_number       1

loop_
  _space_group_symop_operation_xyz
  'x, y, z'

loop_
  _atom_site_type_symbol
  _atom_site_label
  _atom_site_symmetry_multiplicity
  _atom_site_fract_x
  _atom_site_fract_y
  _atom_site_fract_z
  _atom_site_occupancy
  Fe  Fe1       1.0  0.50000  0.50000  1.00000  1.0000
  Fe  Fe2       1.0  1.00000  0.00000  0.50000  1.0000
  H   H1        1.0  0.18614  0.72767  0.35372  1.0000
  H   H2        1.0  0.68615  0.77234  0.14629  1.0000
  H   H3        1.0  0.81385  0.27233  0.64628  1.0000
  H   H4        1.0  0.31385  0.22766  0.85371  1.0000
  H   H5        1.0  0.27652  0.48748  0.40726  1.0000
  H   H6        1.0  0.77652  0.01255  0.09274  1.0000
  H   H7        1.0  0.72347  0.51252  0.59274  1.0000
  H   H8        1.0  0.22348  0.98745  0.90726  1.0000
  H   H9        1.0  0.96751  0.87969  0.76126  1.0000
  H   H10       1.0  0.46751  0.62030  0.73875  1.0000
  H   H11       1.0  0.03250  0.12031  0.23874  1.0000
  H   H12       1.0  0.53249  0.37970  0.26125  1.0000
  H   H13       1.0  0.96634  0.53584  0.86215  1.0000
  H   H14       1.0  0.46634  0.96416  0.63785  1.0000
  H   H15       1.0  0.03366  0.46417  0.13785  1.0000
  H   H16       1.0  0.53366  0.03584  0.36215  1.0000
  H   H17       1.0  0.96338  0.73781  0.93683  1.0000
  H   H18       1.0  0.46337  0.76219  0.56318  1.0000
  H   H19       1.0  0.03661  0.26219  0.06317  1.0000
  H   H20       1.0  0.53662  0.23782  0.43682  1.0000
  H   H21       1.0  0.20843  0.44185  0.65296  1.0000
  H   H22       1.0  0.70842  0.05816  0.84704  1.0000
  H   H23       1.0  0.79157  0.55815  0.34704  1.0000
  H   H24       1.0  0.29158  0.94184  0.15296  1.0000
  H   H25       1.0  0.52215  0.69371  0.27898  1.0000
  H   H26       1.0  0.02215  0.80628  0.22102  1.0000
  H   H27       1.0  0.47785  0.30629  0.72102  1.0000
  H   H28       1.0  0.97785  0.19372  0.77898  1.0000
  H   H29       1.0  0.34822  0.68176  0.19535  1.0000
  H   H30       1.0  0.84823  0.81824  0.30465  1.0000
  H   H31       1.0  0.65178  0.31824  0.80465  1.0000
  H   H32       1.0  0.15177  0.18176  0.69535  1.0000
  C   C1        1.0  0.17704  0.62692  0.97706  1.0000
  C   C2        1.0  0.67704  0.87308  0.52294  1.0000
  C   C3        1.0  0.82296  0.37309  0.02294  1.0000
  C   C4        1.0  0.32296  0.12692  0.47706  1.0000
  C   C5        1.0  0.08353  0.65886  0.72804  1.0000
  C   C6        1.0  0.58353  0.84114  0.77197  1.0000
  C   C7        1.0  0.91647  0.34114  0.27197  1.0000
  C   C8        1.0  0.41648  0.15886  0.22803  1.0000
  C   C9        1.0  0.15781  0.70452  0.45810  1.0000
  C   C10       1.0  0.65780  0.79549  0.04190  1.0000
  C   C11       1.0  0.84219  0.29548  0.54190  1.0000
  C   C12       1.0  0.34220  0.20451  0.95810  1.0000
  C   C13       1.0  0.20803  0.57056  0.48999  1.0000
  C   C14       1.0  0.70803  0.92945  0.01002  1.0000
  C   C15       1.0  0.79196  0.42943  0.51001  1.0000
  C   C16       1.0  0.29198  0.07055  0.98998  1.0000
  C   C17       1.0  0.03658  0.78956  0.68693  1.0000
  C   C18       1.0  0.53659  0.71045  0.81308  1.0000
  C   C19       1.0  0.96342  0.21044  0.31308  1.0000
  C   C20       1.0  0.46341  0.28955  0.18692  1.0000
  C   C21       1.0  0.03759  0.64129  0.87771  1.0000
  C   C22       1.0  0.53759  0.85872  0.62229  1.0000
  C   C23       1.0  0.96241  0.35871  0.12229  1.0000
  C   C24       1.0  0.46241  0.14128  0.37771  1.0000
  C   C25       1.0  0.17021  0.54600  0.62596  1.0000
  C   C26       1.0  0.67020  0.95401  0.87404  1.0000
  C   C27       1.0  0.82979  0.45400  0.37404  1.0000
  C   C28       1.0  0.32981  0.04599  0.12596  1.0000
  N   N1        1.0  0.07179  0.81347  0.55380  1.0000
  N   N2        1.0  0.57179  0.68653  0.94621  1.0000
  N   N3        1.0  0.92821  0.18653  0.44620  1.0000
  N   N4        1.0  0.42821  0.31347  0.05379  1.0000
  O   O1        1.0  0.28389  0.53011  0.91861  1.0000
  O   O2        1.0  0.78389  0.96989  0.58138  1.0000
  O   O3        1.0  0.71610  0.46989  0.08138  1.0000
  O   O4        1.0  0.21611  0.03011  0.41862  1.0000
  O   O5        1.0  0.17703  0.70942  0.11111  1.0000
  O   O6        1.0  0.67703  0.79057  0.38889  1.0000
  O   O7        1.0  0.82297  0.29058  0.88889  1.0000
  O   O8        1.0  0.32297  0.20942  0.61111  1.0000
  O   O9        1.0  0.44208  0.62412  0.21712  1.0000
  O   O10       1.0  0.94208  0.87587  0.28288  1.0000
  O   O11       1.0  0.55792  0.37588  0.78289  1.0000
  O   O12       1.0  0.05792  0.12413  0.71712  1.0000
