data_image0
_chemical_formula_structural       Cu2H32C48N8O8
_chemical_formula_sum              "Cu2 H32 C48 N8 O8"
_cell_length_a       8.58912
_cell_length_b       10.2745
_cell_length_c       14.1822
_cell_angle_alpha    92.29
_cell_angle_beta     94.9196
_cell_angle_gamma    112.116

_space_group_name_H-M_alt    "P 1"
_space_group_IT_number       1

loop_
  _space_group_symop_operation_xyz
  'x, y, z'

loop_
  _atom_site_type_symbol
  _atom_site_label
  _atom_site_symmetry_multiplicity
  _atom_site_fract_x
  _atom_site_fract_y
  _atom_site_fract_z
  _atom_site_occupancy
  Cu  Cu1       1.0  0.27792  0.80908  0.24735  1.0000
  Cu  Cu2       1.0  0.72208  0.19092  0.75265  1.0000
  H   H1        1.0  0.89657  0.68297  0.19663  1.0000
  H   H2        1.0  0.10342  0.31702  0.80336  1.0000
  H   H3        1.0  0.70704  0.58581  0.04375  1.0000
  H   H4        1.0  0.29295  0.41419  0.95624  1.0000
  H   H5        1.0  0.83592  0.58822  0.89164  1.0000
  H   H6        1.0  0.16408  0.41177  0.10836  1.0000
  H   H7        1.0  0.42388  0.76541  0.82323  1.0000
  H   H8        1.0  0.57613  0.23459  0.17677  1.0000
  H   H9        1.0  0.70059  0.87638  0.92546  1.0000
  H   H10       1.0  0.29942  0.12362  0.07454  1.0000
  H   H11       1.0  0.85269  0.95906  0.09149  1.0000
  H   H12       1.0  0.14730  0.04092  0.90852  1.0000
  H   H13       1.0  0.68251  0.93717  0.22821  1.0000
  H   H14       1.0  0.31748  0.06282  0.77179  1.0000
  H   H15       1.0  0.10908  0.66273  0.80943  1.0000
  H   H16       1.0  0.89093  0.33727  0.19057  1.0000
  H   H17       1.0  0.95941  0.42568  0.41615  1.0000
  H   H18       1.0  0.04059  0.57432  0.58386  1.0000
  H   H19       1.0  0.28895  0.32443  0.24136  1.0000
  H   H20       1.0  0.71104  0.67557  0.75864  1.0000
  H   H21       1.0  0.95133  0.00170  0.39211  1.0000
  H   H22       1.0  0.04867  0.99830  0.60789  1.0000
  H   H23       1.0  0.75576  0.24316  0.49451  1.0000
  H   H24       1.0  0.24424  0.75685  0.50549  1.0000
  H   H25       1.0  0.86186  0.14774  0.55303  1.0000
  H   H26       1.0  0.13814  0.85226  0.44697  1.0000
  H   H27       1.0  0.74967  0.87983  0.51969  1.0000
  H   H28       1.0  0.25032  0.12017  0.48030  1.0000
  H   H29       1.0  0.52618  0.10324  0.34582  1.0000
  H   H30       1.0  0.47382  0.89677  0.65418  1.0000
  H   H31       1.0  0.47908  0.68984  0.39890  1.0000
  H   H32       1.0  0.52093  0.31017  0.60109  1.0000
  C   C1        1.0  0.94759  0.68419  0.12875  1.0000
  C   C2        1.0  0.05241  0.31581  0.87125  1.0000
  C   C3        1.0  0.84369  0.63059  0.04276  1.0000
  C   C4        1.0  0.15631  0.36941  0.95724  1.0000
  C   C5        1.0  0.91529  0.63377  0.95855  1.0000
  C   C6        1.0  0.08470  0.36622  0.04144  1.0000
  C   C7        1.0  0.09346  0.69276  0.96049  1.0000
  C   C8        1.0  0.90654  0.30723  0.03951  1.0000
  C   C9        1.0  0.18877  0.74402  0.05015  1.0000
  C   C10       1.0  0.81123  0.25597  0.94984  1.0000
  C   C11       1.0  0.35555  0.75731  0.88554  1.0000
  C   C12       1.0  0.64446  0.24270  0.11446  1.0000
  C   C13       1.0  0.45412  0.80912  0.97577  1.0000
  C   C14       1.0  0.54588  0.19088  0.02423  1.0000
  C   C15       1.0  0.63292  0.86774  0.98815  1.0000
  C   C16       1.0  0.36708  0.13226  0.01185  1.0000
  C   C17       1.0  0.71512  0.91368  0.07871  1.0000
  C   C18       1.0  0.28488  0.08631  0.92129  1.0000
  C   C19       1.0  0.62012  0.90207  0.15627  1.0000
  C   C20       1.0  0.37987  0.09792  0.84373  1.0000
  C   C21       1.0  0.18258  0.70149  0.87838  1.0000
  C   C22       1.0  0.81743  0.29851  0.12162  1.0000
  C   C23       1.0  0.94222  0.20929  0.41412  1.0000
  C   C24       1.0  0.05779  0.79071  0.58588  1.0000
  C   C25       1.0  0.00620  0.34827  0.38841  1.0000
  C   C26       1.0  0.99380  0.65173  0.61159  1.0000
  C   C27       1.0  0.12972  0.38957  0.32502  1.0000
  C   C28       1.0  0.87028  0.61044  0.67498  1.0000
  C   C29       1.0  0.19080  0.29155  0.28906  1.0000
  C   C30       1.0  0.80919  0.70845  0.71094  1.0000
  C   C31       1.0  0.12676  0.15218  0.31319  1.0000
  C   C32       1.0  0.87324  0.84782  0.68681  1.0000
  C   C33       1.0  0.00132  0.11150  0.37498  1.0000
  C   C34       1.0  0.99868  0.88850  0.62502  1.0000
  C   C35       1.0  0.19925  0.05014  0.27554  1.0000
  C   C36       1.0  0.80075  0.94986  0.72446  1.0000
  C   C37       1.0  0.80983  0.16355  0.48279  1.0000
  C   C38       1.0  0.19017  0.83645  0.51721  1.0000
  C   C39       1.0  0.66270  0.89655  0.46623  1.0000
  C   C40       1.0  0.33732  0.10346  0.53378  1.0000
  C   C41       1.0  0.19546  0.53580  0.29052  1.0000
  C   C42       1.0  0.80454  0.46420  0.70948  1.0000
  C   C43       1.0  0.54855  0.01638  0.37713  1.0000
  C   C44       1.0  0.45145  0.98363  0.62287  1.0000
  C   C45       1.0  0.52843  0.80386  0.40686  1.0000
  C   C46       1.0  0.47156  0.19613  0.59312  1.0000
  C   C47       1.0  0.36954  0.80235  0.05798  1.0000
  C   C48       1.0  0.63045  0.19765  0.94202  1.0000
  N   N1        1.0  0.11543  0.73869  0.13190  1.0000
  N   N2        1.0  0.88457  0.26131  0.86810  1.0000
  N   N3        1.0  0.45203  0.84848  0.14624  1.0000
  N   N4        1.0  0.54797  0.15152  0.85376  1.0000
  N   N5        1.0  0.67322  0.03023  0.44680  1.0000
  N   N6        1.0  0.32677  0.96978  0.55320  1.0000
  N   N7        1.0  0.45833  0.88034  0.35219  1.0000
  N   N8        1.0  0.54168  0.11967  0.64781  1.0000
  O   O1        1.0  0.13541  0.92328  0.30032  1.0000
  O   O2        1.0  0.86458  0.07672  0.69968  1.0000
  O   O3        1.0  0.31964  0.09516  0.22505  1.0000
  O   O4        1.0  0.68038  0.90485  0.77496  1.0000
  O   O5        1.0  0.13827  0.62519  0.32350  1.0000
  O   O6        1.0  0.86175  0.37482  0.67650  1.0000
  O   O7        1.0  0.30159  0.56106  0.23049  1.0000
  O   O8        1.0  0.69843  0.43894  0.76952  1.0000
