data_image0
_chemical_formula_structural       K4H20C24N4O24F12
_chemical_formula_sum              "K4 H20 C24 N4 O24 F12"
_cell_length_a       7.53407
_cell_length_b       7.53409
_cell_length_c       18.3608
_cell_angle_alpha    89.9999
_cell_angle_beta     89.9999
_cell_angle_gamma    102.736

_space_group_name_H-M_alt    "P 1"
_space_group_IT_number       1

loop_
  _space_group_symop_operation_xyz
  'x, y, z'

loop_
  _atom_site_type_symbol
  _atom_site_label
  _atom_site_symmetry_multiplicity
  _atom_site_fract_x
  _atom_site_fract_y
  _atom_site_fract_z
  _atom_site_occupancy
  K   K1        1.0  0.93152  0.37703  0.82700  1.0000
  K   K2        1.0  0.06849  0.62298  0.32700  1.0000
  K   K3        1.0  0.37703  0.93151  0.17300  1.0000
  K   K4        1.0  0.62297  0.06848  0.67300  1.0000
  H   H1        1.0  0.27347  0.86536  0.84564  1.0000
  H   H2        1.0  0.72653  0.13465  0.34564  1.0000
  H   H3        1.0  0.86536  0.27347  0.15436  1.0000
  H   H4        1.0  0.13464  0.72653  0.65436  1.0000
  H   H5        1.0  0.96537  0.94690  0.94602  1.0000
  H   H6        1.0  0.03463  0.05310  0.44602  1.0000
  H   H7        1.0  0.94690  0.96537  0.05398  1.0000
  H   H8        1.0  0.05310  0.03463  0.55398  1.0000
  H   H9        1.0  0.54804  0.03243  0.89579  1.0000
  H   H10       1.0  0.45195  0.96757  0.39579  1.0000
  H   H11       1.0  0.03243  0.54804  0.10421  1.0000
  H   H12       1.0  0.96757  0.45196  0.60421  1.0000
  H   H13       1.0  0.59294  0.05839  0.98886  1.0000
  H   H14       1.0  0.40706  0.94161  0.48886  1.0000
  H   H15       1.0  0.05839  0.59294  0.01114  1.0000
  H   H16       1.0  0.94161  0.40706  0.51114  1.0000
  H   H17       1.0  0.84385  0.75759  0.73695  1.0000
  H   H18       1.0  0.15616  0.24241  0.23695  1.0000
  H   H19       1.0  0.75759  0.84385  0.26305  1.0000
  H   H20       1.0  0.24241  0.15615  0.76305  1.0000
  C   C1        1.0  0.20826  0.86913  0.89860  1.0000
  C   C2        1.0  0.79174  0.13087  0.39860  1.0000
  C   C3        1.0  0.86913  0.20826  0.10140  1.0000
  C   C4        1.0  0.13086  0.79174  0.60140  1.0000
  C   C5        1.0  0.01387  0.87957  0.89986  1.0000
  C   C6        1.0  0.98613  0.12043  0.39986  1.0000
  C   C7        1.0  0.87956  0.01387  0.10014  1.0000
  C   C8        1.0  0.12043  0.98613  0.60014  1.0000
  C   C9        1.0  0.91056  0.88486  0.83019  1.0000
  C   C10       1.0  0.08945  0.11513  0.33019  1.0000
  C   C11       1.0  0.88487  0.91055  0.16982  1.0000
  C   C12       1.0  0.11514  0.08944  0.66981  1.0000
  C   C13       1.0  0.32834  0.93722  0.96375  1.0000
  C   C14       1.0  0.67166  0.06278  0.46374  1.0000
  C   C15       1.0  0.93723  0.32834  0.03626  1.0000
  C   C16       1.0  0.06277  0.67166  0.53626  1.0000
  C   C17       1.0  0.48640  0.51084  0.88109  1.0000
  C   C18       1.0  0.51361  0.48916  0.38109  1.0000
  C   C19       1.0  0.51083  0.48639  0.11891  1.0000
  C   C20       1.0  0.48917  0.51361  0.61891  1.0000
  C   C21       1.0  0.43345  0.33113  0.83644  1.0000
  C   C22       1.0  0.56655  0.66887  0.33644  1.0000
  C   C23       1.0  0.33113  0.43345  0.16356  1.0000
  C   C24       1.0  0.66887  0.56655  0.66356  1.0000
  N   N1        1.0  0.50199  0.01333  0.94791  1.0000
  N   N2        1.0  0.49801  0.98668  0.44791  1.0000
  N   N3        1.0  0.01332  0.50199  0.05209  1.0000
  N   N4        1.0  0.98667  0.49801  0.55209  1.0000
  O   O1        1.0  0.06767  0.71094  0.91480  1.0000
  O   O2        1.0  0.93233  0.28907  0.41480  1.0000
  O   O3        1.0  0.71093  0.06767  0.08520  1.0000
  O   O4        1.0  0.28907  0.93233  0.58520  1.0000
  O   O5        1.0  0.81723  0.99843  0.82048  1.0000
  O   O6        1.0  0.18276  0.00158  0.32048  1.0000
  O   O7        1.0  0.99841  0.81724  0.17952  1.0000
  O   O8        1.0  0.00158  0.18277  0.67952  1.0000
  O   O9        1.0  0.92967  0.75784  0.78312  1.0000
  O   O10       1.0  0.07033  0.24217  0.28312  1.0000
  O   O11       1.0  0.75783  0.92967  0.21688  1.0000
  O   O12       1.0  0.24216  0.07032  0.71688  1.0000
  O   O13       1.0  0.26393  0.91556  0.02641  1.0000
  O   O14       1.0  0.73607  0.08444  0.52641  1.0000
  O   O15       1.0  0.91556  0.26393  0.97359  1.0000
  O   O16       1.0  0.08444  0.73607  0.47359  1.0000
  O   O17       1.0  0.26376  0.28321  0.82263  1.0000
  O   O18       1.0  0.73625  0.71679  0.32263  1.0000
  O   O19       1.0  0.28322  0.26376  0.17737  1.0000
  O   O20       1.0  0.71679  0.73624  0.67737  1.0000
  O   O21       1.0  0.55811  0.25769  0.81671  1.0000
  O   O22       1.0  0.44190  0.74231  0.31672  1.0000
  O   O23       1.0  0.25768  0.55810  0.18328  1.0000
  O   O24       1.0  0.74231  0.44189  0.68329  1.0000
  F   F1        1.0  0.65493  0.53594  0.91158  1.0000
  F   F2        1.0  0.34508  0.46406  0.41158  1.0000
  F   F3        1.0  0.53593  0.65492  0.08842  1.0000
  F   F4        1.0  0.46406  0.34508  0.58842  1.0000
  F   F5        1.0  0.48960  0.65567  0.83511  1.0000
  F   F6        1.0  0.51041  0.34433  0.33511  1.0000
  F   F7        1.0  0.65568  0.48959  0.16489  1.0000
  F   F8        1.0  0.34433  0.51041  0.66489  1.0000
  F   F9        1.0  0.36665  0.52118  0.93526  1.0000
  F   F10       1.0  0.63335  0.47882  0.43526  1.0000
  F   F11       1.0  0.52118  0.36665  0.06474  1.0000
  F   F12       1.0  0.47882  0.63335  0.56474  1.0000
