data_image0
_chemical_formula_structural       CoH18C16S2N6O6
_chemical_formula_sum              "Co1 H18 C16 S2 N6 O6"
_cell_length_a       7.10528
_cell_length_b       8.32252
_cell_length_c       10.2984
_cell_angle_alpha    112.512
_cell_angle_beta     100.355
_cell_angle_gamma    87.4385

_space_group_name_H-M_alt    "P 1"
_space_group_IT_number       1

loop_
  _space_group_symop_operation_xyz
  'x, y, z'

loop_
  _atom_site_type_symbol
  _atom_site_label
  _atom_site_symmetry_multiplicity
  _atom_site_fract_x
  _atom_site_fract_y
  _atom_site_fract_z
  _atom_site_occupancy
  Co  Co1       1.0  0.50000  1.00000  0.00000  1.0000
  H   H1        1.0  0.42594  0.18772  0.35824  1.0000
  H   H2        1.0  0.57407  0.81228  0.64176  1.0000
  H   H3        1.0  0.35484  0.05433  0.52641  1.0000
  H   H4        1.0  0.64517  0.94567  0.47358  1.0000
  H   H5        1.0  0.93716  0.71644  0.17954  1.0000
  H   H6        1.0  0.06283  0.28357  0.82047  1.0000
  H   H7        1.0  0.01330  0.87071  0.03025  1.0000
  H   H8        1.0  0.98669  0.12930  0.96975  1.0000
  H   H9        1.0  0.78679  0.54387  0.49219  1.0000
  H   H10       1.0  0.21320  0.45612  0.50779  1.0000
  H   H11       1.0  0.97588  0.66412  0.63048  1.0000
  H   H12       1.0  0.02411  0.33587  0.36951  1.0000
  H   H13       1.0  0.85924  0.66876  0.34786  1.0000
  H   H14       1.0  0.14076  0.33124  0.65213  1.0000
  H   H15       1.0  0.27995  0.79914  0.74318  1.0000
  H   H16       1.0  0.72005  0.20087  0.25682  1.0000
  H   H17       1.0  0.34808  0.68615  0.83744  1.0000
  H   H18       1.0  0.65191  0.31385  0.16256  1.0000
  C   C1        1.0  0.31739  0.08607  0.32792  1.0000
  C   C2        1.0  0.68261  0.91392  0.67208  1.0000
  C   C3        1.0  0.27860  0.00834  0.41684  1.0000
  C   C4        1.0  0.72140  0.99166  0.58316  1.0000
  C   C5        1.0  0.14402  0.87101  0.36686  1.0000
  C   C6        1.0  0.85598  0.12899  0.63314  1.0000
  C   C7        1.0  0.04529  0.82101  0.22625  1.0000
  C   C8        1.0  0.95471  0.17901  0.77375  1.0000
  C   C9        1.0  0.08598  0.90246  0.13967  1.0000
  C   C10       1.0  0.91402  0.09755  0.86034  1.0000
  C   C11       1.0  0.12252  0.78301  0.46511  1.0000
  C   C12       1.0  0.87748  0.21700  0.53488  1.0000
  C   C13       1.0  0.93908  0.58145  0.51650  1.0000
  C   C14       1.0  0.06091  0.41854  0.48349  1.0000
  C   C15       1.0  0.55218  0.73428  0.15458  1.0000
  C   C16       1.0  0.44783  0.26573  0.84542  1.0000
  S   S1        1.0  0.54257  0.60266  0.23697  1.0000
  S   S2        1.0  0.45744  0.39734  0.76304  1.0000
  N   N1        1.0  0.22306  0.03155  0.19047  1.0000
  N   N2        1.0  0.77695  0.96845  0.80953  1.0000
  N   N3        1.0  0.96875  0.67719  0.43059  1.0000
  N   N4        1.0  0.03125  0.32281  0.56940  1.0000
  N   N5        1.0  0.55701  0.83445  0.09883  1.0000
  N   N6        1.0  0.44300  0.16554  0.90118  1.0000
  O   O1        1.0  0.27014  0.10314  0.10567  1.0000
  O   O2        1.0  0.72985  0.89686  0.89432  1.0000
  O   O3        1.0  0.24660  0.80842  0.57494  1.0000
  O   O4        1.0  0.75340  0.19158  0.42506  1.0000
  O   O5        1.0  0.30233  0.80132  0.84204  1.0000
  O   O6        1.0  0.69767  0.19868  0.15796  1.0000
