data_image0
_chemical_formula_structural       CdCu2H72C56N4Cl2O12
_chemical_formula_sum              "Cd1 Cu2 H72 C56 N4 Cl2 O12"
_cell_length_a       7.82713
_cell_length_b       15.4645
_cell_length_c       15.4401
_cell_angle_alpha    90.3536
_cell_angle_beta     101.217
_cell_angle_gamma    101.23

_space_group_name_H-M_alt    "P 1"
_space_group_IT_number       1

loop_
  _space_group_symop_operation_xyz
  'x, y, z'

loop_
  _atom_site_type_symbol
  _atom_site_label
  _atom_site_symmetry_multiplicity
  _atom_site_fract_x
  _atom_site_fract_y
  _atom_site_fract_z
  _atom_site_occupancy
  Cd  Cd1       1.0  0.00000  0.00000  0.00000  1.0000
  Cu  Cu1       1.0  0.00000  0.50000  1.00000  1.0000
  Cu  Cu2       1.0  0.00000  0.00000  0.50000  1.0000
  H   H1        1.0  0.14304  0.67059  0.79180  1.0000
  H   H2        1.0  0.85688  0.20807  0.32946  1.0000
  H   H3        1.0  0.85696  0.32941  0.20820  1.0000
  H   H4        1.0  0.14312  0.79193  0.67054  1.0000
  H   H5        1.0  0.37593  0.71069  0.83596  1.0000
  H   H6        1.0  0.62400  0.16400  0.28931  1.0000
  H   H7        1.0  0.62407  0.28931  0.16404  1.0000
  H   H8        1.0  0.37600  0.83600  0.71070  1.0000
  H   H9        1.0  0.21455  0.76185  0.86983  1.0000
  H   H10       1.0  0.78541  0.13019  0.23805  1.0000
  H   H11       1.0  0.78545  0.23815  0.13017  1.0000
  H   H12       1.0  0.21459  0.86981  0.76195  1.0000
  H   H13       1.0  0.56064  0.61827  0.17287  1.0000
  H   H14       1.0  0.43941  0.82723  0.38165  1.0000
  H   H15       1.0  0.43936  0.38173  0.82713  1.0000
  H   H16       1.0  0.56059  0.17277  0.61835  1.0000
  H   H17       1.0  0.66610  0.57644  0.09493  1.0000
  H   H18       1.0  0.33394  0.90502  0.42356  1.0000
  H   H19       1.0  0.33390  0.42357  0.90507  1.0000
  H   H20       1.0  0.66606  0.09498  0.57644  1.0000
  H   H21       1.0  0.53058  0.50180  0.15452  1.0000
  H   H22       1.0  0.46949  0.84556  0.49829  1.0000
  H   H23       1.0  0.46942  0.49820  0.84548  1.0000
  H   H24       1.0  0.53051  0.15444  0.50171  1.0000
  H   H25       1.0  0.38046  0.80096  0.04245  1.0000
  H   H26       1.0  0.61946  0.95755  0.19900  1.0000
  H   H27       1.0  0.61954  0.19904  0.95755  1.0000
  H   H28       1.0  0.38054  0.04245  0.80100  1.0000
  H   H29       1.0  0.62959  0.93164  0.04981  1.0000
  H   H30       1.0  0.37031  0.95012  0.06809  1.0000
  H   H31       1.0  0.37041  0.06836  0.95019  1.0000
  H   H32       1.0  0.62970  0.04988  0.93191  1.0000
  H   H33       1.0  0.94386  0.78198  0.95794  1.0000
  H   H34       1.0  0.05617  0.04206  0.21803  1.0000
  H   H35       1.0  0.05614  0.21802  0.04206  1.0000
  H   H36       1.0  0.94383  0.95794  0.78197  1.0000
  H   H37       1.0  0.71647  0.64250  0.95352  1.0000
  H   H38       1.0  0.28360  0.04653  0.35771  1.0000
  H   H39       1.0  0.28353  0.35750  0.04647  1.0000
  H   H40       1.0  0.71640  0.95347  0.64229  1.0000
  H   H41       1.0  0.92729  0.59711  0.24570  1.0000
  H   H42       1.0  0.07276  0.75438  0.40287  1.0000
  H   H43       1.0  0.07271  0.40289  0.75430  1.0000
  H   H44       1.0  0.92724  0.24562  0.59713  1.0000
  H   H45       1.0  0.04055  0.51680  0.21126  1.0000
  H   H46       1.0  0.95954  0.78871  0.48344  1.0000
  H   H47       1.0  0.95945  0.48320  0.78874  1.0000
  H   H48       1.0  0.04047  0.21129  0.51656  1.0000
  H   H49       1.0  0.32563  0.60771  0.27193  1.0000
  H   H50       1.0  0.67442  0.72808  0.39239  1.0000
  H   H51       1.0  0.67437  0.39229  0.72807  1.0000
  H   H52       1.0  0.32558  0.27192  0.60761  1.0000
  H   H53       1.0  0.20615  0.65940  0.33624  1.0000
  H   H54       1.0  0.79391  0.66398  0.34056  1.0000
  H   H55       1.0  0.79385  0.34060  0.66376  1.0000
  H   H56       1.0  0.20609  0.33602  0.65944  1.0000
  H   H57       1.0  0.25526  0.78795  0.25217  1.0000
  H   H58       1.0  0.74469  0.74791  0.21184  1.0000
  H   H59       1.0  0.74474  0.21204  0.74783  1.0000
  H   H60       1.0  0.25531  0.25210  0.78816  1.0000
  H   H61       1.0  0.37205  0.73310  0.18957  1.0000
  H   H62       1.0  0.62789  0.81037  0.26688  1.0000
  H   H63       1.0  0.62795  0.26690  0.81043  1.0000
  H   H64       1.0  0.37211  0.18963  0.73313  1.0000
  H   H65       1.0  0.98381  0.74635  0.14929  1.0000
  H   H66       1.0  0.01615  0.85074  0.25351  1.0000
  H   H67       1.0  0.01619  0.25364  0.85071  1.0000
  H   H68       1.0  0.98384  0.14926  0.74649  1.0000
  H   H69       1.0  0.12134  0.73215  0.07311  1.0000
  H   H70       1.0  0.87861  0.92673  0.26783  1.0000
  H   H71       1.0  0.87866  0.26785  0.92689  1.0000
  H   H72       1.0  0.12139  0.07327  0.73217  1.0000
  C   C1        1.0  0.24207  0.69783  0.85079  1.0000
  C   C2        1.0  0.75784  0.14917  0.30217  1.0000
  C   C3        1.0  0.75793  0.30217  0.14921  1.0000
  C   C4        1.0  0.24216  0.85083  0.69783  1.0000
  C   C5        1.0  0.22593  0.63478  0.92397  1.0000
  C   C6        1.0  0.77403  0.07606  0.36529  1.0000
  C   C7        1.0  0.77406  0.36522  0.07603  1.0000
  C   C8        1.0  0.22597  0.92394  0.63471  1.0000
  C   C9        1.0  0.37542  0.63357  0.99263  1.0000
  C   C10       1.0  0.62460  0.00747  0.36654  1.0000
  C   C11       1.0  0.62458  0.36643  0.00737  1.0000
  C   C12       1.0  0.37540  0.99253  0.63346  1.0000
  C   C13       1.0  0.37880  0.56573  0.05369  1.0000
  C   C14       1.0  0.62129  0.94631  0.43433  1.0000
  C   C15       1.0  0.62120  0.43427  0.94631  1.0000
  C   C16       1.0  0.37871  0.05369  0.56568  1.0000
  C   C17       1.0  0.54489  0.56509  0.12246  1.0000
  C   C18       1.0  0.45520  0.87758  0.43491  1.0000
  C   C19       1.0  0.45511  0.43491  0.87754  1.0000
  C   C20       1.0  0.54480  0.12242  0.56509  1.0000
  C   C21       1.0  0.52788  0.70945  0.99947  1.0000
  C   C22       1.0  0.47209  0.00063  0.29060  1.0000
  C   C23       1.0  0.47212  0.29055  0.00053  1.0000
  C   C24       1.0  0.52791  0.99937  0.70940  1.0000
  C   C25       1.0  0.50583  0.79271  0.02632  1.0000
  C   C26       1.0  0.49410  0.97370  0.20724  1.0000
  C   C27       1.0  0.49417  0.20729  0.97368  1.0000
  C   C28       1.0  0.50590  0.02630  0.79276  1.0000
  C   C29       1.0  0.64191  0.86581  0.02950  1.0000
  C   C30       1.0  0.35800  0.97046  0.13403  1.0000
  C   C31       1.0  0.35809  0.13419  0.97050  1.0000
  C   C32       1.0  0.64199  0.02955  0.86597  1.0000
  C   C33       1.0  0.81854  0.78193  0.97893  1.0000
  C   C34       1.0  0.18146  0.02107  0.21805  1.0000
  C   C35       1.0  0.18146  0.21807  0.02107  1.0000
  C   C36       1.0  0.81854  0.97893  0.78195  1.0000
  C   C37       1.0  0.69031  0.70492  0.97572  1.0000
  C   C38       1.0  0.30967  0.02433  0.29518  1.0000
  C   C39       1.0  0.30969  0.29508  0.02428  1.0000
  C   C40       1.0  0.69033  0.97567  0.70482  1.0000
  C   C41       1.0  0.04122  0.58755  0.21667  1.0000
  C   C42       1.0  0.95883  0.78331  0.41257  1.0000
  C   C43       1.0  0.95878  0.41245  0.78334  1.0000
  C   C44       1.0  0.04118  0.21669  0.58743  1.0000
  C   C45       1.0  0.21637  0.64339  0.26824  1.0000
  C   C46       1.0  0.78367  0.73185  0.35664  1.0000
  C   C47       1.0  0.78364  0.35661  0.73177  1.0000
  C   C48       1.0  0.21633  0.26815  0.64336  1.0000
  C   C49       1.0  0.24777  0.72682  0.21384  1.0000
  C   C50       1.0  0.75220  0.78617  0.27309  1.0000
  C   C51       1.0  0.75223  0.27318  0.78616  1.0000
  C   C52       1.0  0.24780  0.21383  0.72691  1.0000
  C   C53       1.0  0.08782  0.71173  0.13656  1.0000
  C   C54       1.0  0.91215  0.86337  0.28824  1.0000
  C   C55       1.0  0.91218  0.28827  0.86344  1.0000
  C   C56       1.0  0.08785  0.13663  0.71176  1.0000
  N   N1        1.0  0.79680  0.86106  0.00642  1.0000
  N   N2        1.0  0.20317  0.99356  0.13882  1.0000
  N   N3        1.0  0.20321  0.13894  0.99358  1.0000
  N   N4        1.0  0.79683  0.00644  0.86118  1.0000
  Cl  Cl1       1.0  0.18332  0.91586  0.91582  1.0000
  Cl  Cl2       1.0  0.81668  0.08414  0.08418  1.0000
  O   O1        1.0  0.07223  0.58478  0.91667  1.0000
  O   O2        1.0  0.92782  0.08328  0.41525  1.0000
  O   O3        1.0  0.92777  0.41522  0.08333  1.0000
  O   O4        1.0  0.07218  0.91672  0.58475  1.0000
  O   O5        1.0  0.24785  0.50215  0.05680  1.0000
  O   O6        1.0  0.75226  0.94313  0.49794  1.0000
  O   O7        1.0  0.75215  0.49785  0.94320  1.0000
  O   O8        1.0  0.24774  0.05687  0.50206  1.0000
  O   O9        1.0  0.01960  0.61836  0.12834  1.0000
  O   O10       1.0  0.98036  0.87153  0.38173  1.0000
  O   O11       1.0  0.98040  0.38164  0.87166  1.0000
  O   O12       1.0  0.01964  0.12847  0.61827  1.0000
