data_image0
_chemical_formula_structural       Cu4H52C56N10O20
_chemical_formula_sum              "Cu4 H52 C56 N10 O20"
_cell_length_a       11.4842
_cell_length_b       12.3724
_cell_length_c       14.335
_cell_angle_alpha    101.613
_cell_angle_beta     103.039
_cell_angle_gamma    96.4936

_space_group_name_H-M_alt    "P 1"
_space_group_IT_number       1

loop_
  _space_group_symop_operation_xyz
  'x, y, z'

loop_
  _atom_site_type_symbol
  _atom_site_label
  _atom_site_symmetry_multiplicity
  _atom_site_fract_x
  _atom_site_fract_y
  _atom_site_fract_z
  _atom_site_occupancy
  Cu  Cu1       1.0  0.10448  0.06172  0.70621  1.0000
  Cu  Cu2       1.0  0.89552  0.93828  0.29379  1.0000
  Cu  Cu3       1.0  0.90008  0.05571  0.51526  1.0000
  Cu  Cu4       1.0  0.09992  0.94431  0.48475  1.0000
  H   H1        1.0  0.43130  0.30934  0.54391  1.0000
  H   H2        1.0  0.56870  0.69064  0.45610  1.0000
  H   H3        1.0  0.41352  0.39586  0.26516  1.0000
  H   H4        1.0  0.58647  0.60413  0.73484  1.0000
  H   H5        1.0  0.75671  0.44714  0.47760  1.0000
  H   H6        1.0  0.24329  0.55285  0.52239  1.0000
  H   H7        1.0  0.80362  0.32346  0.77157  1.0000
  H   H8        1.0  0.19637  0.67655  0.22843  1.0000
  H   H9        1.0  0.93944  0.39921  0.76066  1.0000
  H   H10       1.0  0.06057  0.60080  0.23934  1.0000
  H   H11       1.0  0.03631  0.30268  0.34674  1.0000
  H   H12       1.0  0.96369  0.69734  0.65328  1.0000
  H   H13       1.0  0.04725  0.29068  0.47064  1.0000
  H   H14       1.0  0.95274  0.70933  0.52937  1.0000
  H   H15       1.0  0.58767  0.65913  0.16243  1.0000
  H   H16       1.0  0.41235  0.34086  0.83756  1.0000
  H   H17       1.0  0.71188  0.58414  0.17082  1.0000
  H   H18       1.0  0.28813  0.41585  0.82919  1.0000
  H   H19       1.0  0.68879  0.88658  0.47803  1.0000
  H   H20       1.0  0.31119  0.11342  0.52198  1.0000
  H   H21       1.0  0.46882  0.85982  0.38918  1.0000
  H   H22       1.0  0.53117  0.14019  0.61083  1.0000
  H   H23       1.0  0.54630  0.17581  0.31219  1.0000
  H   H24       1.0  0.45371  0.82418  0.68779  1.0000
  H   H25       1.0  0.76168  0.18600  0.39939  1.0000
  H   H26       1.0  0.23833  0.81398  0.60059  1.0000
  H   H27       1.0  0.31544  0.06692  0.34108  1.0000
  H   H28       1.0  0.68456  0.93309  0.65891  1.0000
  H   H29       1.0  0.30766  0.92383  0.29310  1.0000
  H   H30       1.0  0.69234  0.07619  0.70690  1.0000
  H   H31       1.0  0.37637  0.11012  0.19177  1.0000
  H   H32       1.0  0.62364  0.88988  0.80822  1.0000
  H   H33       1.0  0.36439  0.96513  0.14283  1.0000
  H   H34       1.0  0.63562  0.03487  0.85717  1.0000
  H   H35       1.0  0.16138  0.08988  0.19216  1.0000
  H   H36       1.0  0.83862  0.91013  0.80784  1.0000
  H   H37       1.0  0.14312  0.94200  0.15281  1.0000
  H   H38       1.0  0.85688  0.05800  0.84718  1.0000
  H   H39       1.0  0.16674  0.85472  0.98210  1.0000
  H   H40       1.0  0.83327  0.14529  0.01790  1.0000
  H   H41       1.0  0.13725  0.87694  0.80951  1.0000
  H   H42       1.0  0.86275  0.12306  0.19049  1.0000
  H   H43       1.0  0.13479  0.21603  0.89506  1.0000
  H   H44       1.0  0.86521  0.78397  0.10493  1.0000
  H   H45       1.0  0.16440  0.20847  0.07316  1.0000
  H   H46       1.0  0.83560  0.79154  0.92683  1.0000
  H   H47       1.0  0.82217  0.36384  0.57936  1.0000
  H   H48       1.0  0.17783  0.63618  0.42063  1.0000
  H   H49       1.0  0.25476  0.31560  0.50571  1.0000
  H   H50       1.0  0.74523  0.68439  0.49430  1.0000
  H   H51       1.0  0.52032  0.57513  0.27974  1.0000
  H   H52       1.0  0.47968  0.42486  0.72026  1.0000
  C   C1        1.0  0.60073  0.37434  0.52114  1.0000
  C   C2        1.0  0.39926  0.62565  0.47885  1.0000
  C   C3        1.0  0.47470  0.34081  0.49213  1.0000
  C   C4        1.0  0.52529  0.65918  0.50787  1.0000
  C   C5        1.0  0.40793  0.34747  0.39961  1.0000
  C   C6        1.0  0.59207  0.65251  0.60039  1.0000
  C   C7        1.0  0.46761  0.39022  0.33651  1.0000
  C   C8        1.0  0.53239  0.60978  0.66349  1.0000
  C   C9        1.0  0.59280  0.42641  0.36566  1.0000
  C   C10       1.0  0.40720  0.57358  0.63433  1.0000
  C   C11       1.0  0.65954  0.41601  0.45702  1.0000
  C   C12       1.0  0.34046  0.58398  0.54297  1.0000
  C   C13       1.0  0.66570  0.36571  0.62191  1.0000
  C   C14       1.0  0.33431  0.63430  0.37809  1.0000
  C   C15       1.0  0.85930  0.33563  0.72044  1.0000
  C   C16       1.0  0.14071  0.66437  0.27956  1.0000
  C   C17       1.0  0.90392  0.22564  0.68461  1.0000
  C   C18       1.0  0.09608  0.77437  0.31540  1.0000
  C   C19       1.0  0.27285  0.31396  0.36388  1.0000
  C   C20       1.0  0.72715  0.68604  0.63612  1.0000
  C   C21       1.0  0.08436  0.26823  0.40641  1.0000
  C   C22       1.0  0.91564  0.73178  0.59360  1.0000
  C   C23       1.0  0.06045  0.13977  0.37324  1.0000
  C   C24       1.0  0.93954  0.86023  0.62676  1.0000
  C   C25       1.0  0.65857  0.48326  0.30484  1.0000
  C   C26       1.0  0.34143  0.51672  0.69516  1.0000
  C   C27       1.0  0.65509  0.62759  0.21291  1.0000
  C   C28       1.0  0.34492  0.37240  0.78709  1.0000
  C   C29       1.0  0.73835  0.72946  0.29007  1.0000
  C   C30       1.0  0.26166  0.27054  0.70994  1.0000
  C   C31       1.0  0.65155  0.94752  0.44005  1.0000
  C   C32       1.0  0.34844  0.05247  0.55995  1.0000
  C   C33       1.0  0.53010  0.93464  0.39093  1.0000
  C   C34       1.0  0.46990  0.06536  0.60908  1.0000
  C   C35       1.0  0.48727  0.01646  0.34383  1.0000
  C   C36       1.0  0.51274  0.98354  0.65618  1.0000
  C   C37       1.0  0.57269  0.10868  0.34700  1.0000
  C   C38       1.0  0.42731  0.89131  0.65298  1.0000
  C   C39       1.0  0.69296  0.11616  0.39628  1.0000
  C   C40       1.0  0.30705  0.88383  0.60371  1.0000
  C   C41       1.0  0.35536  0.00680  0.29503  1.0000
  C   C42       1.0  0.64464  0.99321  0.70497  1.0000
  C   C43       1.0  0.32911  0.02728  0.19103  1.0000
  C   C44       1.0  0.67090  0.97273  0.80897  1.0000
  C   C45       1.0  0.19245  0.02134  0.14779  1.0000
  C   C46       1.0  0.80756  0.97867  0.85221  1.0000
  C   C47       1.0  0.16865  0.03052  0.04285  1.0000
  C   C48       1.0  0.83135  0.96949  0.95715  1.0000
  C   C49       1.0  0.16087  0.93703  0.96668  1.0000
  C   C50       1.0  0.83913  0.06298  0.03332  1.0000
  C   C51       1.0  0.14487  0.94813  0.87043  1.0000
  C   C52       1.0  0.85513  0.05188  0.12957  1.0000
  C   C53       1.0  0.14302  0.13836  0.91866  1.0000
  C   C54       1.0  0.85697  0.86164  0.08133  1.0000
  C   C55       1.0  0.15917  0.13301  0.01670  1.0000
  C   C56       1.0  0.84083  0.86700  0.98330  1.0000
  N   N1        1.0  0.78751  0.37176  0.63913  1.0000
  N   N2        1.0  0.21250  0.62824  0.36086  1.0000
  N   N3        1.0  0.21153  0.31298  0.43435  1.0000
  N   N4        1.0  0.78847  0.68701  0.56566  1.0000
  N   N5        1.0  0.59474  0.55168  0.25750  1.0000
  N   N6        1.0  0.40527  0.44832  0.74250  1.0000
  N   N7        1.0  0.73131  0.03717  0.44260  1.0000
  N   N8        1.0  0.26868  0.96282  0.55740  1.0000
  N   N9        1.0  0.13598  0.04736  0.84658  1.0000
  N   N10       1.0  0.86402  0.95264  0.15343  1.0000
  O   O1        1.0  0.60972  0.35267  0.68531  1.0000
  O   O2        1.0  0.39029  0.64734  0.31469  1.0000
  O   O3        1.0  0.88646  0.19791  0.58985  1.0000
  O   O4        1.0  0.11355  0.80210  0.41016  1.0000
  O   O5        1.0  0.95150  0.17515  0.74598  1.0000
  O   O6        1.0  0.04850  0.82486  0.25401  1.0000
  O   O7        1.0  0.22121  0.29271  0.27441  1.0000
  O   O8        1.0  0.77878  0.70730  0.72560  1.0000
  O   O9        1.0  0.14371  0.08418  0.38544  1.0000
  O   O10       1.0  0.85628  0.91584  0.61456  1.0000
  O   O11       1.0  0.94605  0.09998  0.33533  1.0000
  O   O12       1.0  0.05393  0.90003  0.66467  1.0000
  O   O13       1.0  0.76284  0.46962  0.30048  1.0000
  O   O14       1.0  0.23716  0.53036  0.69951  1.0000
  O   O15       1.0  0.74901  0.73779  0.37917  1.0000
  O   O16       1.0  0.25099  0.26220  0.62084  1.0000
  O   O17       1.0  0.78754  0.79705  0.24630  1.0000
  O   O18       1.0  0.21247  0.20294  0.75372  1.0000
  O   O19       1.0  0.06501  0.06418  0.57238  1.0000
  O   O20       1.0  0.93499  0.93581  0.42762  1.0000
