data_image0
_chemical_formula_structural       CuH8C10N4O4
_chemical_formula_sum              "Cu1 H8 C10 N4 O4"
_cell_length_a       4.80326
_cell_length_b       6.73537
_cell_length_c       11.0915
_cell_angle_alpha    118.975
_cell_angle_beta     74.976
_cell_angle_gamma    84.2314

_space_group_name_H-M_alt    "P 1"
_space_group_IT_number       1

loop_
  _space_group_symop_operation_xyz
  'x, y, z'

loop_
  _atom_site_type_symbol
  _atom_site_label
  _atom_site_symmetry_multiplicity
  _atom_site_fract_x
  _atom_site_fract_y
  _atom_site_fract_z
  _atom_site_occupancy
  Cu  Cu1       1.0  1.00000  0.00000  0.50000  1.0000
  H   H1        1.0  0.80842  0.71306  0.62765  1.0000
  H   H2        1.0  0.12793  0.30557  0.76280  1.0000
  H   H3        1.0  0.19157  0.28694  0.37235  1.0000
  H   H4        1.0  0.87207  0.69443  0.23720  1.0000
  H   H5        1.0  0.81405  0.69608  0.84191  1.0000
  H   H6        1.0  0.16175  0.31122  0.98172  1.0000
  H   H7        1.0  0.18595  0.30393  0.15810  1.0000
  H   H8        1.0  0.83825  0.68878  0.01828  1.0000
  C   C1        1.0  0.88230  0.84364  0.70972  1.0000
  C   C2        1.0  0.06054  0.17398  0.78537  1.0000
  C   C3        1.0  0.11770  0.15636  0.29028  1.0000
  C   C4        1.0  0.93946  0.82602  0.21463  1.0000
  C   C5        1.0  0.88800  0.83679  0.83228  1.0000
  C   C6        1.0  0.07721  0.17556  0.90863  1.0000
  C   C7        1.0  0.11201  0.16321  0.16772  1.0000
  C   C8        1.0  0.92279  0.82444  0.09136  1.0000
  C   C9        1.0  0.99058  0.00306  0.93548  1.0000
  C   C10       1.0  0.00942  0.99694  0.06453  1.0000
  N   N1        1.0  0.96814  0.00924  0.68566  1.0000
  N   N2        1.0  0.03186  0.99076  0.31434  1.0000
  N   N3        1.0  0.47234  0.39181  0.61626  1.0000
  N   N4        1.0  0.52766  0.60820  0.38374  1.0000
  O   O1        1.0  0.41699  0.23646  0.51222  1.0000
  O   O2        1.0  0.58300  0.76355  0.48779  1.0000
  O   O3        1.0  0.71759  0.33844  0.63362  1.0000
  O   O4        1.0  0.28241  0.66156  0.36638  1.0000
