data_image0
_chemical_formula_structural       Cu6As4H32C32Br6N4O4
_chemical_formula_sum              "Cu6 As4 H32 C32 Br6 N4 O4"
_cell_length_a       9.92224
_cell_length_b       11.3807
_cell_length_c       11.6133
_cell_angle_alpha    67.9533
_cell_angle_beta     78.7478
_cell_angle_gamma    67.9146

_space_group_name_H-M_alt    "P 1"
_space_group_IT_number       1

loop_
  _space_group_symop_operation_xyz
  'x, y, z'

loop_
  _atom_site_type_symbol
  _atom_site_label
  _atom_site_symmetry_multiplicity
  _atom_site_fract_x
  _atom_site_fract_y
  _atom_site_fract_z
  _atom_site_occupancy
  Cu  Cu1       1.0  0.18766  0.18110  0.35901  1.0000
  Cu  Cu2       1.0  0.81235  0.81890  0.64100  1.0000
  Cu  Cu3       1.0  0.91375  0.33840  0.24625  1.0000
  Cu  Cu4       1.0  0.08624  0.66160  0.75374  1.0000
  Cu  Cu5       1.0  0.14652  0.85395  0.55337  1.0000
  Cu  Cu6       1.0  0.85348  0.14605  0.44663  1.0000
  As  As1       1.0  0.42842  0.04846  0.32620  1.0000
  As  As2       1.0  0.57158  0.95154  0.67380  1.0000
  As  As3       1.0  0.38445  0.82700  0.58255  1.0000
  As  As4       1.0  0.61555  0.17300  0.41745  1.0000
  H   H1        1.0  0.39178  0.96392  0.16867  1.0000
  H   H2        1.0  0.60822  0.03608  0.83133  1.0000
  H   H3        1.0  0.58346  0.91199  0.18847  1.0000
  H   H4        1.0  0.41654  0.08801  0.81153  1.0000
  H   H5        1.0  0.48774  0.08215  0.09705  1.0000
  H   H6        1.0  0.51226  0.91785  0.90295  1.0000
  H   H7        1.0  0.53522  0.59387  0.57993  1.0000
  H   H8        1.0  0.46479  0.40612  0.42007  1.0000
  H   H9        1.0  0.63487  0.65946  0.64080  1.0000
  H   H10       1.0  0.36513  0.34054  0.35920  1.0000
  H   H11       1.0  0.49333  0.59659  0.73595  1.0000
  H   H12       1.0  0.50667  0.40341  0.26405  1.0000
  H   H13       1.0  0.15854  0.97124  0.82184  1.0000
  H   H14       1.0  0.84146  0.02876  0.17816  1.0000
  H   H15       1.0  0.15372  0.95837  0.04236  1.0000
  H   H16       1.0  0.84629  0.04163  0.95764  1.0000
  H   H17       1.0  0.12970  0.16201  0.08888  1.0000
  H   H18       1.0  0.87030  0.83799  0.91113  1.0000
  H   H19       1.0  0.10456  0.37834  0.91852  1.0000
  H   H20       1.0  0.89544  0.62166  0.08148  1.0000
  H   H21       1.0  0.11429  0.39221  0.69796  1.0000
  H   H22       1.0  0.88571  0.60779  0.30204  1.0000
  H   H23       1.0  0.46826  0.35190  0.08168  1.0000
  H   H24       1.0  0.53174  0.64811  0.91832  1.0000
  H   H25       1.0  0.33232  0.35119  0.92511  1.0000
  H   H26       1.0  0.66768  0.64881  0.07489  1.0000
  H   H27       1.0  0.45814  0.32218  0.72471  1.0000
  H   H28       1.0  0.54186  0.67782  0.27529  1.0000
  H   H29       1.0  0.72280  0.29346  0.68177  1.0000
  H   H30       1.0  0.27720  0.70654  0.31822  1.0000
  H   H31       1.0  0.85893  0.30028  0.83650  1.0000
  H   H32       1.0  0.14107  0.69972  0.16350  1.0000
  C   C1        1.0  0.48001  0.99505  0.17790  1.0000
  C   C2        1.0  0.52000  0.00495  0.82210  1.0000
  C   C3        1.0  0.52934  0.64882  0.64159  1.0000
  C   C4        1.0  0.47066  0.35119  0.35841  1.0000
  C   C5        1.0  0.14431  0.18897  0.62243  1.0000
  C   C6        1.0  0.85569  0.81103  0.37757  1.0000
  C   C7        1.0  0.13796  0.18173  0.74756  1.0000
  C   C8        1.0  0.86205  0.81828  0.25244  1.0000
  C   C9        1.0  0.14758  0.05908  0.84443  1.0000
  C   C10       1.0  0.85242  0.94092  0.15558  1.0000
  C   C11       1.0  0.14545  0.05273  0.96674  1.0000
  C   C12       1.0  0.85456  0.94727  0.03326  1.0000
  C   C13       1.0  0.13234  0.16690  0.99297  1.0000
  C   C14       1.0  0.86766  0.83310  0.00703  1.0000
  C   C15       1.0  0.12007  0.28880  0.89671  1.0000
  C   C16       1.0  0.87993  0.71120  0.10329  1.0000
  C   C17       1.0  0.12346  0.29742  0.77353  1.0000
  C   C18       1.0  0.87653  0.70258  0.22647  1.0000
  C   C19       1.0  0.75032  0.32808  0.05728  1.0000
  C   C20       1.0  0.24967  0.67193  0.94272  1.0000
  C   C21       1.0  0.67258  0.32555  0.96860  1.0000
  C   C22       1.0  0.32741  0.67446  0.03139  1.0000
  C   C23       1.0  0.52352  0.33982  0.99400  1.0000
  C   C24       1.0  0.47647  0.66018  0.00600  1.0000
  C   C25       1.0  0.44776  0.33855  0.90580  1.0000
  C   C26       1.0  0.55223  0.66145  0.09419  1.0000
  C   C27       1.0  0.51903  0.32137  0.79389  1.0000
  C   C28       1.0  0.48097  0.67864  0.20610  1.0000
  C   C29       1.0  0.66734  0.30567  0.76945  1.0000
  C   C30       1.0  0.33266  0.69433  0.23055  1.0000
  C   C31       1.0  0.74439  0.30905  0.85556  1.0000
  C   C32       1.0  0.25560  0.69096  0.14444  1.0000
  Br  Br1       1.0  0.07289  0.02031  0.33970  1.0000
  Br  Br2       1.0  0.92711  0.97969  0.66030  1.0000
  Br  Br3       1.0  0.14354  0.38042  0.17485  1.0000
  Br  Br4       1.0  0.85646  0.61958  0.82515  1.0000
  Br  Br5       1.0  0.19984  0.61754  0.56595  1.0000
  Br  Br6       1.0  0.80017  0.38246  0.43405  1.0000
  N   N1        1.0  0.14918  0.19533  0.51928  1.0000
  N   N2        1.0  0.85083  0.80467  0.48072  1.0000
  N   N3        1.0  0.81369  0.33002  0.13116  1.0000
  N   N4        1.0  0.18631  0.66998  0.86883  1.0000
  O   O1        1.0  0.58805  0.09584  0.31464  1.0000
  O   O2        1.0  0.41195  0.90416  0.68536  1.0000
  O   O3        1.0  0.49566  0.88000  0.44059  1.0000
  O   O4        1.0  0.50434  0.12000  0.55941  1.0000
