data_image0
_chemical_formula_structural       Zn2H22C20N8Cl2O8
_chemical_formula_sum              "Zn2 H22 C20 N8 Cl2 O8"
_cell_length_a       8.10365
_cell_length_b       8.10368
_cell_length_c       10.9546
_cell_angle_alpha    73.067
_cell_angle_beta     73.0672
_cell_angle_gamma    75.9839

_space_group_name_H-M_alt    "P 1"
_space_group_IT_number       1

loop_
  _space_group_symop_operation_xyz
  'x, y, z'

loop_
  _atom_site_type_symbol
  _atom_site_label
  _atom_site_symmetry_multiplicity
  _atom_site_fract_x
  _atom_site_fract_y
  _atom_site_fract_z
  _atom_site_occupancy
  Zn  Zn1       1.0  0.82238  0.48231  0.99893  1.0000
  Zn  Zn2       1.0  0.48230  0.82238  0.49893  1.0000
  H   H1        1.0  0.03632  0.66406  0.10314  1.0000
  H   H2        1.0  0.66406  0.03633  0.60314  1.0000
  H   H3        1.0  0.32006  0.31358  0.73581  1.0000
  H   H4        1.0  0.31358  0.32006  0.23581  1.0000
  H   H5        1.0  0.36118  0.53130  0.68645  1.0000
  H   H6        1.0  0.53130  0.36118  0.18644  1.0000
  H   H7        1.0  0.47462  0.08872  0.90123  1.0000
  H   H8        1.0  0.08872  0.47462  0.40123  1.0000
  H   H9        1.0  0.70749  0.11056  0.03871  1.0000
  H   H10       1.0  0.11056  0.70748  0.53872  1.0000
  H   H11       1.0  0.53488  0.61743  0.82295  1.0000
  H   H12       1.0  0.61743  0.53488  0.32295  1.0000
  H   H13       1.0  0.10558  0.08360  0.35768  1.0000
  H   H14       1.0  0.08360  0.10558  0.85768  1.0000
  H   H15       1.0  0.88840  0.04346  0.39073  1.0000
  H   H16       1.0  0.04346  0.88840  0.89074  1.0000
  H   H17       1.0  0.34155  0.96496  0.17699  1.0000
  H   H18       1.0  0.96497  0.34155  0.67699  1.0000
  H   H19       1.0  0.34911  0.71648  0.04274  1.0000
  H   H20       1.0  0.71649  0.34911  0.54274  1.0000
  H   H21       1.0  0.82780  0.85871  0.25383  1.0000
  H   H22       1.0  0.85871  0.82780  0.75383  1.0000
  C   C1        1.0  0.15924  0.48344  0.86428  1.0000
  C   C2        1.0  0.48344  0.15924  0.36427  1.0000
  C   C3        1.0  0.33131  0.42222  0.77177  1.0000
  C   C4        1.0  0.42222  0.33131  0.27177  1.0000
  C   C5        1.0  0.52136  0.19914  0.90896  1.0000
  C   C6        1.0  0.19914  0.52136  0.40896  1.0000
  C   C7        1.0  0.63630  0.21218  0.97470  1.0000
  C   C8        1.0  0.21217  0.63629  0.47470  1.0000
  C   C9        1.0  0.55181  0.47711  0.86476  1.0000
  C   C10       1.0  0.47711  0.55181  0.36476  1.0000
  C   C11       1.0  0.94427  0.26671  0.23099  1.0000
  C   C12       1.0  0.26671  0.94427  0.73100  1.0000
  C   C13       1.0  0.00213  0.08192  0.31237  1.0000
  C   C14       1.0  0.08192  0.00213  0.81238  1.0000
  C   C15       1.0  0.23820  0.90776  0.16931  1.0000
  C   C16       1.0  0.90776  0.23820  0.66931  1.0000
  C   C17       1.0  0.24211  0.78417  0.10551  1.0000
  C   C18       1.0  0.78417  0.24211  0.60551  1.0000
  C   C19       1.0  0.96721  0.85481  0.21399  1.0000
  C   C20       1.0  0.85482  0.96721  0.71399  1.0000
  N   N1        1.0  0.65360  0.38626  0.94643  1.0000
  N   N2        1.0  0.38626  0.65360  0.44643  1.0000
  N   N3        1.0  0.47173  0.36743  0.83890  1.0000
  N   N4        1.0  0.36743  0.47173  0.33890  1.0000
  N   N5        1.0  0.06587  0.94932  0.23630  1.0000
  N   N6        1.0  0.94933  0.06588  0.73630  1.0000
  N   N7        1.0  0.07297  0.75409  0.13514  1.0000
  N   N8        1.0  0.75409  0.07297  0.63513  1.0000
  Cl  Cl1       1.0  0.71039  0.74467  0.04150  1.0000
  Cl  Cl2       1.0  0.74467  0.71039  0.54150  1.0000
  O   O1        1.0  0.16336  0.54031  0.95767  1.0000
  O   O2        1.0  0.54030  0.16336  0.45767  1.0000
  O   O3        1.0  0.01962  0.46944  0.83701  1.0000
  O   O4        1.0  0.46944  0.01962  0.33701  1.0000
  O   O5        1.0  0.89135  0.26783  0.13050  1.0000
  O   O6        1.0  0.26783  0.89135  0.63051  1.0000
  O   O7        1.0  0.94752  0.39488  0.27050  1.0000
  O   O8        1.0  0.39488  0.94752  0.77050  1.0000
