data_image0
_chemical_formula_structural       Fe2H20C20N8O8
_chemical_formula_sum              "Fe2 H20 C20 N8 O8"
_cell_length_a       5.0523
_cell_length_b       8.25276
_cell_length_c       12.1832
_cell_angle_alpha    92.618
_cell_angle_beta     90.0086
_cell_angle_gamma    89.9939

_space_group_name_H-M_alt    "P 1"
_space_group_IT_number       1

loop_
  _space_group_symop_operation_xyz
  'x, y, z'

loop_
  _atom_site_type_symbol
  _atom_site_label
  _atom_site_symmetry_multiplicity
  _atom_site_fract_x
  _atom_site_fract_y
  _atom_site_fract_z
  _atom_site_occupancy
  Fe  Fe1       1.0  0.50000  0.50000  0.50000  1.0000
  Fe  Fe2       1.0  0.00000  1.00000  1.00000  1.0000
  H   H1        1.0  0.34226  0.82292  0.69341  1.0000
  H   H2        1.0  0.84254  0.67721  0.80659  1.0000
  H   H3        1.0  0.65775  0.17708  0.30658  1.0000
  H   H4        1.0  0.15745  0.32279  0.19341  1.0000
  H   H5        1.0  0.14109  0.98390  0.74815  1.0000
  H   H6        1.0  0.64115  0.51633  0.75187  1.0000
  H   H7        1.0  0.85892  0.01610  0.25184  1.0000
  H   H8        1.0  0.35884  0.48367  0.24813  1.0000
  H   H9        1.0  0.80179  0.90657  0.60676  1.0000
  H   H10       1.0  0.30205  0.59333  0.89322  1.0000
  H   H11       1.0  0.19823  0.09344  0.39324  1.0000
  H   H12       1.0  0.69794  0.40666  0.10678  1.0000
  H   H13       1.0  0.93313  0.19674  0.50479  1.0000
  H   H14       1.0  0.43334  0.30313  0.99515  1.0000
  H   H15       1.0  0.06687  0.80328  0.49521  1.0000
  H   H16       1.0  0.56665  0.69686  0.00485  1.0000
  H   H17       1.0  0.23008  0.26589  0.68552  1.0000
  H   H18       1.0  0.73002  0.23425  0.81448  1.0000
  H   H19       1.0  0.76991  0.73411  0.31447  1.0000
  H   H20       1.0  0.26998  0.76575  0.18551  1.0000
  C   C1        1.0  0.47637  0.92374  0.84832  1.0000
  C   C2        1.0  0.97645  0.57631  0.65169  1.0000
  C   C3        1.0  0.52364  0.07625  0.15168  1.0000
  C   C4        1.0  0.02354  0.42369  0.34831  1.0000
  C   C5        1.0  0.34605  0.94365  0.73593  1.0000
  C   C6        1.0  0.84617  0.55646  0.76410  1.0000
  C   C7        1.0  0.65396  0.05635  0.26407  1.0000
  C   C8        1.0  0.15382  0.44354  0.23591  1.0000
  C   C9        1.0  0.71131  0.02555  0.60826  1.0000
  C   C10       1.0  0.21152  0.47446  0.89174  1.0000
  C   C11       1.0  0.28870  0.97447  0.39174  1.0000
  C   C12       1.0  0.78847  0.52554  0.10827  1.0000
  C   C13       1.0  0.76854  0.16618  0.55685  1.0000
  C   C14       1.0  0.26874  0.33374  0.94315  1.0000
  C   C15       1.0  0.23145  0.83382  0.44315  1.0000
  C   C16       1.0  0.73126  0.66625  0.05686  1.0000
  C   C17       1.0  0.40587  0.21070  0.64966  1.0000
  C   C18       1.0  0.90589  0.28939  0.85035  1.0000
  C   C19       1.0  0.59413  0.78931  0.35034  1.0000
  C   C20       1.0  0.09411  0.71061  0.14965  1.0000
  N   N1        1.0  0.48094  0.05567  0.66653  1.0000
  N   N2        1.0  0.98105  0.44441  0.83349  1.0000
  N   N3        1.0  0.51907  0.94434  0.33347  1.0000
  N   N4        1.0  0.01894  0.55559  0.16651  1.0000
  N   N5        1.0  0.57572  0.28083  0.58272  1.0000
  N   N6        1.0  0.07579  0.21919  0.91728  1.0000
  N   N7        1.0  0.42428  0.71918  0.41727  1.0000
  N   N8        1.0  0.92421  0.78080  0.08272  1.0000
  O   O1        1.0  0.31973  0.88106  0.92421  1.0000
  O   O2        1.0  0.81975  0.61896  0.57577  1.0000
  O   O3        1.0  0.68027  0.11893  0.07578  1.0000
  O   O4        1.0  0.18025  0.38104  0.42424  1.0000
  O   O5        1.0  0.72404  0.94015  0.85691  1.0000
  O   O6        1.0  0.22410  0.55989  0.64312  1.0000
  O   O7        1.0  0.27597  0.05985  0.14309  1.0000
  O   O8        1.0  0.77590  0.44011  0.35688  1.0000
