data_image0
_chemical_formula_structural       Cd4H24C20N8Cl8O8
_chemical_formula_sum              "Cd4 H24 C20 N8 Cl8 O8"
_cell_length_a       7.32926
_cell_length_b       9.56558
_cell_length_c       12.575
_cell_angle_alpha    90
_cell_angle_beta     90.0001
_cell_angle_gamma    98.3115

_space_group_name_H-M_alt    "P 1"
_space_group_IT_number       1

loop_
  _space_group_symop_operation_xyz
  'x, y, z'

loop_
  _atom_site_type_symbol
  _atom_site_label
  _atom_site_symmetry_multiplicity
  _atom_site_fract_x
  _atom_site_fract_y
  _atom_site_fract_z
  _atom_site_occupancy
  Cd  Cd1       1.0  0.10593  0.32622  0.23225  1.0000
  Cd  Cd2       1.0  0.39407  0.67378  0.73225  1.0000
  Cd  Cd3       1.0  0.89407  0.67378  0.76775  1.0000
  Cd  Cd4       1.0  0.60593  0.32622  0.26775  1.0000
  H   H1        1.0  0.51531  0.25534  0.53540  1.0000
  H   H2        1.0  0.98470  0.74466  0.03540  1.0000
  H   H3        1.0  0.48470  0.74466  0.46460  1.0000
  H   H4        1.0  0.01530  0.25534  0.96460  1.0000
  H   H5        1.0  0.90264  0.35896  0.63666  1.0000
  H   H6        1.0  0.59736  0.64105  0.13666  1.0000
  H   H7        1.0  0.09736  0.64105  0.36334  1.0000
  H   H8        1.0  0.40264  0.35895  0.86334  1.0000
  H   H9        1.0  0.80952  0.17847  0.61691  1.0000
  H   H10       1.0  0.69048  0.82153  0.11691  1.0000
  H   H11       1.0  0.19048  0.82153  0.38309  1.0000
  H   H12       1.0  0.30952  0.17847  0.88309  1.0000
  H   H13       1.0  0.26351  0.41112  0.53247  1.0000
  H   H14       1.0  0.23649  0.58888  0.03247  1.0000
  H   H15       1.0  0.73649  0.58888  0.46753  1.0000
  H   H16       1.0  0.76351  0.41112  0.96753  1.0000
  H   H17       1.0  0.39865  0.00885  0.61570  1.0000
  H   H18       1.0  0.10135  0.99115  0.11570  1.0000
  H   H19       1.0  0.60136  0.99115  0.38430  1.0000
  H   H20       1.0  0.89865  0.00885  0.88430  1.0000
  H   H21       1.0  0.02106  0.00940  0.64766  1.0000
  H   H22       1.0  0.47894  0.99060  0.14766  1.0000
  H   H23       1.0  0.97894  0.99060  0.35234  1.0000
  H   H24       1.0  0.52106  0.00940  0.85234  1.0000
  C   C1        1.0  0.86217  0.30356  0.47119  1.0000
  C   C2        1.0  0.63782  0.69643  0.97119  1.0000
  C   C3        1.0  0.13783  0.69643  0.52881  1.0000
  C   C4        1.0  0.36218  0.30357  0.02881  1.0000
  C   C5        1.0  0.90880  0.26583  0.58605  1.0000
  C   C6        1.0  0.59120  0.73417  0.08605  1.0000
  C   C7        1.0  0.09121  0.73416  0.41395  1.0000
  C   C8        1.0  0.40880  0.26583  0.91395  1.0000
  C   C9        1.0  0.24863  0.30324  0.56040  1.0000
  C   C10       1.0  0.25137  0.69676  0.06040  1.0000
  C   C11       1.0  0.75137  0.69676  0.43960  1.0000
  C   C12       1.0  0.74863  0.30324  0.93961  1.0000
  C   C13       1.0  0.31309  0.09061  0.60266  1.0000
  C   C14       1.0  0.18691  0.90939  0.10265  1.0000
  C   C15       1.0  0.68691  0.90939  0.39735  1.0000
  C   C16       1.0  0.81309  0.09061  0.89735  1.0000
  C   C17       1.0  0.12824  0.09031  0.61865  1.0000
  C   C18       1.0  0.37176  0.90969  0.11865  1.0000
  C   C19       1.0  0.87176  0.90969  0.38135  1.0000
  C   C20       1.0  0.62824  0.09031  0.88135  1.0000
  N   N1        1.0  0.09132  0.22386  0.59190  1.0000
  N   N2        1.0  0.40868  0.77613  0.09190  1.0000
  N   N3        1.0  0.90868  0.77613  0.40810  1.0000
  N   N4        1.0  0.59132  0.22387  0.90810  1.0000
  N   N5        1.0  0.38337  0.22369  0.56687  1.0000
  N   N6        1.0  0.11663  0.77631  0.06687  1.0000
  N   N7        1.0  0.61664  0.77631  0.43313  1.0000
  N   N8        1.0  0.88337  0.22369  0.93313  1.0000
  Cl  Cl1       1.0  0.38037  0.51209  0.30007  1.0000
  Cl  Cl2       1.0  0.11962  0.48791  0.80007  1.0000
  Cl  Cl3       1.0  0.61963  0.48791  0.69993  1.0000
  Cl  Cl4       1.0  0.88037  0.51209  0.19993  1.0000
  Cl  Cl5       1.0  0.30810  0.13942  0.30611  1.0000
  Cl  Cl6       1.0  0.19190  0.86058  0.80611  1.0000
  Cl  Cl7       1.0  0.69190  0.86058  0.69389  1.0000
  Cl  Cl8       1.0  0.80810  0.13942  0.19389  1.0000
  O   O1        1.0  0.99387  0.33981  0.40940  1.0000
  O   O2        1.0  0.50613  0.66019  0.90940  1.0000
  O   O3        1.0  0.00613  0.66018  0.59060  1.0000
  O   O4        1.0  0.49387  0.33981  0.09060  1.0000
  O   O5        1.0  0.69028  0.29873  0.44939  1.0000
  O   O6        1.0  0.80972  0.70127  0.94939  1.0000
  O   O7        1.0  0.30972  0.70126  0.55061  1.0000
  O   O8        1.0  0.19027  0.29873  0.05061  1.0000
