data_image0
_chemical_formula_structural       Sm4H52C52O36
_chemical_formula_sum              "Sm4 H52 C52 O36"
_cell_length_a       11.9677
_cell_length_b       12.4453
_cell_length_c       12.552
_cell_angle_alpha    90
_cell_angle_beta     98.8351
_cell_angle_gamma    90

_space_group_name_H-M_alt    "P 1"
_space_group_IT_number       1

loop_
  _space_group_symop_operation_xyz
  'x, y, z'

loop_
  _atom_site_type_symbol
  _atom_site_label
  _atom_site_symmetry_multiplicity
  _atom_site_fract_x
  _atom_site_fract_y
  _atom_site_fract_z
  _atom_site_occupancy
  Sm  Sm1       1.0  0.37408  0.44575  0.13229  1.0000
  Sm  Sm2       1.0  0.62592  0.94575  0.86771  1.0000
  Sm  Sm3       1.0  0.63962  0.22850  0.18431  1.0000
  Sm  Sm4       1.0  0.36038  0.72850  0.81569  1.0000
  H   H1        1.0  0.31846  0.40529  0.47269  1.0000
  H   H2        1.0  0.68154  0.90529  0.52731  1.0000
  H   H3        1.0  0.48130  0.33592  0.79745  1.0000
  H   H4        1.0  0.51870  0.83592  0.20255  1.0000
  H   H5        1.0  0.65988  0.28186  0.53078  1.0000
  H   H6        1.0  0.34012  0.78186  0.46922  1.0000
  H   H7        1.0  0.30213  0.29755  0.79754  1.0000
  H   H8        1.0  0.69787  0.79755  0.20246  1.0000
  H   H9        1.0  0.10246  0.33999  0.73815  1.0000
  H   H10       1.0  0.89754  0.83999  0.26185  1.0000
  H   H11       1.0  0.12596  0.47883  0.77271  1.0000
  H   H12       1.0  0.87404  0.97883  0.22730  1.0000
  H   H13       1.0  0.14165  0.37897  0.87579  1.0000
  H   H14       1.0  0.85836  0.87897  0.12421  1.0000
  H   H15       1.0  0.65257  0.37774  0.86124  1.0000
  H   H16       1.0  0.34744  0.87774  0.13876  1.0000
  H   H17       1.0  0.85518  0.37031  0.85099  1.0000
  H   H18       1.0  0.14481  0.87032  0.14901  1.0000
  H   H19       1.0  0.85888  0.22898  0.87227  1.0000
  H   H20       1.0  0.14112  0.72898  0.12773  1.0000
  H   H21       1.0  0.83053  0.31752  0.97705  1.0000
  H   H22       1.0  0.16947  0.81752  0.02295  1.0000
  H   H23       1.0  0.00656  0.53381  0.91663  1.0000
  H   H24       1.0  0.99344  0.03381  0.08337  1.0000
  H   H25       1.0  0.70274  0.60654  0.04732  1.0000
  H   H26       1.0  0.29726  0.10654  0.95267  1.0000
  H   H27       1.0  0.01863  0.56471  0.26125  1.0000
  H   H28       1.0  0.98137  0.06471  0.73875  1.0000
  H   H29       1.0  0.63417  0.62390  0.19542  1.0000
  H   H30       1.0  0.36583  0.12390  0.80458  1.0000
  H   H31       1.0  0.67963  0.66309  0.39435  1.0000
  H   H32       1.0  0.32037  0.16309  0.60565  1.0000
  H   H33       1.0  0.71545  0.52482  0.41819  1.0000
  H   H34       1.0  0.28455  0.02482  0.58181  1.0000
  H   H35       1.0  0.57368  0.56300  0.36412  1.0000
  H   H36       1.0  0.42632  0.06301  0.63588  1.0000
  H   H37       1.0  0.62836  0.54877  0.88060  1.0000
  H   H38       1.0  0.37164  0.04877  0.11940  1.0000
  H   H39       1.0  0.67227  0.50366  0.69358  1.0000
  H   H40       1.0  0.32772  0.00366  0.30641  1.0000
  H   H41       1.0  0.70095  0.64242  0.67441  1.0000
  H   H42       1.0  0.29905  0.14242  0.32559  1.0000
  H   H43       1.0  0.56197  0.59983  0.69052  1.0000
  H   H44       1.0  0.43803  0.09983  0.30948  1.0000
  H   H45       1.0  0.82406  0.11673  0.07639  1.0000
  H   H46       1.0  0.17594  0.61673  0.92361  1.0000
  H   H47       1.0  0.89604  0.20204  0.15542  1.0000
  H   H48       1.0  0.10396  0.70204  0.84458  1.0000
  H   H49       1.0  0.73733  0.06228  0.35216  1.0000
  H   H50       1.0  0.26267  0.56228  0.64784  1.0000
  H   H51       1.0  0.69683  0.16523  0.40837  1.0000
  H   H52       1.0  0.30317  0.66523  0.59163  1.0000
  C   C1        1.0  0.48829  0.34087  0.49061  1.0000
  C   C2        1.0  0.51171  0.84087  0.50939  1.0000
  C   C3        1.0  0.39138  0.37770  0.52867  1.0000
  C   C4        1.0  0.60862  0.87770  0.47133  1.0000
  C   C5        1.0  0.38930  0.37463  0.63930  1.0000
  C   C6        1.0  0.61070  0.87463  0.36070  1.0000
  C   C7        1.0  0.48332  0.33903  0.71142  1.0000
  C   C8        1.0  0.51668  0.83903  0.28859  1.0000
  C   C9        1.0  0.58129  0.30764  0.67113  1.0000
  C   C10       1.0  0.41871  0.80764  0.32887  1.0000
  C   C11       1.0  0.58293  0.30585  0.56053  1.0000
  C   C12       1.0  0.41707  0.80585  0.43947  1.0000
  C   C13       1.0  0.49203  0.33914  0.37293  1.0000
  C   C14       1.0  0.50797  0.83914  0.62707  1.0000
  C   C15       1.0  0.27758  0.38194  0.78189  1.0000
  C   C16       1.0  0.72242  0.88194  0.21811  1.0000
  C   C17       1.0  0.35646  0.45140  0.86241  1.0000
  C   C18       1.0  0.64354  0.95140  0.13758  1.0000
  C   C19       1.0  0.15366  0.39620  0.79262  1.0000
  C   C20       1.0  0.84634  0.89620  0.20738  1.0000
  C   C21       1.0  0.69121  0.29970  0.84663  1.0000
  C   C22       1.0  0.30879  0.79970  0.15337  1.0000
  C   C23       1.0  0.62906  0.21517  0.90445  1.0000
  C   C24       1.0  0.37094  0.71517  0.09555  1.0000
  C   C25       1.0  0.81712  0.30375  0.88981  1.0000
  C   C26       1.0  0.18288  0.80376  0.11019  1.0000
  C   C27       1.0  0.02587  0.54988  0.09060  1.0000
  C   C28       1.0  0.97413  0.04988  0.90940  1.0000
  C   C29       1.0  0.96559  0.55163  0.98617  1.0000
  C   C30       1.0  0.03441  0.05163  0.01383  1.0000
  C   C31       1.0  0.84957  0.57220  0.97064  1.0000
  C   C32       1.0  0.15043  0.07220  0.02936  1.0000
  C   C33       1.0  0.79323  0.59073  0.05893  1.0000
  C   C34       1.0  0.20677  0.09073  0.94107  1.0000
  C   C35       1.0  0.85575  0.58859  0.16329  1.0000
  C   C36       1.0  0.14425  0.08859  0.83671  1.0000
  C   C37       1.0  0.97174  0.56862  0.17992  1.0000
  C   C38       1.0  0.02825  0.06862  0.82007  1.0000
  C   C39       1.0  0.14894  0.52515  0.10658  1.0000
  C   C40       1.0  0.85106  0.02515  0.89342  1.0000
  C   C41       1.0  0.69194  0.57235  0.25027  1.0000
  C   C42       1.0  0.30806  0.07235  0.74973  1.0000
  C   C43       1.0  0.67575  0.45650  0.20998  1.0000
  C   C44       1.0  0.32425  0.95650  0.79002  1.0000
  C   C45       1.0  0.66345  0.58093  0.36420  1.0000
  C   C46       1.0  0.33655  0.08093  0.63580  1.0000
  C   C47       1.0  0.68292  0.59982  0.83814  1.0000
  C   C48       1.0  0.31708  0.09982  0.16187  1.0000
  C   C49       1.0  0.66325  0.71667  0.86689  1.0000
  C   C50       1.0  0.33675  0.21667  0.13311  1.0000
  C   C51       1.0  0.65245  0.58568  0.71631  1.0000
  C   C52       1.0  0.34755  0.08568  0.28369  1.0000
  O   O1        1.0  0.56835  0.28084  0.34111  1.0000
  O   O2        1.0  0.43165  0.78084  0.65889  1.0000
  O   O3        1.0  0.42000  0.39537  0.31229  1.0000
  O   O4        1.0  0.58000  0.89537  0.68771  1.0000
  O   O5        1.0  0.28988  0.40780  0.67227  1.0000
  O   O6        1.0  0.71012  0.90780  0.32773  1.0000
  O   O7        1.0  0.38618  0.54328  0.83382  1.0000
  O   O8        1.0  0.61382  0.04328  0.16618  1.0000
  O   O9        1.0  0.38863  0.40954  0.95378  1.0000
  O   O10       1.0  0.61137  0.90954  0.04622  1.0000
  O   O11       1.0  0.68074  0.28077  0.73346  1.0000
  O   O12       1.0  0.31926  0.78078  0.26654  1.0000
  O   O13       1.0  0.62170  0.23788  0.00122  1.0000
  O   O14       1.0  0.37830  0.73788  0.99878  1.0000
  O   O15       1.0  0.58905  0.13135  0.85544  1.0000
  O   O16       1.0  0.41095  0.63135  0.14456  1.0000
  O   O17       1.0  0.20095  0.49936  0.19872  1.0000
  O   O18       1.0  0.79905  0.99936  0.80128  1.0000
  O   O19       1.0  0.20248  0.52944  0.02420  1.0000
  O   O20       1.0  0.79752  0.02944  0.97580  1.0000
  O   O21       1.0  0.79875  0.56944  0.86519  1.0000
  O   O22       1.0  0.20125  0.06944  0.13481  1.0000
  O   O23       1.0  0.74380  0.78268  0.88283  1.0000
  O   O24       1.0  0.25621  0.28268  0.11716  1.0000
  O   O25       1.0  0.56020  0.74531  0.86835  1.0000
  O   O26       1.0  0.43981  0.24531  0.13166  1.0000
  O   O27       1.0  0.80732  0.60559  0.25457  1.0000
  O   O28       1.0  0.19268  0.10559  0.74543  1.0000
  O   O29       1.0  0.75415  0.38812  0.23172  1.0000
  O   O30       1.0  0.24585  0.88812  0.76828  1.0000
  O   O31       1.0  0.57875  0.43019  0.15751  1.0000
  O   O32       1.0  0.42125  0.93019  0.84249  1.0000
  O   O33       1.0  0.82351  0.16576  0.14035  1.0000
  O   O34       1.0  0.17649  0.66576  0.85965  1.0000
  O   O35       1.0  0.74217  0.14133  0.35447  1.0000
  O   O36       1.0  0.25783  0.64133  0.64553  1.0000
