data_image0
_chemical_formula_structural       Eu4H52C52O36
_chemical_formula_sum              "Eu4 H52 C52 O36"
_cell_length_a       11.9162
_cell_length_b       12.3625
_cell_length_c       12.6788
_cell_angle_alpha    90.0004
_cell_angle_beta     99.0548
_cell_angle_gamma    90.0007

_space_group_name_H-M_alt    "P 1"
_space_group_IT_number       1

loop_
  _space_group_symop_operation_xyz
  'x, y, z'

loop_
  _atom_site_type_symbol
  _atom_site_label
  _atom_site_symmetry_multiplicity
  _atom_site_fract_x
  _atom_site_fract_y
  _atom_site_fract_z
  _atom_site_occupancy
  Eu  Eu1       1.0  0.37475  0.44559  0.13216  1.0000
  Eu  Eu2       1.0  0.62525  0.94559  0.86784  1.0000
  Eu  Eu3       1.0  0.63838  0.22895  0.18330  1.0000
  Eu  Eu4       1.0  0.36162  0.72895  0.81670  1.0000
  H   H1        1.0  0.31818  0.40784  0.47322  1.0000
  H   H2        1.0  0.68182  0.90784  0.52678  1.0000
  H   H3        1.0  0.48168  0.33617  0.79490  1.0000
  H   H4        1.0  0.51832  0.83617  0.20510  1.0000
  H   H5        1.0  0.66073  0.28087  0.53146  1.0000
  H   H6        1.0  0.33927  0.78087  0.46854  1.0000
  H   H7        1.0  0.30357  0.29824  0.79537  1.0000
  H   H8        1.0  0.69643  0.79824  0.20463  1.0000
  H   H9        1.0  0.10301  0.34041  0.73718  1.0000
  H   H10       1.0  0.89699  0.84041  0.26282  1.0000
  H   H11       1.0  0.12615  0.48001  0.77232  1.0000
  H   H12       1.0  0.87385  0.98001  0.22768  1.0000
  H   H13       1.0  0.14283  0.37880  0.87375  1.0000
  H   H14       1.0  0.85717  0.87880  0.12625  1.0000
  H   H15       1.0  0.65225  0.37744  0.85833  1.0000
  H   H16       1.0  0.34775  0.87744  0.14167  1.0000
  H   H17       1.0  0.85565  0.36970  0.85000  1.0000
  H   H18       1.0  0.14436  0.86970  0.15000  1.0000
  H   H19       1.0  0.85944  0.22769  0.87215  1.0000
  H   H20       1.0  0.14055  0.72769  0.12785  1.0000
  H   H21       1.0  0.83045  0.31757  0.97495  1.0000
  H   H22       1.0  0.16955  0.81757  0.02505  1.0000
  H   H23       1.0  0.00719  0.53399  0.91836  1.0000
  H   H24       1.0  0.99281  0.03399  0.08164  1.0000
  H   H25       1.0  0.70182  0.60666  0.04700  1.0000
  H   H26       1.0  0.29818  0.10666  0.95300  1.0000
  H   H27       1.0  0.01954  0.56398  0.25971  1.0000
  H   H28       1.0  0.98046  0.06398  0.74029  1.0000
  H   H29       1.0  0.63343  0.62409  0.19500  1.0000
  H   H30       1.0  0.36657  0.12409  0.80500  1.0000
  H   H31       1.0  0.68163  0.66292  0.39235  1.0000
  H   H32       1.0  0.31838  0.16292  0.60765  1.0000
  H   H33       1.0  0.71624  0.52327  0.41504  1.0000
  H   H34       1.0  0.28376  0.02327  0.58496  1.0000
  H   H35       1.0  0.57398  0.56328  0.36178  1.0000
  H   H36       1.0  0.42602  0.06328  0.63822  1.0000
  H   H37       1.0  0.62730  0.54841  0.87964  1.0000
  H   H38       1.0  0.37270  0.04841  0.12036  1.0000
  H   H39       1.0  0.67392  0.50374  0.69534  1.0000
  H   H40       1.0  0.32608  0.00374  0.30466  1.0000
  H   H41       1.0  0.70242  0.64359  0.67719  1.0000
  H   H42       1.0  0.29758  0.14359  0.32281  1.0000
  H   H43       1.0  0.56252  0.60011  0.69141  1.0000
  H   H44       1.0  0.43748  0.10012  0.30859  1.0000
  H   H45       1.0  0.82213  0.11698  0.07642  1.0000
  H   H46       1.0  0.17787  0.61698  0.92358  1.0000
  H   H47       1.0  0.89341  0.20388  0.15409  1.0000
  H   H48       1.0  0.10659  0.70388  0.84591  1.0000
  H   H49       1.0  0.73620  0.06429  0.35031  1.0000
  H   H50       1.0  0.26380  0.56429  0.64969  1.0000
  H   H51       1.0  0.69327  0.16961  0.40202  1.0000
  H   H52       1.0  0.30673  0.66961  0.59798  1.0000
  C   C1        1.0  0.48878  0.34213  0.49056  1.0000
  C   C2        1.0  0.51122  0.84213  0.50944  1.0000
  C   C3        1.0  0.39158  0.37951  0.52861  1.0000
  C   C4        1.0  0.60842  0.87951  0.47139  1.0000
  C   C5        1.0  0.38976  0.37625  0.63839  1.0000
  C   C6        1.0  0.61024  0.87625  0.36161  1.0000
  C   C7        1.0  0.48366  0.33916  0.70973  1.0000
  C   C8        1.0  0.51634  0.83916  0.29027  1.0000
  C   C9        1.0  0.58156  0.30640  0.67024  1.0000
  C   C10       1.0  0.41844  0.80640  0.32976  1.0000
  C   C11       1.0  0.58352  0.30577  0.56051  1.0000
  C   C12       1.0  0.41648  0.80577  0.43949  1.0000
  C   C13       1.0  0.49236  0.34068  0.37319  1.0000
  C   C14       1.0  0.50764  0.84068  0.62681  1.0000
  C   C15       1.0  0.27900  0.38332  0.78095  1.0000
  C   C16       1.0  0.72100  0.88332  0.21905  1.0000
  C   C17       1.0  0.35734  0.45242  0.86295  1.0000
  C   C18       1.0  0.64266  0.95242  0.13705  1.0000
  C   C19       1.0  0.15442  0.39686  0.79145  1.0000
  C   C20       1.0  0.84557  0.89686  0.20855  1.0000
  C   C21       1.0  0.69070  0.29832  0.84563  1.0000
  C   C22       1.0  0.30930  0.79832  0.15437  1.0000
  C   C23       1.0  0.62880  0.21505  0.90582  1.0000
  C   C24       1.0  0.37120  0.71505  0.09418  1.0000
  C   C25       1.0  0.81728  0.30302  0.88864  1.0000
  C   C26       1.0  0.18272  0.80302  0.11136  1.0000
  C   C27       1.0  0.02667  0.54942  0.09066  1.0000
  C   C28       1.0  0.97333  0.04942  0.90934  1.0000
  C   C29       1.0  0.96596  0.55132  0.98719  1.0000
  C   C30       1.0  0.03404  0.05132  0.01281  1.0000
  C   C31       1.0  0.84940  0.57186  0.97144  1.0000
  C   C32       1.0  0.15060  0.07186  0.02856  1.0000
  C   C33       1.0  0.79273  0.59054  0.05864  1.0000
  C   C34       1.0  0.20727  0.09054  0.94136  1.0000
  C   C35       1.0  0.85587  0.58846  0.16216  1.0000
  C   C36       1.0  0.14413  0.08846  0.83784  1.0000
  C   C37       1.0  0.97237  0.56803  0.17898  1.0000
  C   C38       1.0  0.02763  0.06803  0.82102  1.0000
  C   C39       1.0  0.15040  0.52486  0.10646  1.0000
  C   C40       1.0  0.84960  0.02486  0.89354  1.0000
  C   C41       1.0  0.69216  0.57233  0.24897  1.0000
  C   C42       1.0  0.30784  0.07233  0.75103  1.0000
  C   C43       1.0  0.67599  0.45578  0.20930  1.0000
  C   C44       1.0  0.32401  0.95578  0.79070  1.0000
  C   C45       1.0  0.66436  0.58052  0.36197  1.0000
  C   C46       1.0  0.33564  0.08052  0.63803  1.0000
  C   C47       1.0  0.68291  0.59979  0.83868  1.0000
  C   C48       1.0  0.31709  0.09979  0.16132  1.0000
  C   C49       1.0  0.66357  0.71728  0.86713  1.0000
  C   C50       1.0  0.33643  0.21728  0.13287  1.0000
  C   C51       1.0  0.65341  0.58614  0.71783  1.0000
  C   C52       1.0  0.34659  0.08614  0.28217  1.0000
  O   O1        1.0  0.56868  0.28161  0.34141  1.0000
  O   O2        1.0  0.43132  0.78161  0.65858  1.0000
  O   O3        1.0  0.42035  0.39757  0.31264  1.0000
  O   O4        1.0  0.57965  0.89756  0.68737  1.0000
  O   O5        1.0  0.29096  0.41062  0.67241  1.0000
  O   O6        1.0  0.70904  0.91062  0.32759  1.0000
  O   O7        1.0  0.38967  0.54438  0.83523  1.0000
  O   O8        1.0  0.61033  0.04438  0.16478  1.0000
  O   O9        1.0  0.38561  0.41068  0.95427  1.0000
  O   O10       1.0  0.61439  0.91068  0.04573  1.0000
  O   O11       1.0  0.68008  0.27697  0.73357  1.0000
  O   O12       1.0  0.31992  0.77697  0.26643  1.0000
  O   O13       1.0  0.62434  0.23938  0.00191  1.0000
  O   O14       1.0  0.37566  0.73938  0.99809  1.0000
  O   O15       1.0  0.58654  0.13045  0.85878  1.0000
  O   O16       1.0  0.41345  0.63045  0.14122  1.0000
  O   O17       1.0  0.20341  0.49947  0.19779  1.0000
  O   O18       1.0  0.79659  0.99947  0.80221  1.0000
  O   O19       1.0  0.20379  0.52881  0.02491  1.0000
  O   O20       1.0  0.79621  0.02881  0.97509  1.0000
  O   O21       1.0  0.79902  0.56896  0.86665  1.0000
  O   O22       1.0  0.20098  0.06896  0.13335  1.0000
  O   O23       1.0  0.74446  0.78365  0.88317  1.0000
  O   O24       1.0  0.25554  0.28364  0.11683  1.0000
  O   O25       1.0  0.56009  0.74673  0.86825  1.0000
  O   O26       1.0  0.43991  0.24673  0.13175  1.0000
  O   O27       1.0  0.80787  0.60596  0.25269  1.0000
  O   O28       1.0  0.19214  0.10596  0.74731  1.0000
  O   O29       1.0  0.75469  0.38689  0.23114  1.0000
  O   O30       1.0  0.24531  0.88689  0.76886  1.0000
  O   O31       1.0  0.57854  0.42895  0.15702  1.0000
  O   O32       1.0  0.42146  0.92895  0.84298  1.0000
  O   O33       1.0  0.82177  0.16505  0.14055  1.0000
  O   O34       1.0  0.17823  0.66505  0.85945  1.0000
  O   O35       1.0  0.74064  0.14393  0.35080  1.0000
  O   O36       1.0  0.25936  0.64392  0.64920  1.0000
