data_image0
_chemical_formula_structural       Tb4H52C52O36
_chemical_formula_sum              "Tb4 H52 C52 O36"
_cell_length_a       11.902
_cell_length_b       12.3438
_cell_length_c       12.473
_cell_angle_alpha    90
_cell_angle_beta     98.9741
_cell_angle_gamma    90

_space_group_name_H-M_alt    "P 1"
_space_group_IT_number       1

loop_
  _space_group_symop_operation_xyz
  'x, y, z'

loop_
  _atom_site_type_symbol
  _atom_site_label
  _atom_site_symmetry_multiplicity
  _atom_site_fract_x
  _atom_site_fract_y
  _atom_site_fract_z
  _atom_site_occupancy
  Tb  Tb1       1.0  0.37477  0.44539  0.13022  1.0000
  Tb  Tb2       1.0  0.62523  0.94539  0.86978  1.0000
  Tb  Tb3       1.0  0.63818  0.22972  0.18224  1.0000
  Tb  Tb4       1.0  0.36182  0.72973  0.81776  1.0000
  H   H1        1.0  0.31771  0.40823  0.46931  1.0000
  H   H2        1.0  0.68229  0.90823  0.53069  1.0000
  H   H3        1.0  0.48100  0.33580  0.79616  1.0000
  H   H4        1.0  0.51900  0.83580  0.20384  1.0000
  H   H5        1.0  0.65964  0.28006  0.52807  1.0000
  H   H6        1.0  0.34036  0.78007  0.47193  1.0000
  H   H7        1.0  0.30271  0.29935  0.79714  1.0000
  H   H8        1.0  0.69729  0.79935  0.20286  1.0000
  H   H9        1.0  0.10232  0.34011  0.73746  1.0000
  H   H10       1.0  0.89768  0.84011  0.26254  1.0000
  H   H11       1.0  0.12401  0.48046  0.77151  1.0000
  H   H12       1.0  0.87599  0.98046  0.22849  1.0000
  H   H13       1.0  0.14163  0.38023  0.87589  1.0000
  H   H14       1.0  0.85837  0.88023  0.12411  1.0000
  H   H15       1.0  0.65213  0.37660  0.85985  1.0000
  H   H16       1.0  0.34787  0.87660  0.14015  1.0000
  H   H17       1.0  0.85539  0.36959  0.84956  1.0000
  H   H18       1.0  0.14461  0.86959  0.15044  1.0000
  H   H19       1.0  0.86034  0.22751  0.87339  1.0000
  H   H20       1.0  0.13966  0.72751  0.12661  1.0000
  H   H21       1.0  0.83058  0.31828  0.97719  1.0000
  H   H22       1.0  0.16942  0.81828  0.02280  1.0000
  H   H23       1.0  0.00877  0.53404  0.91649  1.0000
  H   H24       1.0  0.99123  0.03404  0.08351  1.0000
  H   H25       1.0  0.70362  0.60713  0.04792  1.0000
  H   H26       1.0  0.29638  0.10713  0.95208  1.0000
  H   H27       1.0  0.02120  0.56218  0.26351  1.0000
  H   H28       1.0  0.97880  0.06218  0.73649  1.0000
  H   H29       1.0  0.63498  0.62504  0.19611  1.0000
  H   H30       1.0  0.36502  0.12504  0.80389  1.0000
  H   H31       1.0  0.68081  0.66136  0.39692  1.0000
  H   H32       1.0  0.31919  0.16136  0.60308  1.0000
  H   H33       1.0  0.71384  0.52111  0.41905  1.0000
  H   H34       1.0  0.28616  0.02111  0.58095  1.0000
  H   H35       1.0  0.57212  0.56276  0.36416  1.0000
  H   H36       1.0  0.42788  0.06276  0.63584  1.0000
  H   H37       1.0  0.62909  0.54862  0.88043  1.0000
  H   H38       1.0  0.37091  0.04862  0.11957  1.0000
  H   H39       1.0  0.67306  0.50513  0.69195  1.0000
  H   H40       1.0  0.32694  0.00513  0.30805  1.0000
  H   H41       1.0  0.69950  0.64553  0.67306  1.0000
  H   H42       1.0  0.30050  0.14552  0.32694  1.0000
  H   H43       1.0  0.56055  0.60031  0.68976  1.0000
  H   H44       1.0  0.43945  0.10031  0.31024  1.0000
  H   H45       1.0  0.82144  0.11759  0.07649  1.0000
  H   H46       1.0  0.17856  0.61759  0.92351  1.0000
  H   H47       1.0  0.89225  0.20436  0.15685  1.0000
  H   H48       1.0  0.10775  0.70436  0.84315  1.0000
  H   H49       1.0  0.73947  0.06794  0.34985  1.0000
  H   H50       1.0  0.26053  0.56794  0.65015  1.0000
  H   H51       1.0  0.69641  0.17201  0.40366  1.0000
  H   H52       1.0  0.30359  0.67201  0.59634  1.0000
  C   C1        1.0  0.48781  0.34160  0.48751  1.0000
  C   C2        1.0  0.51219  0.84160  0.51248  1.0000
  C   C3        1.0  0.39070  0.37950  0.52575  1.0000
  C   C4        1.0  0.60930  0.87950  0.47425  1.0000
  C   C5        1.0  0.38866  0.37594  0.63708  1.0000
  C   C6        1.0  0.61134  0.87594  0.36292  1.0000
  C   C7        1.0  0.48284  0.33883  0.70958  1.0000
  C   C8        1.0  0.51716  0.83883  0.29042  1.0000
  C   C9        1.0  0.58097  0.30621  0.66916  1.0000
  C   C10       1.0  0.41904  0.80621  0.33084  1.0000
  C   C11       1.0  0.58253  0.30495  0.55789  1.0000
  C   C12       1.0  0.41747  0.80495  0.44211  1.0000
  C   C13       1.0  0.49167  0.34030  0.36915  1.0000
  C   C14       1.0  0.50833  0.84030  0.63085  1.0000
  C   C15       1.0  0.27773  0.38429  0.78112  1.0000
  C   C16       1.0  0.72227  0.88429  0.21888  1.0000
  C   C17       1.0  0.35747  0.45467  0.86176  1.0000
  C   C18       1.0  0.64253  0.95467  0.13824  1.0000
  C   C19       1.0  0.15307  0.39758  0.79205  1.0000
  C   C20       1.0  0.84693  0.89758  0.20795  1.0000
  C   C21       1.0  0.69101  0.29777  0.84591  1.0000
  C   C22       1.0  0.30899  0.79777  0.15409  1.0000
  C   C23       1.0  0.62866  0.21319  0.90480  1.0000
  C   C24       1.0  0.37134  0.71319  0.09520  1.0000
  C   C25       1.0  0.81761  0.30288  0.88963  1.0000
  C   C26       1.0  0.18239  0.80288  0.11037  1.0000
  C   C27       1.0  0.02831  0.54863  0.09157  1.0000
  C   C28       1.0  0.97169  0.04863  0.90843  1.0000
  C   C29       1.0  0.96754  0.55136  0.98646  1.0000
  C   C30       1.0  0.03246  0.05136  0.01354  1.0000
  C   C31       1.0  0.85100  0.57267  0.97068  1.0000
  C   C32       1.0  0.14900  0.07267  0.02932  1.0000
  C   C33       1.0  0.79455  0.59069  0.05960  1.0000
  C   C34       1.0  0.20546  0.09069  0.94040  1.0000
  C   C35       1.0  0.85745  0.58735  0.16475  1.0000
  C   C36       1.0  0.14255  0.08735  0.83525  1.0000
  C   C37       1.0  0.97404  0.56677  0.18158  1.0000
  C   C38       1.0  0.02596  0.06677  0.81842  1.0000
  C   C39       1.0  0.15204  0.52370  0.10716  1.0000
  C   C40       1.0  0.84796  0.02370  0.89284  1.0000
  C   C41       1.0  0.69203  0.57165  0.25079  1.0000
  C   C42       1.0  0.30797  0.07165  0.74921  1.0000
  C   C43       1.0  0.67443  0.45569  0.20832  1.0000
  C   C44       1.0  0.32557  0.95569  0.79168  1.0000
  C   C45       1.0  0.66290  0.57919  0.36527  1.0000
  C   C46       1.0  0.33710  0.07919  0.63473  1.0000
  C   C47       1.0  0.68312  0.60099  0.83788  1.0000
  C   C48       1.0  0.31688  0.10099  0.16212  1.0000
  C   C49       1.0  0.66264  0.71815  0.86816  1.0000
  C   C50       1.0  0.33736  0.21815  0.13184  1.0000
  C   C51       1.0  0.65188  0.58737  0.71521  1.0000
  C   C52       1.0  0.34812  0.08737  0.28479  1.0000
  O   O1        1.0  0.56816  0.28115  0.33722  1.0000
  O   O2        1.0  0.43185  0.78115  0.66278  1.0000
  O   O3        1.0  0.41972  0.39758  0.30817  1.0000
  O   O4        1.0  0.58028  0.89758  0.69183  1.0000
  O   O5        1.0  0.28925  0.41010  0.67062  1.0000
  O   O6        1.0  0.71075  0.91010  0.32938  1.0000
  O   O7        1.0  0.38779  0.54687  0.83218  1.0000
  O   O8        1.0  0.61221  0.04687  0.16782  1.0000
  O   O9        1.0  0.38998  0.41318  0.95403  1.0000
  O   O10       1.0  0.61002  0.91318  0.04597  1.0000
  O   O11       1.0  0.68047  0.27770  0.73216  1.0000
  O   O12       1.0  0.31953  0.77770  0.26784  1.0000
  O   O13       1.0  0.62138  0.23715  0.00192  1.0000
  O   O14       1.0  0.37862  0.73715  0.99808  1.0000
  O   O15       1.0  0.58845  0.12819  0.85629  1.0000
  O   O16       1.0  0.41155  0.62819  0.14371  1.0000
  O   O17       1.0  0.20556  0.49774  0.19944  1.0000
  O   O18       1.0  0.79444  0.99774  0.80057  1.0000
  O   O19       1.0  0.20510  0.52792  0.02384  1.0000
  O   O20       1.0  0.79490  0.02792  0.97616  1.0000
  O   O21       1.0  0.79996  0.57122  0.86443  1.0000
  O   O22       1.0  0.20004  0.07122  0.13557  1.0000
  O   O23       1.0  0.74300  0.78542  0.88483  1.0000
  O   O24       1.0  0.25700  0.28542  0.11517  1.0000
  O   O25       1.0  0.55906  0.74652  0.87028  1.0000
  O   O26       1.0  0.44094  0.24652  0.12972  1.0000
  O   O27       1.0  0.80865  0.60369  0.25652  1.0000
  O   O28       1.0  0.19135  0.10369  0.74348  1.0000
  O   O29       1.0  0.75253  0.38574  0.22951  1.0000
  O   O30       1.0  0.24747  0.88574  0.77049  1.0000
  O   O31       1.0  0.57694  0.43017  0.15473  1.0000
  O   O32       1.0  0.42306  0.93017  0.84527  1.0000
  O   O33       1.0  0.81976  0.16718  0.14043  1.0000
  O   O34       1.0  0.18024  0.66718  0.85957  1.0000
  O   O35       1.0  0.74382  0.14759  0.35110  1.0000
  O   O36       1.0  0.25618  0.64759  0.64890  1.0000
