data_image0
_chemical_formula_structural       Cd2H40C36N6O12
_chemical_formula_sum              "Cd2 H40 C36 N6 O12"
_cell_length_a       9.5515
_cell_length_b       10.4143
_cell_length_c       11.765
_cell_angle_alpha    108.27
_cell_angle_beta     96.3542
_cell_angle_gamma    119.409

_space_group_name_H-M_alt    "P 1"
_space_group_IT_number       1

loop_
  _space_group_symop_operation_xyz
  'x, y, z'

loop_
  _atom_site_type_symbol
  _atom_site_label
  _atom_site_symmetry_multiplicity
  _atom_site_fract_x
  _atom_site_fract_y
  _atom_site_fract_z
  _atom_site_occupancy
  Cd  Cd1       1.0  0.99084  0.33108  0.05922  1.0000
  Cd  Cd2       1.0  0.00916  0.66892  0.94079  1.0000
  H   H1        1.0  0.15908  0.72526  0.27186  1.0000
  H   H2        1.0  0.84093  0.27475  0.72815  1.0000
  H   H3        1.0  0.53254  0.30832  0.20359  1.0000
  H   H4        1.0  0.46745  0.69167  0.79641  1.0000
  H   H5        1.0  0.73953  0.16062  0.21872  1.0000
  H   H6        1.0  0.26048  0.83938  0.78128  1.0000
  H   H7        1.0  0.75377  0.57473  0.20513  1.0000
  H   H8        1.0  0.24622  0.42526  0.79486  1.0000
  H   H9        1.0  0.81100  0.63959  0.56845  1.0000
  H   H10       1.0  0.18900  0.36041  0.43155  1.0000
  H   H11       1.0  0.20775  0.94098  0.47507  1.0000
  H   H12       1.0  0.79225  0.05902  0.52494  1.0000
  H   H13       1.0  0.11065  0.87823  0.58441  1.0000
  H   H14       1.0  0.88935  0.12178  0.41559  1.0000
  H   H15       1.0  0.84015  0.82932  0.46115  1.0000
  H   H16       1.0  0.15986  0.17068  0.53885  1.0000
  H   H17       1.0  0.94477  0.89775  0.35662  1.0000
  H   H18       1.0  0.05523  0.10225  0.64338  1.0000
  H   H19       1.0  0.65939  0.74672  0.15898  1.0000
  H   H20       1.0  0.34061  0.25327  0.84101  1.0000
  H   H21       1.0  0.39782  0.04482  0.32984  1.0000
  H   H22       1.0  0.60218  0.95518  0.67017  1.0000
  H   H23       1.0  0.54625  0.05865  0.44574  1.0000
  H   H24       1.0  0.45375  0.94135  0.55426  1.0000
  H   H25       1.0  0.53278  0.98150  0.28342  1.0000
  H   H26       1.0  0.46722  0.01851  0.71658  1.0000
  H   H27       1.0  0.57512  0.46090  0.61258  1.0000
  H   H28       1.0  0.42488  0.53910  0.38741  1.0000
  H   H29       1.0  0.57115  0.28607  0.60526  1.0000
  H   H30       1.0  0.42885  0.71394  0.39474  1.0000
  H   H31       1.0  0.42206  0.26724  0.48670  1.0000
  H   H32       1.0  0.57793  0.73276  0.51330  1.0000
  H   H33       1.0  0.91333  0.06661  0.83235  1.0000
  H   H34       1.0  0.08666  0.93339  0.16765  1.0000
  H   H35       1.0  0.10966  0.18131  0.89441  1.0000
  H   H36       1.0  0.89034  0.81868  0.10558  1.0000
  H   H37       1.0  0.71214  0.00973  0.93062  1.0000
  H   H38       1.0  0.28786  0.99026  0.06938  1.0000
  H   H39       1.0  0.64347  0.12593  0.96521  1.0000
  H   H40       1.0  0.35653  0.87406  0.03479  1.0000
  C   C1        1.0  0.39808  0.56901  0.12343  1.0000
  C   C2        1.0  0.60192  0.43099  0.87657  1.0000
  C   C3        1.0  0.33011  0.33844  0.15444  1.0000
  C   C4        1.0  0.66989  0.66156  0.84556  1.0000
  C   C5        1.0  0.33543  0.66110  0.08269  1.0000
  C   C6        1.0  0.66457  0.33890  0.91731  1.0000
  C   C7        1.0  0.19248  0.18696  0.16252  1.0000
  C   C8        1.0  0.80752  0.81304  0.83748  1.0000
  C   C9        1.0  0.87432  0.42333  0.31399  1.0000
  C   C10       1.0  0.12568  0.57667  0.68601  1.0000
  C   C11       1.0  0.06740  0.64264  0.30341  1.0000
  C   C12       1.0  0.93260  0.35736  0.69659  1.0000
  C   C13       1.0  0.49909  0.38602  0.18244  1.0000
  C   C14       1.0  0.50091  0.61397  0.81756  1.0000
  C   C15       1.0  0.65627  0.24139  0.37479  1.0000
  C   C16       1.0  0.34373  0.75861  0.62521  1.0000
  C   C17       1.0  0.75614  0.26390  0.29563  1.0000
  C   C18       1.0  0.24386  0.73610  0.70437  1.0000
  C   C19       1.0  0.62109  0.53413  0.18434  1.0000
  C   C20       1.0  0.37891  0.46586  0.81566  1.0000
  C   C21       1.0  0.79565  0.53626  0.49256  1.0000
  C   C22       1.0  0.20435  0.46374  0.50744  1.0000
  C   C23       1.0  0.89540  0.55713  0.41319  1.0000
  C   C24       1.0  0.10460  0.44288  0.58681  1.0000
  C   C25       1.0  0.67334  0.37705  0.47130  1.0000
  C   C26       1.0  0.32666  0.62295  0.52870  1.0000
  C   C27       1.0  0.08538  0.86306  0.48592  1.0000
  C   C28       1.0  0.91463  0.13694  0.51408  1.0000
  C   C29       1.0  0.96453  0.91234  0.45502  1.0000
  C   C30       1.0  0.03548  0.08766  0.54499  1.0000
  C   C31       1.0  0.57062  0.62885  0.15731  1.0000
  C   C32       1.0  0.42938  0.37114  0.84268  1.0000
  C   C33       1.0  0.52674  0.07212  0.35730  1.0000
  C   C34       1.0  0.47327  0.92788  0.64270  1.0000
  C   C35       1.0  0.55505  0.34697  0.54843  1.0000
  C   C36       1.0  0.44495  0.65303  0.45157  1.0000
  N   N1        1.0  0.98324  0.48146  0.24685  1.0000
  N   N2        1.0  0.01676  0.51854  0.75315  1.0000
  N   N3        1.0  0.28190  0.42736  0.12292  1.0000
  N   N4        1.0  0.71810  0.57264  0.87708  1.0000
  N   N5        1.0  0.02102  0.69498  0.40473  1.0000
  N   N6        1.0  0.97898  0.30503  0.59527  1.0000
  O   O1        1.0  0.17562  0.59845  0.05423  1.0000
  O   O2        1.0  0.82438  0.40155  0.94578  1.0000
  O   O3        1.0  0.01401  0.18456  0.86108  1.0000
  O   O4        1.0  0.98599  0.81543  0.13892  1.0000
  O   O5        1.0  0.72219  0.09964  0.00067  1.0000
  O   O6        1.0  0.27781  0.90035  0.99933  1.0000
  O   O7        1.0  0.04453  0.15525  0.14246  1.0000
  O   O8        1.0  0.95547  0.84475  0.85754  1.0000
  O   O9        1.0  0.24191  0.10412  0.19270  1.0000
  O   O10       1.0  0.75808  0.89588  0.80730  1.0000
  O   O11       1.0  0.44613  0.79142  0.07990  1.0000
  O   O12       1.0  0.55388  0.20859  0.92011  1.0000
