data_image0
_chemical_formula_structural       Cs2H30C32S2O18
_chemical_formula_sum              "Cs2 H30 C32 S2 O18"
_cell_length_a       6.85627
_cell_length_b       9.44977
_cell_length_c       14.7053
_cell_angle_alpha    102.472
_cell_angle_beta     96.4592
_cell_angle_gamma    108.252

_space_group_name_H-M_alt    "P 1"
_space_group_IT_number       1

loop_
  _space_group_symop_operation_xyz
  'x, y, z'

loop_
  _atom_site_type_symbol
  _atom_site_label
  _atom_site_symmetry_multiplicity
  _atom_site_fract_x
  _atom_site_fract_y
  _atom_site_fract_z
  _atom_site_occupancy
  Cs  Cs1       1.0  0.21680  0.24916  0.49270  1.0000
  Cs  Cs2       1.0  0.78320  0.75084  0.50730  1.0000
  H   H1        1.0  0.14693  0.94349  0.19456  1.0000
  H   H2        1.0  0.85306  0.05651  0.80544  1.0000
  H   H3        1.0  0.05252  0.08021  0.07928  1.0000
  H   H4        1.0  0.94747  0.91978  0.92072  1.0000
  H   H5        1.0  0.54607  0.12740  0.21636  1.0000
  H   H6        1.0  0.45392  0.87259  0.78365  1.0000
  H   H7        1.0  0.68141  0.01959  0.94846  1.0000
  H   H8        1.0  0.31860  0.98041  0.05154  1.0000
  H   H9        1.0  0.62640  0.36223  0.79228  1.0000
  H   H10       1.0  0.37361  0.63777  0.20772  1.0000
  H   H11       1.0  0.74032  0.79160  0.00528  1.0000
  H   H12       1.0  0.25967  0.20840  0.99472  1.0000
  H   H13       1.0  0.82338  0.67039  0.13198  1.0000
  H   H14       1.0  0.17660  0.32960  0.86802  1.0000
  H   H15       1.0  0.67936  0.53969  0.70089  1.0000
  H   H16       1.0  0.32065  0.46031  0.29911  1.0000
  H   H17       1.0  0.52093  0.65854  0.69378  1.0000
  H   H18       1.0  0.47907  0.34146  0.30621  1.0000
  H   H19       1.0  0.41581  0.47824  0.72285  1.0000
  H   H20       1.0  0.58419  0.52175  0.27715  1.0000
  H   H21       1.0  0.69720  0.25516  0.48024  1.0000
  H   H22       1.0  0.30281  0.74485  0.51976  1.0000
  H   H23       1.0  0.80815  0.42641  0.54582  1.0000
  H   H24       1.0  0.19186  0.57360  0.45418  1.0000
  H   H25       1.0  0.94495  0.42700  0.30483  1.0000
  H   H26       1.0  0.05506  0.57300  0.69517  1.0000
  H   H27       1.0  0.87694  0.40131  0.40290  1.0000
  H   H28       1.0  0.12307  0.59869  0.59710  1.0000
  H   H29       1.0  0.11658  0.90829  0.33699  1.0000
  H   H30       1.0  0.88342  0.09171  0.66301  1.0000
  C   C1        1.0  0.90275  0.96051  0.27065  1.0000
  C   C2        1.0  0.09726  0.03949  0.72935  1.0000
  C   C3        1.0  0.01389  0.98261  0.19763  1.0000
  C   C4        1.0  0.98611  0.01739  0.80237  1.0000
  C   C5        1.0  0.96050  0.05893  0.13366  1.0000
  C   C6        1.0  0.03950  0.94106  0.86635  1.0000
  C   C7        1.0  0.79642  0.11672  0.14035  1.0000
  C   C8        1.0  0.20359  0.88328  0.85965  1.0000
  C   C9        1.0  0.67841  0.08779  0.21051  1.0000
  C   C10       1.0  0.32159  0.91221  0.78949  1.0000
  C   C11       1.0  0.72623  0.00727  0.27398  1.0000
  C   C12       1.0  0.27378  0.99273  0.72603  1.0000
  C   C13       1.0  0.76014  0.20864  0.07479  1.0000
  C   C14       1.0  0.23985  0.79136  0.92521  1.0000
  C   C15       1.0  0.70990  0.14152  0.97959  1.0000
  C   C16       1.0  0.29008  0.85848  0.02041  1.0000
  C   C17       1.0  0.71154  0.36800  0.93878  1.0000
  C   C18       1.0  0.28847  0.63201  0.06122  1.0000
  C   C19       1.0  0.67018  0.43312  0.86552  1.0000
  C   C20       1.0  0.32983  0.56688  0.13447  1.0000
  C   C21       1.0  0.68007  0.58656  0.89081  1.0000
  C   C22       1.0  0.31993  0.41344  0.10919  1.0000
  C   C23       1.0  0.73801  0.67296  0.98726  1.0000
  C   C24       1.0  0.26200  0.32705  0.01274  1.0000
  C   C25       1.0  0.78179  0.60589  0.05749  1.0000
  C   C26       1.0  0.21821  0.39411  0.94251  1.0000
  C   C27       1.0  0.76696  0.44960  0.03523  1.0000
  C   C28       1.0  0.23303  0.55040  0.96477  1.0000
  C   C29       1.0  0.80032  0.37425  0.10926  1.0000
  C   C30       1.0  0.19967  0.62575  0.89073  1.0000
  C   C31       1.0  0.55820  0.57790  0.73012  1.0000
  C   C32       1.0  0.44180  0.42210  0.26988  1.0000
  S   S1        1.0  0.57105  0.97019  0.36198  1.0000
  S   S2        1.0  0.42894  0.02981  0.63802  1.0000
  O   O1        1.0  0.39296  0.02211  0.34147  1.0000
  O   O2        1.0  0.60702  0.97789  0.65853  1.0000
  O   O3        1.0  0.50754  0.80384  0.35238  1.0000
  O   O4        1.0  0.49245  0.19616  0.64761  1.0000
  O   O5        1.0  0.71214  0.06471  0.45362  1.0000
  O   O6        1.0  0.28786  0.93529  0.54639  1.0000
  O   O7        1.0  0.99912  0.43071  0.37129  1.0000
  O   O8        1.0  0.00089  0.56928  0.62871  1.0000
  O   O9        1.0  0.70925  0.36389  0.48445  1.0000
  O   O10       1.0  0.29075  0.63611  0.51555  1.0000
  O   O11       1.0  0.96772  0.89760  0.33842  1.0000
  O   O12       1.0  0.03229  0.10240  0.66158  1.0000
  O   O13       1.0  0.68869  0.21411  0.91155  1.0000
  O   O14       1.0  0.31132  0.78589  0.08845  1.0000
  O   O15       1.0  0.86013  0.44801  0.19523  1.0000
  O   O16       1.0  0.13987  0.55200  0.80476  1.0000
  O   O17       1.0  0.63249  0.66288  0.82834  1.0000
  O   O18       1.0  0.36750  0.33712  0.17166  1.0000
