data_image0
_chemical_formula_structural       Cs2H34C34S2O18
_chemical_formula_sum              "Cs2 H34 C34 S2 O18"
_cell_length_a       6.83662
_cell_length_b       9.9984
_cell_length_c       15.1759
_cell_angle_alpha    71.5679
_cell_angle_beta     86.1028
_cell_angle_gamma    68.2661

_space_group_name_H-M_alt    "P 1"
_space_group_IT_number       1

loop_
  _space_group_symop_operation_xyz
  'x, y, z'

loop_
  _atom_site_type_symbol
  _atom_site_label
  _atom_site_symmetry_multiplicity
  _atom_site_fract_x
  _atom_site_fract_y
  _atom_site_fract_z
  _atom_site_occupancy
  Cs  Cs1       1.0  0.96091  0.74698  0.99444  1.0000
  Cs  Cs2       1.0  0.03909  0.25302  0.00557  1.0000
  H   H1        1.0  0.43925  0.60934  0.27491  1.0000
  H   H2        1.0  0.56075  0.39066  0.72510  1.0000
  H   H3        1.0  0.21719  0.44682  0.30458  1.0000
  H   H4        1.0  0.78280  0.55318  0.69542  1.0000
  H   H5        1.0  0.99271  0.58077  0.41005  1.0000
  H   H6        1.0  0.00730  0.41923  0.58995  1.0000
  H   H7        1.0  0.68478  0.50315  0.53673  1.0000
  H   H8        1.0  0.31522  0.49684  0.46327  1.0000
  H   H9        1.0  0.30869  0.82798  0.68258  1.0000
  H   H10       1.0  0.69131  0.17202  0.31742  1.0000
  H   H11       1.0  0.01859  0.26336  0.47127  1.0000
  H   H12       1.0  0.98141  0.73664  0.52873  1.0000
  H   H13       1.0  0.19345  0.14864  0.34875  1.0000
  H   H14       1.0  0.80654  0.85135  0.65124  1.0000
  H   H15       1.0  0.24294  0.98595  0.76405  1.0000
  H   H16       1.0  0.75706  0.01405  0.23595  1.0000
  H   H17       1.0  0.02199  0.93951  0.74964  1.0000
  H   H18       1.0  0.97801  0.06049  0.25036  1.0000
  H   H19       1.0  0.97132  0.06784  0.87305  1.0000
  H   H20       1.0  0.02868  0.93216  0.12695  1.0000
  H   H21       1.0  0.77735  0.17351  0.78044  1.0000
  H   H22       1.0  0.22264  0.82649  0.21956  1.0000
  H   H23       1.0  0.99279  0.23037  0.78869  1.0000
  H   H24       1.0  0.00720  0.76963  0.21131  1.0000
  H   H25       1.0  0.21316  0.41775  0.16436  1.0000
  H   H26       1.0  0.78684  0.58225  0.83565  1.0000
  H   H27       1.0  0.37763  0.93292  0.95055  1.0000
  H   H28       1.0  0.62237  0.06708  0.04945  1.0000
  H   H29       1.0  0.47847  0.89011  0.08895  1.0000
  H   H30       1.0  0.52153  0.10989  0.91104  1.0000
  H   H31       1.0  0.43821  0.75815  0.01022  1.0000
  H   H32       1.0  0.56179  0.24185  0.98978  1.0000
  H   H33       1.0  0.53102  0.90741  0.18548  1.0000
  H   H34       1.0  0.46897  0.09259  0.81452  1.0000
  C   C1        1.0  0.60940  0.57600  0.28235  1.0000
  C   C2        1.0  0.39060  0.42401  0.71765  1.0000
  C   C3        1.0  0.73302  0.50197  0.22235  1.0000
  C   C4        1.0  0.26698  0.49803  0.77765  1.0000
  C   C5        1.0  0.95450  0.45999  0.22808  1.0000
  C   C6        1.0  0.04550  0.54000  0.77192  1.0000
  C   C7        1.0  0.04625  0.48247  0.29928  1.0000
  C   C8        1.0  0.95375  0.51753  0.70072  1.0000
  C   C9        1.0  0.92051  0.55574  0.35856  1.0000
  C   C10       1.0  0.07949  0.44426  0.64144  1.0000
  C   C11       1.0  0.70020  0.60707  0.34991  1.0000
  C   C12       1.0  0.29980  0.39293  0.65009  1.0000
  C   C13       1.0  0.57442  0.69341  0.41111  1.0000
  C   C14       1.0  0.42558  0.30659  0.58889  1.0000
  C   C15       1.0  0.59259  0.62300  0.50455  1.0000
  C   C16       1.0  0.40742  0.37699  0.49545  1.0000
  C   C17       1.0  0.37427  0.84061  0.54031  1.0000
  C   C18       1.0  0.62573  0.15939  0.45969  1.0000
  C   C19       1.0  0.28053  0.90097  0.61055  1.0000
  C   C20       1.0  0.71947  0.09902  0.38945  1.0000
  C   C21       1.0  0.15045  0.05424  0.58449  1.0000
  C   C22       1.0  0.84955  0.94576  0.41551  1.0000
  C   C23       1.0  0.12032  0.14404  0.48967  1.0000
  C   C24       1.0  0.87969  0.85596  0.51033  1.0000
  C   C25       1.0  0.21617  0.08082  0.42202  1.0000
  C   C26       1.0  0.78383  0.91918  0.57798  1.0000
  C   C27       1.0  0.34545  0.92557  0.44545  1.0000
  C   C28       1.0  0.65455  0.07443  0.55455  1.0000
  C   C29       1.0  0.44707  0.85552  0.37503  1.0000
  C   C30       1.0  0.55293  0.14448  0.62497  1.0000
  C   C31       1.0  0.07422  0.03378  0.74290  1.0000
  C   C32       1.0  0.92577  0.96623  0.25710  1.0000
  C   C33       1.0  0.94586  0.13322  0.79887  1.0000
  C   C34       1.0  0.05413  0.86678  0.20113  1.0000
  S   S1        1.0  0.60812  0.46956  0.13527  1.0000
  S   S2        1.0  0.39188  0.53045  0.86473  1.0000
  O   O1        1.0  0.70601  0.30745  0.14681  1.0000
  O   O2        1.0  0.29399  0.69256  0.85319  1.0000
  O   O3        1.0  0.64951  0.56642  0.04560  1.0000
  O   O4        1.0  0.35049  0.43359  0.95441  1.0000
  O   O5        1.0  0.38157  0.51810  0.15372  1.0000
  O   O6        1.0  0.61843  0.48191  0.84628  1.0000
  O   O7        1.0  0.07689  0.40190  0.16423  1.0000
  O   O8        1.0  0.92311  0.59810  0.83577  1.0000
  O   O9        1.0  0.42853  0.93099  0.29029  1.0000
  O   O10       1.0  0.57147  0.06900  0.70971  1.0000
  O   O11       1.0  0.49941  0.68898  0.56919  1.0000
  O   O12       1.0  0.50059  0.31102  0.43081  1.0000
  O   O13       1.0  0.04682  0.12570  0.64558  1.0000
  O   O14       1.0  0.95318  0.87430  0.35442  1.0000
  O   O15       1.0  0.34193  0.86199  0.00665  1.0000
  O   O16       1.0  0.65807  0.13801  0.99335  1.0000
  O   O17       1.0  0.57632  0.91520  0.12108  1.0000
  O   O18       1.0  0.42368  0.08480  0.87892  1.0000
