data_image0
_chemical_formula_structural       Cd4P4H20C24N4O22
_chemical_formula_sum              "Cd4 P4 H20 C24 N4 O22"
_cell_length_a       7.10964
_cell_length_b       7.1096
_cell_length_c       18.8617
_cell_angle_alpha    85.2552
_cell_angle_beta     85.2551
_cell_angle_gamma    62.7536

_space_group_name_H-M_alt    "P 1"
_space_group_IT_number       1

loop_
  _space_group_symop_operation_xyz
  'x, y, z'

loop_
  _atom_site_type_symbol
  _atom_site_label
  _atom_site_symmetry_multiplicity
  _atom_site_fract_x
  _atom_site_fract_y
  _atom_site_fract_z
  _atom_site_occupancy
  Cd  Cd1       1.0  0.48186  0.34623  0.68477  1.0000
  Cd  Cd2       1.0  0.65378  0.51812  0.81523  1.0000
  Cd  Cd3       1.0  0.51812  0.65378  0.31523  1.0000
  Cd  Cd4       1.0  0.34623  0.48187  0.18477  1.0000
  P   P1        1.0  0.55596  0.82636  0.65233  1.0000
  P   P2        1.0  0.17364  0.44404  0.84767  1.0000
  P   P3        1.0  0.44404  0.17364  0.34767  1.0000
  P   P4        1.0  0.82637  0.55596  0.15233  1.0000
  H   H1        1.0  0.97430  0.57032  0.70248  1.0000
  H   H2        1.0  0.42968  0.02569  0.79751  1.0000
  H   H3        1.0  0.02569  0.42968  0.29752  1.0000
  H   H4        1.0  0.57032  0.97430  0.20248  1.0000
  H   H5        1.0  0.71028  0.88522  0.50274  1.0000
  H   H6        1.0  0.11479  0.28971  0.99726  1.0000
  H   H7        1.0  0.28971  0.11480  0.49726  1.0000
  H   H8        1.0  0.88523  0.71028  0.00274  1.0000
  H   H9        1.0  0.38301  0.54302  0.53063  1.0000
  H   H10       1.0  0.45700  0.61698  0.96937  1.0000
  H   H11       1.0  0.61698  0.45701  0.46937  1.0000
  H   H12       1.0  0.54302  0.38301  0.03063  1.0000
  H   H13       1.0  0.24938  0.99318  0.59965  1.0000
  H   H14       1.0  0.00682  0.75061  0.90035  1.0000
  H   H15       1.0  0.75061  0.00682  0.40035  1.0000
  H   H16       1.0  0.99319  0.24938  0.09965  1.0000
  H   H17       1.0  0.92019  0.14961  0.71019  1.0000
  H   H18       1.0  0.85040  0.07981  0.78981  1.0000
  H   H19       1.0  0.07981  0.85040  0.28980  1.0000
  H   H20       1.0  0.14961  0.92018  0.21019  1.0000
  C   C1        1.0  0.99057  0.61591  0.64650  1.0000
  C   C2        1.0  0.38410  0.00941  0.85350  1.0000
  C   C3        1.0  0.00942  0.38410  0.35350  1.0000
  C   C4        1.0  0.61591  0.99058  0.14650  1.0000
  C   C5        1.0  0.81404  0.73875  0.60652  1.0000
  C   C6        1.0  0.26125  0.18595  0.89348  1.0000
  C   C7        1.0  0.18595  0.26125  0.39348  1.0000
  C   C8        1.0  0.73876  0.81404  0.10652  1.0000
  C   C9        1.0  0.84608  0.79135  0.53485  1.0000
  C   C10       1.0  0.20866  0.15390  0.96515  1.0000
  C   C11       1.0  0.15391  0.20866  0.46515  1.0000
  C   C12       1.0  0.79135  0.84609  0.03485  1.0000
  C   C13       1.0  0.05355  0.72247  0.50607  1.0000
  C   C14       1.0  0.27754  0.94644  0.99393  1.0000
  C   C15       1.0  0.94644  0.27755  0.49393  1.0000
  C   C16       1.0  0.72247  0.05355  0.00607  1.0000
  C   C17       1.0  0.21990  0.60048  0.55049  1.0000
  C   C18       1.0  0.39953  0.78008  0.94951  1.0000
  C   C19       1.0  0.78009  0.39954  0.44951  1.0000
  C   C20       1.0  0.60048  0.21991  0.05049  1.0000
  C   C21       1.0  0.11385  0.76556  0.43003  1.0000
  C   C22       1.0  0.23446  0.88613  0.06997  1.0000
  C   C23       1.0  0.88613  0.23446  0.56997  1.0000
  C   C24       1.0  0.76556  0.11386  0.93003  1.0000
  N   N1        1.0  0.18984  0.54712  0.61877  1.0000
  N   N2        1.0  0.45289  0.81015  0.88123  1.0000
  N   N3        1.0  0.81015  0.45289  0.38123  1.0000
  N   N4        1.0  0.54712  0.18984  0.11877  1.0000
  O   O1        1.0  0.56083  0.63909  0.70034  1.0000
  O   O2        1.0  0.36092  0.43916  0.79966  1.0000
  O   O3        1.0  0.43916  0.36091  0.29966  1.0000
  O   O4        1.0  0.63909  0.56083  0.20034  1.0000
  O   O5        1.0  0.40507  0.87801  0.58936  1.0000
  O   O6        1.0  0.12199  0.59492  0.91064  1.0000
  O   O7        1.0  0.59492  0.12199  0.41064  1.0000
  O   O8        1.0  0.87802  0.40507  0.08936  1.0000
  O   O9        1.0  0.50356  0.01971  0.69382  1.0000
  O   O10       1.0  0.98029  0.49644  0.80618  1.0000
  O   O11       1.0  0.49644  0.98029  0.30618  1.0000
  O   O12       1.0  0.01971  0.50355  0.19382  1.0000
  O   O13       1.0  0.97275  0.85691  0.38403  1.0000
  O   O14       1.0  0.14311  0.02723  0.11597  1.0000
  O   O15       1.0  0.02724  0.14310  0.61597  1.0000
  O   O16       1.0  0.85691  0.97275  0.88403  1.0000
  O   O17       1.0  0.31031  0.70192  0.41655  1.0000
  O   O18       1.0  0.29810  0.68968  0.08345  1.0000
  O   O19       1.0  0.68968  0.29811  0.58345  1.0000
  O   O20       1.0  0.70192  0.31031  0.91655  1.0000
  O   O21       1.0  0.81067  0.18933  0.75000  1.0000
  O   O22       1.0  0.18933  0.81067  0.25000  1.0000
