data_image0
_chemical_formula_structural       Zn2P2H8C12N2O10
_chemical_formula_sum              "Zn2 P2 H8 C12 N2 O10"
_cell_length_a       5.06908
_cell_length_b       8.44587
_cell_length_c       9.68627
_cell_angle_alpha    89.9992
_cell_angle_beta     90.0004
_cell_angle_gamma    88.5665

_space_group_name_H-M_alt    "P 1"
_space_group_IT_number       1

loop_
  _space_group_symop_operation_xyz
  'x, y, z'

loop_
  _atom_site_type_symbol
  _atom_site_label
  _atom_site_symmetry_multiplicity
  _atom_site_fract_x
  _atom_site_fract_y
  _atom_site_fract_z
  _atom_site_occupancy
  Zn  Zn1       1.0  0.67865  0.11922  0.35360  1.0000
  Zn  Zn2       1.0  0.17864  0.61922  0.64640  1.0000
  P   P1        1.0  0.18451  0.91666  0.44532  1.0000
  P   P2        1.0  0.68451  0.41666  0.55468  1.0000
  H   H1        1.0  0.75907  0.68599  0.43050  1.0000
  H   H2        1.0  0.25907  0.18599  0.56949  1.0000
  H   H3        1.0  0.36999  0.84977  0.15607  1.0000
  H   H4        1.0  0.86997  0.34976  0.84393  1.0000
  H   H5        1.0  0.80156  0.50630  0.03093  1.0000
  H   H6        1.0  0.30151  0.00631  0.96907  1.0000
  H   H7        1.0  0.64983  0.50517  0.26412  1.0000
  H   H8        1.0  0.14980  0.00518  0.73588  1.0000
  C   C1        1.0  0.86730  0.68737  0.33332  1.0000
  C   C2        1.0  0.36729  0.18738  0.66668  1.0000
  C   C3        1.0  0.07972  0.78391  0.30856  1.0000
  C   C4        1.0  0.57969  0.28392  0.69144  1.0000
  C   C5        1.0  0.19966  0.77720  0.17828  1.0000
  C   C6        1.0  0.69964  0.27720  0.82172  1.0000
  C   C7        1.0  0.09920  0.67981  0.07481  1.0000
  C   C8        1.0  0.59915  0.17981  0.92519  1.0000
  C   C9        1.0  0.88606  0.58573  0.10557  1.0000
  C   C10       1.0  0.38602  0.08574  0.89443  1.0000
  C   C11       1.0  0.21929  0.67513  0.93195  1.0000
  C   C12       1.0  0.71927  0.17513  0.06805  1.0000
  N   N1        1.0  0.78317  0.58906  0.23367  1.0000
  N   N2        1.0  0.28314  0.08906  0.76632  1.0000
  O   O1        1.0  0.03352  0.07410  0.42318  1.0000
  O   O2        1.0  0.53351  0.57409  0.57682  1.0000
  O   O3        1.0  0.48169  0.93806  0.43015  1.0000
  O   O4        1.0  0.98169  0.43806  0.56986  1.0000
  O   O5        1.0  0.10594  0.83908  0.58334  1.0000
  O   O6        1.0  0.60596  0.33909  0.41665  1.0000
  O   O7        1.0  0.08951  0.59328  0.84296  1.0000
  O   O8        1.0  0.58947  0.09328  0.15705  1.0000
  O   O9        1.0  0.42468  0.74910  0.91008  1.0000
  O   O10       1.0  0.92465  0.24908  0.08992  1.0000
