data_image0
_chemical_formula_structural       Cd4H28C28S4N4Cl8
_chemical_formula_sum              "Cd4 H28 C28 S4 N4 Cl8"
_cell_length_a       3.86751
_cell_length_b       11.0754
_cell_length_c       23.2119
_cell_angle_alpha    89.9998
_cell_angle_beta     90
_cell_angle_gamma    98.0279

_space_group_name_H-M_alt    "P 1"
_space_group_IT_number       1

loop_
  _space_group_symop_operation_xyz
  'x, y, z'

loop_
  _atom_site_type_symbol
  _atom_site_label
  _atom_site_symmetry_multiplicity
  _atom_site_fract_x
  _atom_site_fract_y
  _atom_site_fract_z
  _atom_site_occupancy
  Cd  Cd1       1.0  0.29687  0.14655  0.47355  1.0000
  Cd  Cd2       1.0  0.70313  0.35345  0.97355  1.0000
  Cd  Cd3       1.0  0.70313  0.85345  0.52645  1.0000
  Cd  Cd4       1.0  0.29687  0.64655  0.02645  1.0000
  H   H1        1.0  0.96158  0.70354  0.21348  1.0000
  H   H2        1.0  0.03841  0.79646  0.71349  1.0000
  H   H3        1.0  0.03842  0.29646  0.78652  1.0000
  H   H4        1.0  0.96159  0.20354  0.28652  1.0000
  H   H5        1.0  0.45083  0.35305  0.26890  1.0000
  H   H6        1.0  0.54916  0.14695  0.76890  1.0000
  H   H7        1.0  0.54916  0.64695  0.73110  1.0000
  H   H8        1.0  0.45085  0.85305  0.23110  1.0000
  H   H9        1.0  0.95254  0.78030  0.31496  1.0000
  H   H10       1.0  0.04744  0.71970  0.81497  1.0000
  H   H11       1.0  0.04746  0.21970  0.68503  1.0000
  H   H12       1.0  0.95254  0.28031  0.18503  1.0000
  H   H13       1.0  0.68763  0.64616  0.39178  1.0000
  H   H14       1.0  0.31237  0.85384  0.89178  1.0000
  H   H15       1.0  0.31238  0.35383  0.60822  1.0000
  H   H16       1.0  0.68762  0.14617  0.10822  1.0000
  H   H17       1.0  0.70258  0.49193  0.19067  1.0000
  H   H18       1.0  0.29740  0.00806  0.69068  1.0000
  H   H19       1.0  0.29741  0.50807  0.80933  1.0000
  H   H20       1.0  0.70260  0.99194  0.30933  1.0000
  H   H21       1.0  0.24434  0.54549  0.42983  1.0000
  H   H22       1.0  0.75566  0.95450  0.92983  1.0000
  H   H23       1.0  0.75567  0.45450  0.57017  1.0000
  H   H24       1.0  0.24433  0.04550  0.07017  1.0000
  H   H25       1.0  0.15694  0.40033  0.46055  1.0000
  H   H26       1.0  0.84306  0.09968  0.96055  1.0000
  H   H27       1.0  0.84306  0.59967  0.53945  1.0000
  H   H28       1.0  0.15694  0.90033  0.03945  1.0000
  C   C1        1.0  0.54822  0.48967  0.33555  1.0000
  C   C2        1.0  0.45177  0.01033  0.83555  1.0000
  C   C3        1.0  0.45178  0.51033  0.66445  1.0000
  C   C4        1.0  0.54824  0.98967  0.16445  1.0000
  C   C5        1.0  0.84481  0.64442  0.24788  1.0000
  C   C6        1.0  0.15518  0.85558  0.74788  1.0000
  C   C7        1.0  0.15520  0.35558  0.75212  1.0000
  C   C8        1.0  0.84481  0.14443  0.25212  1.0000
  C   C9        1.0  0.55780  0.44710  0.27859  1.0000
  C   C10       1.0  0.44218  0.05290  0.77859  1.0000
  C   C11       1.0  0.44220  0.55290  0.72141  1.0000
  C   C12       1.0  0.55782  0.94710  0.22141  1.0000
  C   C13       1.0  0.83748  0.68741  0.30434  1.0000
  C   C14       1.0  0.16251  0.81259  0.80434  1.0000
  C   C15       1.0  0.16253  0.31259  0.69566  1.0000
  C   C16       1.0  0.83747  0.18742  0.19566  1.0000
  C   C17       1.0  0.68528  0.61126  0.34787  1.0000
  C   C18       1.0  0.31471  0.88875  0.84787  1.0000
  C   C19       1.0  0.31474  0.38874  0.65213  1.0000
  C   C20       1.0  0.68528  0.11126  0.15213  1.0000
  C   C21       1.0  0.70115  0.52454  0.23501  1.0000
  C   C22       1.0  0.29884  0.97546  0.73501  1.0000
  C   C23       1.0  0.29885  0.47546  0.76499  1.0000
  C   C24       1.0  0.70116  0.02455  0.26499  1.0000
  C   C25       1.0  0.40523  0.40675  0.38230  1.0000
  C   C26       1.0  0.59477  0.09325  0.88230  1.0000
  C   C27       1.0  0.59478  0.59324  0.61770  1.0000
  C   C28       1.0  0.40524  0.90676  0.11770  1.0000
  S   S1        1.0  0.43380  0.25615  0.37623  1.0000
  S   S2        1.0  0.56620  0.24385  0.87623  1.0000
  S   S3        1.0  0.56620  0.74384  0.62377  1.0000
  S   S4        1.0  0.43381  0.75616  0.12377  1.0000
  N   N1        1.0  0.26907  0.45480  0.42788  1.0000
  N   N2        1.0  0.73092  0.04521  0.92788  1.0000
  N   N3        1.0  0.73093  0.54520  0.57212  1.0000
  N   N4        1.0  0.26908  0.95480  0.07212  1.0000
  Cl  Cl1       1.0  0.85435  0.27780  0.52432  1.0000
  Cl  Cl2       1.0  0.14565  0.22220  0.02432  1.0000
  Cl  Cl3       1.0  0.14565  0.72220  0.47567  1.0000
  Cl  Cl4       1.0  0.85434  0.77780  0.97568  1.0000
  Cl  Cl5       1.0  0.25305  0.00636  0.56636  1.0000
  Cl  Cl6       1.0  0.74694  0.49364  0.06636  1.0000
  Cl  Cl7       1.0  0.74695  0.99364  0.43364  1.0000
  Cl  Cl8       1.0  0.25306  0.50636  0.93364  1.0000
