data_image0
_chemical_formula_structural       Ag2H16C6N14O8
_chemical_formula_sum              "Ag2 H16 C6 N14 O8"
_cell_length_a       6.48425
_cell_length_b       6.48424
_cell_length_c       11.1439
_cell_angle_alpha    99.3408
_cell_angle_beta     99.3406
_cell_angle_gamma    101.899

_space_group_name_H-M_alt    "P 1"
_space_group_IT_number       1

loop_
  _space_group_symop_operation_xyz
  'x, y, z'

loop_
  _atom_site_type_symbol
  _atom_site_label
  _atom_site_symmetry_multiplicity
  _atom_site_fract_x
  _atom_site_fract_y
  _atom_site_fract_z
  _atom_site_occupancy
  Ag  Ag1       1.0  0.04001  0.71644  0.75548  1.0000
  Ag  Ag2       1.0  0.71643  0.04002  0.25549  1.0000
  H   H1        1.0  0.43529  0.75591  0.65810  1.0000
  H   H2        1.0  0.75591  0.43529  0.15809  1.0000
  H   H3        1.0  0.38044  0.98232  0.65051  1.0000
  H   H4        1.0  0.98232  0.38044  0.15051  1.0000
  H   H5        1.0  0.66696  0.64307  0.52708  1.0000
  H   H6        1.0  0.64306  0.66696  0.02707  1.0000
  H   H7        1.0  0.66144  0.71103  0.38167  1.0000
  H   H8        1.0  0.71102  0.66144  0.88167  1.0000
  H   H9        1.0  0.99224  0.12422  0.88341  1.0000
  H   H10       1.0  0.12422  0.99223  0.38341  1.0000
  H   H11       1.0  0.08876  0.39529  0.88718  1.0000
  H   H12       1.0  0.39529  0.08876  0.38718  1.0000
  H   H13       1.0  0.03503  0.41060  0.37243  1.0000
  H   H14       1.0  0.41060  0.03503  0.87243  1.0000
  H   H15       1.0  0.13239  0.60289  0.51111  1.0000
  H   H16       1.0  0.60289  0.13239  0.01111  1.0000
  C   C1        1.0  0.82100  0.95360  0.53351  1.0000
  C   C2        1.0  0.95360  0.82100  0.03351  1.0000
  C   C3        1.0  0.96024  0.20277  0.71423  1.0000
  C   C4        1.0  0.20277  0.96023  0.21423  1.0000
  C   C5        1.0  0.96723  0.30700  0.52740  1.0000
  C   C6        1.0  0.30699  0.96722  0.02740  1.0000
  N   N1        1.0  0.88317  0.99374  0.65859  1.0000
  N   N2        1.0  0.99374  0.88316  0.15859  1.0000
  N   N3        1.0  0.99753  0.36706  0.65279  1.0000
  N   N4        1.0  0.36706  0.99753  0.15279  1.0000
  N   N5        1.0  0.86848  0.10397  0.46292  1.0000
  N   N6        1.0  0.10397  0.86848  0.96292  1.0000
  N   N7        1.0  0.71216  0.75547  0.47628  1.0000
  N   N8        1.0  0.75547  0.71216  0.97627  1.0000
  N   N9        1.0  0.99951  0.24938  0.83855  1.0000
  N   N10       1.0  0.24938  0.99951  0.33855  1.0000
  N   N11       1.0  0.03596  0.45636  0.46399  1.0000
  N   N12       1.0  0.45636  0.03596  0.96399  1.0000
  N   N13       1.0  0.51677  0.38452  0.66332  1.0000
  N   N14       1.0  0.38452  0.51677  0.16332  1.0000
  O   O1        1.0  0.31777  0.82435  0.63087  1.0000
  O   O2        1.0  0.82435  0.31777  0.13087  1.0000
  O   O3        1.0  0.58560  0.58334  0.71718  1.0000
  O   O4        1.0  0.58334  0.58560  0.21719  1.0000
  O   O5        1.0  0.49586  0.33439  0.54751  1.0000
  O   O6        1.0  0.33440  0.49585  0.04751  1.0000
  O   O7        1.0  0.47445  0.24496  0.72825  1.0000
  O   O8        1.0  0.24496  0.47446  0.22826  1.0000
