data_image0
_chemical_formula_structural       Mg2Cu4H36C24O24
_chemical_formula_sum              "Mg2 Cu4 H36 C24 O24"
_cell_length_a       8.30101
_cell_length_b       11.1978
_cell_length_c       11.2075
_cell_angle_alpha    99.3959
_cell_angle_beta     108.267
_cell_angle_gamma    108.324

_space_group_name_H-M_alt    "P 1"
_space_group_IT_number       1

loop_
  _space_group_symop_operation_xyz
  'x, y, z'

loop_
  _atom_site_type_symbol
  _atom_site_label
  _atom_site_symmetry_multiplicity
  _atom_site_fract_x
  _atom_site_fract_y
  _atom_site_fract_z
  _atom_site_occupancy
  Mg  Mg1       1.0  0.74976  0.58124  0.41896  1.0000
  Mg  Mg2       1.0  0.25023  0.41877  0.58103  1.0000
  Cu  Cu1       1.0  0.54243  0.51419  0.90136  1.0000
  Cu  Cu2       1.0  0.95758  0.09867  0.48546  1.0000
  Cu  Cu3       1.0  0.45755  0.48580  0.09864  1.0000
  Cu  Cu4       1.0  0.04244  0.90135  0.51457  1.0000
  H   H1        1.0  0.90820  0.66504  0.87002  1.0000
  H   H2        1.0  0.59148  0.13033  0.33380  1.0000
  H   H3        1.0  0.09176  0.33493  0.12999  1.0000
  H   H4        1.0  0.40854  0.86967  0.66618  1.0000
  H   H5        1.0  0.76884  0.75708  0.85502  1.0000
  H   H6        1.0  0.73253  0.14619  0.24301  1.0000
  H   H7        1.0  0.23115  0.24292  0.14496  1.0000
  H   H8        1.0  0.26751  0.85382  0.75700  1.0000
  H   H9        1.0  0.92016  0.77242  0.76773  1.0000
  H   H10       1.0  0.58154  0.23379  0.22767  1.0000
  H   H11       1.0  0.07986  0.22756  0.23228  1.0000
  H   H12       1.0  0.41848  0.76619  0.77231  1.0000
  H   H13       1.0  0.10926  0.69480  0.28294  1.0000
  H   H14       1.0  0.39170  0.71709  0.30602  1.0000
  H   H15       1.0  0.89074  0.30519  0.71704  1.0000
  H   H16       1.0  0.60833  0.28294  0.69397  1.0000
  H   H17       1.0  0.10354  0.56596  0.16166  1.0000
  H   H18       1.0  0.39746  0.83867  0.43461  1.0000
  H   H19       1.0  0.89644  0.43398  0.83836  1.0000
  H   H20       1.0  0.60252  0.16134  0.56536  1.0000
  H   H21       1.0  0.04897  0.53502  0.30115  1.0000
  H   H22       1.0  0.45219  0.69920  0.46573  1.0000
  H   H23       1.0  0.95101  0.46499  0.69888  1.0000
  H   H24       1.0  0.54779  0.30082  0.53426  1.0000
  H   H25       1.0  0.64830  0.14813  0.95758  1.0000
  H   H26       1.0  0.84817  0.04443  0.85032  1.0000
  H   H27       1.0  0.35172  0.85189  0.04257  1.0000
  H   H28       1.0  0.15184  0.95552  0.14969  1.0000
  H   H29       1.0  0.43391  0.08046  0.82073  1.0000
  H   H30       1.0  0.06541  0.17858  0.91909  1.0000
  H   H31       1.0  0.56628  0.91960  0.17925  1.0000
  H   H32       1.0  0.93455  0.82141  0.08092  1.0000
  H   H33       1.0  0.44043  0.07816  0.98218  1.0000
  H   H34       1.0  0.05232  0.01547  0.91991  1.0000
  H   H35       1.0  0.55939  0.92178  0.01770  1.0000
  H   H36       1.0  0.94773  0.98456  0.08013  1.0000
  C   C1        1.0  0.82874  0.70517  0.80136  1.0000
  C   C2        1.0  0.67211  0.19956  0.29470  1.0000
  C   C3        1.0  0.17126  0.29482  0.19863  1.0000
  C   C4        1.0  0.32791  0.80044  0.70529  1.0000
  C   C5        1.0  0.67711  0.59296  0.68609  1.0000
  C   C6        1.0  0.82295  0.31437  0.40777  1.0000
  C   C7        1.0  0.32288  0.40704  0.31390  1.0000
  C   C8        1.0  0.17704  0.68563  0.59222  1.0000
  C   C9        1.0  0.03907  0.58998  0.22858  1.0000
  C   C10       1.0  0.46177  0.77162  0.41057  1.0000
  C   C11       1.0  0.96091  0.40999  0.77143  1.0000
  C   C12       1.0  0.53823  0.22840  0.58942  1.0000
  C   C13       1.0  0.84318  0.56792  0.15324  1.0000
  C   C14       1.0  0.65725  0.84701  0.43184  1.0000
  C   C15       1.0  0.15680  0.43206  0.84675  1.0000
  C   C16       1.0  0.34276  0.15302  0.56818  1.0000
  C   C17       1.0  0.50231  0.13411  0.92545  1.0000
  C   C18       1.0  0.99403  0.07402  0.86464  1.0000
  C   C19       1.0  0.49767  0.86588  0.07454  1.0000
  C   C20       1.0  0.00599  0.92598  0.13538  1.0000
  C   C21       1.0  0.49314  0.26776  0.94796  1.0000
  C   C22       1.0  0.00474  0.05155  0.73161  1.0000
  C   C23       1.0  0.50684  0.73223  0.05203  1.0000
  C   C24       1.0  0.99528  0.94845  0.26842  1.0000
  O   O1        1.0  0.53831  0.51953  0.70556  1.0000
  O   O2        1.0  0.96195  0.29477  0.48042  1.0000
  O   O3        1.0  0.46169  0.48046  0.29442  1.0000
  O   O4        1.0  0.03804  0.70525  0.51959  1.0000
  O   O5        1.0  0.69288  0.57457  0.57781  1.0000
  O   O6        1.0  0.80633  0.42238  0.42779  1.0000
  O   O7        1.0  0.30711  0.42544  0.42217  1.0000
  O   O8        1.0  0.19367  0.57763  0.57217  1.0000
  O   O9        1.0  0.79693  0.56375  0.03254  1.0000
  O   O10       1.0  0.70320  0.96770  0.43533  1.0000
  O   O11       1.0  0.20305  0.43621  0.96746  1.0000
  O   O12       1.0  0.29682  0.03234  0.56471  1.0000
  O   O13       1.0  0.73367  0.55581  0.21408  1.0000
  O   O14       1.0  0.76689  0.78635  0.44412  1.0000
  O   O15       1.0  0.26632  0.44420  0.78593  1.0000
  O   O16       1.0  0.23311  0.21368  0.55586  1.0000
  O   O17       1.0  0.52797  0.33189  0.86899  1.0000
  O   O18       1.0  0.97057  0.13056  0.66732  1.0000
  O   O19       1.0  0.47197  0.66809  0.13100  1.0000
  O   O20       1.0  0.02950  0.86947  0.33272  1.0000
  O   O21       1.0  0.45444  0.30703  0.04501  1.0000
  O   O22       1.0  0.04419  0.95469  0.69297  1.0000
  O   O23       1.0  0.54554  0.69296  0.95499  1.0000
  O   O24       1.0  0.95579  0.04530  0.30704  1.0000
