data_image0
_chemical_formula_structural       Zn2H24C28N12O8
_chemical_formula_sum              "Zn2 H24 C28 N12 O8"
_cell_length_a       9.60548
_cell_length_b       9.47106
_cell_length_c       10.2744
_cell_angle_alpha    100.133
_cell_angle_beta     104.304
_cell_angle_gamma    92.8973

_space_group_name_H-M_alt    "P 1"
_space_group_IT_number       1

loop_
  _space_group_symop_operation_xyz
  'x, y, z'

loop_
  _atom_site_type_symbol
  _atom_site_label
  _atom_site_symmetry_multiplicity
  _atom_site_fract_x
  _atom_site_fract_y
  _atom_site_fract_z
  _atom_site_occupancy
  Zn  Zn1       1.0  0.43087  0.26294  0.32425  1.0000
  Zn  Zn2       1.0  0.56914  0.73706  0.67575  1.0000
  H   H1        1.0  0.23883  0.61843  0.14232  1.0000
  H   H2        1.0  0.76117  0.38157  0.85768  1.0000
  H   H3        1.0  0.93549  0.24058  0.99271  1.0000
  H   H4        1.0  0.06451  0.75942  0.00730  1.0000
  H   H5        1.0  0.82880  0.43840  0.63213  1.0000
  H   H6        1.0  0.17119  0.56160  0.36787  1.0000
  H   H7        1.0  0.92409  0.43757  0.24577  1.0000
  H   H8        1.0  0.07590  0.56243  0.75423  1.0000
  H   H9        1.0  0.22618  0.96307  0.18678  1.0000
  H   H10       1.0  0.77382  0.03693  0.81322  1.0000
  H   H11       1.0  0.66126  0.06597  0.20059  1.0000
  H   H12       1.0  0.33874  0.93403  0.79941  1.0000
  H   H13       1.0  0.86310  0.85427  0.57596  1.0000
  H   H14       1.0  0.13690  0.14573  0.42404  1.0000
  H   H15       1.0  0.47033  0.60975  0.35664  1.0000
  H   H16       1.0  0.52966  0.39024  0.64336  1.0000
  H   H17       1.0  0.71222  0.81681  0.08646  1.0000
  H   H18       1.0  0.28777  0.18319  0.91354  1.0000
  H   H19       1.0  0.55541  0.72060  0.96345  1.0000
  H   H20       1.0  0.44458  0.27941  0.03655  1.0000
  H   H21       1.0  0.50928  0.57320  0.12540  1.0000
  H   H22       1.0  0.49072  0.42680  0.87459  1.0000
  H   H23       1.0  0.69297  0.56540  0.12067  1.0000
  H   H24       1.0  0.30702  0.43460  0.87933  1.0000
  C   C1        1.0  0.19956  0.33564  0.15780  1.0000
  C   C2        1.0  0.80045  0.66437  0.84221  1.0000
  C   C3        1.0  0.09779  0.42040  0.07472  1.0000
  C   C4        1.0  0.90222  0.57960  0.92528  1.0000
  C   C5        1.0  0.13402  0.56698  0.08029  1.0000
  C   C6        1.0  0.86599  0.43302  0.91972  1.0000
  C   C7        1.0  0.96300  0.35386  0.99399  1.0000
  C   C8        1.0  0.03701  0.64614  0.00601  1.0000
  C   C9        1.0  0.71342  0.36124  0.35759  1.0000
  C   C10       1.0  0.28658  0.63876  0.64242  1.0000
  C   C11       1.0  0.86214  0.43098  0.43182  1.0000
  C   C12       1.0  0.13786  0.56902  0.56818  1.0000
  C   C13       1.0  0.90472  0.46582  0.57534  1.0000
  C   C14       1.0  0.09527  0.53418  0.42466  1.0000
  C   C15       1.0  0.95857  0.46550  0.35708  1.0000
  C   C16       1.0  0.04143  0.53451  0.64291  1.0000
  C   C17       1.0  0.33499  0.95175  0.17656  1.0000
  C   C18       1.0  0.66501  0.04825  0.82344  1.0000
  C   C19       1.0  0.55652  0.00749  0.18551  1.0000
  C   C20       1.0  0.44347  0.99251  0.81449  1.0000
  C   C21       1.0  0.77637  0.79528  0.49221  1.0000
  C   C22       1.0  0.22363  0.20472  0.50778  1.0000
  C   C23       1.0  0.57581  0.67068  0.38459  1.0000
  C   C24       1.0  0.42419  0.32932  0.61541  1.0000
  C   C25       1.0  0.60489  0.76191  0.07287  1.0000
  C   C26       1.0  0.39511  0.23809  0.92713  1.0000
  C   C27       1.0  0.61423  0.63667  0.14927  1.0000
  C   C28       1.0  0.38577  0.36333  0.85073  1.0000
  N   N1        1.0  0.51748  0.86894  0.12382  1.0000
  N   N2        1.0  0.48252  0.13106  0.87618  1.0000
  N   N3        1.0  0.37698  0.83131  0.11786  1.0000
  N   N4        1.0  0.62301  0.16869  0.88214  1.0000
  N   N5        1.0  0.44224  0.06315  0.22002  1.0000
  N   N6        1.0  0.55776  0.93685  0.77998  1.0000
  N   N7        1.0  0.65513  0.68764  0.29677  1.0000
  N   N8        1.0  0.34487  0.31236  0.70323  1.0000
  N   N9        1.0  0.78310  0.76808  0.36293  1.0000
  N   N10       1.0  0.21690  0.23192  0.63707  1.0000
  N   N11       1.0  0.65008  0.73828  0.51010  1.0000
  N   N12       1.0  0.34992  0.26172  0.48990  1.0000
  O   O1        1.0  0.33044  0.39813  0.21448  1.0000
  O   O2        1.0  0.66957  0.60187  0.78552  1.0000
  O   O3        1.0  0.15943  0.21210  0.17086  1.0000
  O   O4        1.0  0.84057  0.78790  0.82915  1.0000
  O   O5        1.0  0.62680  0.34445  0.43447  1.0000
  O   O6        1.0  0.37321  0.65554  0.56553  1.0000
  O   O7        1.0  0.67713  0.32443  0.22938  1.0000
  O   O8        1.0  0.32286  0.67558  0.77062  1.0000
