data_image0
_chemical_formula_structural       Cu4H36C48N24O16
_chemical_formula_sum              "Cu4 H36 C48 N24 O16"
_cell_length_a       9.55314
_cell_length_b       10.2436
_cell_length_c       15.549
_cell_angle_alpha    97.347
_cell_angle_beta     103.693
_cell_angle_gamma    101.959

_space_group_name_H-M_alt    "P 1"
_space_group_IT_number       1

loop_
  _space_group_symop_operation_xyz
  'x, y, z'

loop_
  _atom_site_type_symbol
  _atom_site_label
  _atom_site_symmetry_multiplicity
  _atom_site_fract_x
  _atom_site_fract_y
  _atom_site_fract_z
  _atom_site_occupancy
  Cu  Cu1       1.0  0.99310  0.04137  0.40319  1.0000
  Cu  Cu2       1.0  0.00703  0.95875  0.59692  1.0000
  Cu  Cu3       1.0  0.67957  0.84532  0.35397  1.0000
  Cu  Cu4       1.0  0.32061  0.15479  0.64604  1.0000
  H   H1        1.0  0.91635  0.80268  0.41791  1.0000
  H   H2        1.0  0.08382  0.19731  0.58212  1.0000
  H   H3        1.0  0.75052  0.04727  0.24423  1.0000
  H   H4        1.0  0.24940  0.95264  0.75585  1.0000
  H   H5        1.0  0.83967  0.93404  0.23036  1.0000
  H   H6        1.0  0.16040  0.06596  0.76970  1.0000
  H   H7        1.0  0.87660  0.38653  0.53675  1.0000
  H   H8        1.0  0.12346  0.61342  0.46332  1.0000
  H   H9        1.0  0.85320  0.85678  0.75690  1.0000
  H   H10       1.0  0.14665  0.14333  0.24292  1.0000
  H   H11       1.0  0.88152  0.64716  0.51227  1.0000
  H   H12       1.0  0.11829  0.35291  0.48759  1.0000
  H   H13       1.0  0.49497  0.48115  0.60932  1.0000
  H   H14       1.0  0.50503  0.51894  0.39063  1.0000
  H   H15       1.0  0.44274  0.10642  0.45245  1.0000
  H   H16       1.0  0.55729  0.89362  0.54751  1.0000
  H   H17       1.0  0.87483  0.35485  0.32684  1.0000
  H   H18       1.0  0.12515  0.64502  0.67310  1.0000
  H   H19       1.0  0.53263  0.06809  0.13712  1.0000
  H   H20       1.0  0.46737  0.93185  0.86278  1.0000
  H   H21       1.0  0.10187  0.03898  0.93258  1.0000
  H   H22       1.0  0.89801  0.96094  0.06739  1.0000
  H   H23       1.0  0.22932  0.36882  0.14811  1.0000
  H   H24       1.0  0.77069  0.63114  0.85183  1.0000
  H   H25       1.0  0.48398  0.47683  0.19969  1.0000
  H   H26       1.0  0.51593  0.52304  0.80035  1.0000
  H   H27       1.0  0.38977  0.90818  0.37181  1.0000
  H   H28       1.0  0.61027  0.09188  0.62825  1.0000
  H   H29       1.0  0.52611  0.70645  0.17057  1.0000
  H   H30       1.0  0.47390  0.29344  0.82951  1.0000
  H   H31       1.0  0.32561  0.41313  0.90706  1.0000
  H   H32       1.0  0.67435  0.58693  0.09299  1.0000
  H   H33       1.0  0.06563  0.67857  0.96833  1.0000
  H   H34       1.0  0.93438  0.32152  0.03175  1.0000
  H   H35       1.0  0.07100  0.74455  0.11419  1.0000
  H   H36       1.0  0.92908  0.25562  0.88587  1.0000
  C   C1        1.0  0.75824  0.36089  0.53247  1.0000
  C   C2        1.0  0.24180  0.63909  0.46755  1.0000
  C   C3        1.0  0.73058  0.12598  0.44676  1.0000
  C   C4        1.0  0.26955  0.87401  0.55329  1.0000
  C   C5        1.0  0.66755  0.23324  0.48832  1.0000
  C   C6        1.0  0.33253  0.76672  0.51171  1.0000
  C   C7        1.0  0.69289  0.45128  0.57387  1.0000
  C   C8        1.0  0.30709  0.54870  0.42609  1.0000
  C   C9        1.0  0.83716  0.77690  0.69994  1.0000
  C   C10       1.0  0.16269  0.22315  0.29991  1.0000
  C   C11       1.0  0.85871  0.67288  0.57692  1.0000
  C   C12       1.0  0.14117  0.32712  0.42296  1.0000
  C   C13       1.0  0.54364  0.41182  0.57347  1.0000
  C   C14       1.0  0.45634  0.58818  0.42651  1.0000
  C   C15       1.0  0.51687  0.20431  0.48728  1.0000
  C   C16       1.0  0.48319  0.79568  0.51273  1.0000
  C   C17       1.0  0.75597  0.57739  0.32092  1.0000
  C   C18       1.0  0.24406  0.42257  0.67908  1.0000
  C   C19       1.0  0.68753  0.43359  0.26987  1.0000
  C   C20       1.0  0.31241  0.56633  0.73016  1.0000
  C   C21       1.0  0.76490  0.33218  0.27970  1.0000
  C   C22       1.0  0.23505  0.66772  0.72028  1.0000
  C   C23       1.0  0.57410  0.17218  0.17468  1.0000
  C   C24       1.0  0.42586  0.82773  0.82526  1.0000
  C   C25       1.0  0.48796  0.26665  0.16191  1.0000
  C   C26       1.0  0.51200  0.73326  0.83805  1.0000
  C   C27       1.0  0.16627  0.11359  0.99212  1.0000
  C   C28       1.0  0.83365  0.88633  0.00785  1.0000
  C   C29       1.0  0.22688  0.28307  0.09855  1.0000
  C   C30       1.0  0.77311  0.71689  0.90139  1.0000
  C   C31       1.0  0.54559  0.39935  0.20988  1.0000
  C   C32       1.0  0.45435  0.60053  0.79015  1.0000
  C   C33       1.0  0.10313  0.89551  0.27608  1.0000
  C   C34       1.0  0.89682  0.10447  0.72397  1.0000
  C   C35       1.0  0.21724  0.83352  0.24631  1.0000
  C   C36       1.0  0.78278  0.16658  0.75373  1.0000
  C   C37       1.0  0.35953  0.85272  0.30311  1.0000
  C   C38       1.0  0.64053  0.14744  0.69692  1.0000
  C   C39       1.0  0.43550  0.73904  0.19059  1.0000
  C   C40       1.0  0.56457  0.26104  0.80948  1.0000
  C   C41       1.0  0.29340  0.71120  0.13130  1.0000
  C   C42       1.0  0.70665  0.28885  0.86877  1.0000
  C   C43       1.0  0.28364  0.48848  0.94208  1.0000
  C   C44       1.0  0.71635  0.51160  0.05797  1.0000
  C   C45       1.0  0.14867  0.61918  0.97031  1.0000
  C   C46       1.0  0.85135  0.38091  0.02978  1.0000
  C   C47       1.0  0.18240  0.76071  0.15872  1.0000
  C   C48       1.0  0.81765  0.23937  0.84134  1.0000
  N   N1        1.0  0.77430  0.58616  0.61368  1.0000
  N   N2        1.0  0.22563  0.41385  0.38623  1.0000
  N   N3        1.0  0.75822  0.65116  0.69199  1.0000
  N   N4        1.0  0.24168  0.34888  0.30790  1.0000
  N   N5        1.0  0.90043  0.79453  0.63061  1.0000
  N   N6        1.0  0.09944  0.20549  0.36924  1.0000
  N   N7        1.0  0.70938  0.20496  0.23305  1.0000
  N   N8        1.0  0.29059  0.79495  0.76690  1.0000
  N   N9        1.0  0.34462  0.22685  0.10101  1.0000
  N   N10       1.0  0.65535  0.77310  0.89893  1.0000
  N   N11       1.0  0.30620  0.11674  0.03249  1.0000
  N   N12       1.0  0.69372  0.88317  0.96747  1.0000
  N   N13       1.0  0.11201  0.21356  0.03059  1.0000
  N   N14       1.0  0.88795  0.78639  0.96937  1.0000
  N   N15       1.0  0.46613  0.80711  0.27515  1.0000
  N   N16       1.0  0.53398  0.19309  0.72490  1.0000
  N   N17       1.0  0.26393  0.63250  0.04480  1.0000
  N   N18       1.0  0.73610  0.36757  0.95528  1.0000
  N   N19       1.0  0.35223  0.54865  0.02698  1.0000
  N   N20       1.0  0.64780  0.45142  0.97307  1.0000
  N   N21       1.0  0.15833  0.52842  0.90425  1.0000
  N   N22       1.0  0.84165  0.47166  0.09582  1.0000
  N   N23       1.0  0.45640  0.29018  0.53042  1.0000
  N   N24       1.0  0.54362  0.70980  0.46958  1.0000
  O   O1        1.0  0.88038  0.88382  0.43414  1.0000
  O   O2        1.0  0.11974  0.11615  0.56581  1.0000
  O   O3        1.0  0.74597  0.94866  0.24282  1.0000
  O   O4        1.0  0.25402  0.05125  0.75719  1.0000
  O   O5        1.0  0.64221  0.00855  0.42003  1.0000
  O   O6        1.0  0.35802  0.99139  0.58019  1.0000
  O   O7        1.0  0.86352  0.16159  0.44214  1.0000
  O   O8        1.0  0.13652  0.83850  0.55776  1.0000
  O   O9        1.0  0.67800  0.66103  0.29592  1.0000
  O   O10       1.0  0.32200  0.33895  0.70418  1.0000
  O   O11       1.0  0.87694  0.60470  0.38141  1.0000
  O   O12       1.0  0.12323  0.39522  0.61846  1.0000
  O   O13       1.0  0.12687  0.93395  0.36146  1.0000
  O   O14       1.0  0.87302  0.06601  0.63859  1.0000
  O   O15       1.0  0.99788  0.90939  0.21478  1.0000
  O   O16       1.0  0.00203  0.09047  0.78524  1.0000
