data_image0
_chemical_formula_structural       Zn4H48C44O40
_chemical_formula_sum              "Zn4 H48 C44 O40"
_cell_length_a       4.90738
_cell_length_b       11.6636
_cell_length_c       22.7617
_cell_angle_alpha    90
_cell_angle_beta     90
_cell_angle_gamma    101.228

_space_group_name_H-M_alt    "P 1"
_space_group_IT_number       1

loop_
  _space_group_symop_operation_xyz
  'x, y, z'

loop_
  _atom_site_type_symbol
  _atom_site_label
  _atom_site_symmetry_multiplicity
  _atom_site_fract_x
  _atom_site_fract_y
  _atom_site_fract_z
  _atom_site_occupancy
  Zn  Zn1       1.0  0.14934  0.66861  0.78906  1.0000
  Zn  Zn2       1.0  0.35066  0.83140  0.28907  1.0000
  Zn  Zn3       1.0  0.85067  0.33140  0.21093  1.0000
  Zn  Zn4       1.0  0.64934  0.16860  0.71094  1.0000
  H   H1        1.0  0.02995  0.20615  0.09705  1.0000
  H   H2        1.0  0.47008  0.29385  0.59704  1.0000
  H   H3        1.0  0.97007  0.79386  0.90295  1.0000
  H   H4        1.0  0.52990  0.70615  0.40296  1.0000
  H   H5        1.0  0.81385  0.57667  0.87140  1.0000
  H   H6        1.0  0.68614  0.92333  0.37140  1.0000
  H   H7        1.0  0.18615  0.42333  0.12859  1.0000
  H   H8        1.0  0.31387  0.07667  0.62860  1.0000
  H   H9        1.0  0.81773  0.47505  0.82155  1.0000
  H   H10       1.0  0.68226  0.02495  0.32155  1.0000
  H   H11       1.0  0.18228  0.52495  0.17845  1.0000
  H   H12       1.0  0.31774  0.97505  0.67845  1.0000
  H   H13       1.0  0.56617  0.61751  0.73320  1.0000
  H   H14       1.0  0.93385  0.88250  0.23320  1.0000
  H   H15       1.0  0.43383  0.38249  0.26680  1.0000
  H   H16       1.0  0.06616  0.11750  0.76680  1.0000
  H   H17       1.0  0.29716  0.51129  0.72357  1.0000
  H   H18       1.0  0.20285  0.98871  0.22357  1.0000
  H   H19       1.0  0.70284  0.48871  0.27643  1.0000
  H   H20       1.0  0.79715  0.01129  0.77644  1.0000
  H   H21       1.0  0.78934  0.43737  0.01687  1.0000
  H   H22       1.0  0.71069  0.06263  0.51687  1.0000
  H   H23       1.0  0.21070  0.56263  0.98313  1.0000
  H   H24       1.0  0.28929  0.93736  0.48313  1.0000
  H   H25       1.0  0.12007  0.41917  0.93594  1.0000
  H   H26       1.0  0.37995  0.08083  0.43594  1.0000
  H   H27       1.0  0.87995  0.58083  0.06405  1.0000
  H   H28       1.0  0.62005  0.91916  0.56405  1.0000
  H   H29       1.0  0.32053  0.09555  0.97754  1.0000
  H   H30       1.0  0.17946  0.40445  0.47754  1.0000
  H   H31       1.0  0.67949  0.90445  0.02246  1.0000
  H   H32       1.0  0.82050  0.59555  0.52246  1.0000
  H   H33       1.0  0.23229  0.01700  0.87837  1.0000
  H   H34       1.0  0.26766  0.48302  0.37837  1.0000
  H   H35       1.0  0.76771  0.98300  0.12163  1.0000
  H   H36       1.0  0.73230  0.51698  0.62163  1.0000
  H   H37       1.0  0.37732  0.93530  0.93253  1.0000
  H   H38       1.0  0.12263  0.56470  0.43253  1.0000
  H   H39       1.0  0.62269  0.06470  0.06747  1.0000
  H   H40       1.0  0.87735  0.43529  0.56747  1.0000
  H   H41       1.0  0.44047  0.34772  0.89028  1.0000
  H   H42       1.0  0.05951  0.15227  0.39028  1.0000
  H   H43       1.0  0.55956  0.65228  0.10972  1.0000
  H   H44       1.0  0.94046  0.84772  0.60971  1.0000
  H   H45       1.0  0.21876  0.39960  0.83874  1.0000
  H   H46       1.0  0.28126  0.10040  0.33874  1.0000
  H   H47       1.0  0.78128  0.60039  0.16126  1.0000
  H   H48       1.0  0.71874  0.89961  0.66126  1.0000
  C   C1        1.0  0.34994  0.28453  0.05126  1.0000
  C   C2        1.0  0.15008  0.21548  0.55126  1.0000
  C   C3        1.0  0.65009  0.71548  0.94874  1.0000
  C   C4        1.0  0.84990  0.78452  0.44874  1.0000
  C   C5        1.0  0.53946  0.26748  0.00299  1.0000
  C   C6        1.0  0.96055  0.23252  0.50300  1.0000
  C   C7        1.0  0.46057  0.73252  0.99701  1.0000
  C   C8        1.0  0.03942  0.76747  0.49700  1.0000
  C   C9        1.0  0.76311  0.35826  0.99069  1.0000
  C   C10       1.0  0.73690  0.14174  0.49069  1.0000
  C   C11       1.0  0.23691  0.64174  0.00930  1.0000
  C   C12       1.0  0.26307  0.85825  0.50931  1.0000
  C   C13       1.0  0.94886  0.34754  0.94580  1.0000
  C   C14       1.0  0.55114  0.15246  0.44580  1.0000
  C   C15       1.0  0.05115  0.65247  0.05420  1.0000
  C   C16       1.0  0.44884  0.84753  0.55420  1.0000
  C   C17       1.0  0.91307  0.24565  0.91220  1.0000
  C   C18       1.0  0.58692  0.25436  0.41220  1.0000
  C   C19       1.0  0.08696  0.75435  0.08780  1.0000
  C   C20       1.0  0.41305  0.74564  0.58780  1.0000
  C   C21       1.0  0.68386  0.15327  0.92367  1.0000
  C   C22       1.0  0.81614  0.34674  0.42367  1.0000
  C   C23       1.0  0.31615  0.84674  0.07633  1.0000
  C   C24       1.0  0.18384  0.65326  0.57633  1.0000
  C   C25       1.0  0.50007  0.16440  0.96899  1.0000
  C   C26       1.0  0.99992  0.33560  0.46899  1.0000
  C   C27       1.0  0.49996  0.83560  0.03101  1.0000
  C   C28       1.0  0.00004  0.66440  0.53102  1.0000
  C   C29       1.0  0.41100  0.97583  0.88878  1.0000
  C   C30       1.0  0.08897  0.52418  0.38878  1.0000
  C   C31       1.0  0.58901  0.02419  0.11122  1.0000
  C   C32       1.0  0.91101  0.47581  0.61122  1.0000
  C   C33       1.0  0.42501  0.88034  0.84417  1.0000
  C   C34       1.0  0.07495  0.61968  0.34417  1.0000
  C   C35       1.0  0.57499  0.11967  0.15583  1.0000
  C   C36       1.0  0.92505  0.38033  0.65583  1.0000
  C   C37       1.0  0.30183  0.32262  0.85247  1.0000
  C   C38       1.0  0.19814  0.17738  0.35247  1.0000
  C   C39       1.0  0.69819  0.67738  0.14753  1.0000
  C   C40       1.0  0.80182  0.82262  0.64753  1.0000
  C   C41       1.0  0.47205  0.28807  0.80261  1.0000
  C   C42       1.0  0.02794  0.21193  0.30262  1.0000
  C   C43       1.0  0.52798  0.71193  0.19738  1.0000
  C   C44       1.0  0.97204  0.78806  0.69738  1.0000
  O   O1        1.0  0.15468  0.19079  0.06375  1.0000
  O   O2        1.0  0.34534  0.30921  0.56375  1.0000
  O   O3        1.0  0.84534  0.80921  0.93625  1.0000
  O   O4        1.0  0.65464  0.69079  0.43625  1.0000
  O   O5        1.0  0.93094  0.54673  0.84112  1.0000
  O   O6        1.0  0.56905  0.95327  0.34112  1.0000
  O   O7        1.0  0.06907  0.45327  0.15888  1.0000
  O   O8        1.0  0.43094  0.04673  0.65888  1.0000
  O   O9        1.0  0.37464  0.37886  0.07802  1.0000
  O   O10       1.0  0.12539  0.12115  0.57801  1.0000
  O   O11       1.0  0.62538  0.62115  0.92198  1.0000
  O   O12       1.0  0.87459  0.87885  0.42198  1.0000
  O   O13       1.0  0.39139  0.57312  0.75145  1.0000
  O   O14       1.0  0.10863  0.92688  0.25145  1.0000
  O   O15       1.0  0.60861  0.42688  0.24855  1.0000
  O   O16       1.0  0.89138  0.07312  0.74855  1.0000
  O   O17       1.0  0.08135  0.22752  0.86735  1.0000
  O   O18       1.0  0.41863  0.27248  0.36736  1.0000
  O   O19       1.0  0.91868  0.77248  0.13265  1.0000
  O   O20       1.0  0.58134  0.72752  0.63265  1.0000
  O   O21       1.0  0.38430  0.19056  0.77569  1.0000
  O   O22       1.0  0.11568  0.30944  0.27569  1.0000
  O   O23       1.0  0.61572  0.80943  0.22431  1.0000
  O   O24       1.0  0.88430  0.69056  0.72432  1.0000
  O   O25       1.0  0.69395  0.35556  0.78913  1.0000
  O   O26       1.0  0.80605  0.14444  0.28913  1.0000
  O   O27       1.0  0.30609  0.64443  0.21087  1.0000
  O   O28       1.0  0.19393  0.85556  0.71087  1.0000
  O   O29       1.0  0.66346  0.05979  0.88686  1.0000
  O   O30       1.0  0.83652  0.44022  0.38686  1.0000
  O   O31       1.0  0.33655  0.94021  0.11314  1.0000
  O   O32       1.0  0.16347  0.55979  0.61315  1.0000
  O   O33       1.0  0.21730  0.79185  0.84960  1.0000
  O   O34       1.0  0.28265  0.70816  0.34961  1.0000
  O   O35       1.0  0.78270  0.20816  0.15039  1.0000
  O   O36       1.0  0.71734  0.29183  0.65039  1.0000
  O   O37       1.0  0.61422  0.88663  0.80750  1.0000
  O   O38       1.0  0.88575  0.61337  0.30750  1.0000
  O   O39       1.0  0.38578  0.11337  0.19249  1.0000
  O   O40       1.0  0.11425  0.38663  0.69250  1.0000
