data_image0
_chemical_formula_structural       Sr4H56C44O44
_chemical_formula_sum              "Sr4 H56 C44 O44"
_cell_length_a       6.73442
_cell_length_b       13.6841
_cell_length_c       15.8144
_cell_angle_alpha    104.743
_cell_angle_beta     90
_cell_angle_gamma    90

_space_group_name_H-M_alt    "P 1"
_space_group_IT_number       1

loop_
  _space_group_symop_operation_xyz
  'x, y, z'

loop_
  _atom_site_type_symbol
  _atom_site_label
  _atom_site_symmetry_multiplicity
  _atom_site_fract_x
  _atom_site_fract_y
  _atom_site_fract_z
  _atom_site_occupancy
  Sr  Sr1       1.0  0.25869  0.26175  0.39837  1.0000
  Sr  Sr2       1.0  0.75868  0.23825  0.60163  1.0000
  Sr  Sr3       1.0  0.74131  0.73824  0.60163  1.0000
  Sr  Sr4       1.0  0.24131  0.76175  0.39837  1.0000
  H   H1        1.0  0.45626  0.08968  0.43924  1.0000
  H   H2        1.0  0.95625  0.41032  0.56076  1.0000
  H   H3        1.0  0.54375  0.91032  0.56076  1.0000
  H   H4        1.0  0.04375  0.58968  0.43924  1.0000
  H   H5        1.0  0.56606  0.06636  0.34673  1.0000
  H   H6        1.0  0.06605  0.43364  0.65327  1.0000
  H   H7        1.0  0.43395  0.93364  0.65327  1.0000
  H   H8        1.0  0.93395  0.56636  0.34673  1.0000
  H   H9        1.0  0.16571  0.45489  0.33336  1.0000
  H   H10       1.0  0.66571  0.04510  0.66664  1.0000
  H   H11       1.0  0.83429  0.54510  0.66664  1.0000
  H   H12       1.0  0.33430  0.95489  0.33336  1.0000
  H   H13       1.0  0.16759  0.37989  0.24103  1.0000
  H   H14       1.0  0.66759  0.12011  0.75897  1.0000
  H   H15       1.0  0.83242  0.62011  0.75897  1.0000
  H   H16       1.0  0.33243  0.87989  0.24103  1.0000
  H   H17       1.0  0.24336  0.49439  0.52365  1.0000
  H   H18       1.0  0.74337  0.00561  0.47635  1.0000
  H   H19       1.0  0.75664  0.50561  0.47635  1.0000
  H   H20       1.0  0.25663  0.99439  0.52365  1.0000
  H   H21       1.0  0.38427  0.42159  0.56102  1.0000
  H   H22       1.0  0.88427  0.07841  0.43898  1.0000
  H   H23       1.0  0.61573  0.57841  0.43898  1.0000
  H   H24       1.0  0.11572  0.92159  0.56102  1.0000
  H   H25       1.0  0.27028  0.01911  0.82959  1.0000
  H   H26       1.0  0.77028  0.48089  0.17040  1.0000
  H   H27       1.0  0.72973  0.98089  0.17040  1.0000
  H   H28       1.0  0.22972  0.51912  0.82960  1.0000
  H   H29       1.0  0.76227  0.20094  0.99875  1.0000
  H   H30       1.0  0.26227  0.29906  0.00124  1.0000
  H   H31       1.0  0.23773  0.79907  0.00124  1.0000
  H   H32       1.0  0.73772  0.70094  0.99876  1.0000
  H   H33       1.0  0.81467  0.27175  0.15792  1.0000
  H   H34       1.0  0.31468  0.22826  0.84208  1.0000
  H   H35       1.0  0.18533  0.72826  0.84208  1.0000
  H   H36       1.0  0.68532  0.77174  0.15792  1.0000
  H   H37       1.0  0.20456  0.07526  0.04937  1.0000
  H   H38       1.0  0.70456  0.42473  0.95062  1.0000
  H   H39       1.0  0.79543  0.92473  0.95062  1.0000
  H   H40       1.0  0.29543  0.57526  0.04938  1.0000
  H   H41       1.0  0.13286  0.99974  0.17442  1.0000
  H   H42       1.0  0.63287  0.50026  0.82557  1.0000
  H   H43       1.0  0.86714  0.00025  0.82557  1.0000
  H   H44       1.0  0.36714  0.49974  0.17443  1.0000
  H   H45       1.0  0.97995  0.09640  0.15066  1.0000
  H   H46       1.0  0.47994  0.40360  0.84935  1.0000
  H   H47       1.0  0.02006  0.90360  0.84934  1.0000
  H   H48       1.0  0.52005  0.59640  0.15066  1.0000
  H   H49       1.0  0.71193  0.38228  0.30420  1.0000
  H   H50       1.0  0.21193  0.11773  0.69579  1.0000
  H   H51       1.0  0.28807  0.61772  0.69579  1.0000
  H   H52       1.0  0.78807  0.88227  0.30421  1.0000
  H   H53       1.0  0.86585  0.27348  0.28392  1.0000
  H   H54       1.0  0.36585  0.22653  0.71607  1.0000
  H   H55       1.0  0.13416  0.72652  0.71607  1.0000
  H   H56       1.0  0.63415  0.77347  0.28393  1.0000
  C   C1        1.0  0.45348  0.09556  0.91956  1.0000
  C   C2        1.0  0.95349  0.40443  0.08044  1.0000
  C   C3        1.0  0.54651  0.90444  0.08044  1.0000
  C   C4        1.0  0.04651  0.59557  0.91957  1.0000
  C   C5        1.0  0.48148  0.13390  0.01507  1.0000
  C   C6        1.0  0.98149  0.36611  0.98493  1.0000
  C   C7        1.0  0.51851  0.86611  0.98493  1.0000
  C   C8        1.0  0.01851  0.63389  0.01507  1.0000
  C   C9        1.0  0.65258  0.18886  0.04562  1.0000
  C   C10       1.0  0.15258  0.31114  0.95438  1.0000
  C   C11       1.0  0.34743  0.81114  0.95438  1.0000
  C   C12       1.0  0.84742  0.68886  0.04562  1.0000
  C   C13       1.0  0.68155  0.22814  0.13503  1.0000
  C   C14       1.0  0.18154  0.27187  0.86497  1.0000
  C   C15       1.0  0.31845  0.77187  0.86497  1.0000
  C   C16       1.0  0.81845  0.72813  0.13503  1.0000
  C   C17       1.0  0.54005  0.21205  0.19453  1.0000
  C   C18       1.0  0.04006  0.28795  0.80546  1.0000
  C   C19       1.0  0.45995  0.78795  0.80547  1.0000
  C   C20       1.0  0.95994  0.71205  0.19454  1.0000
  C   C21       1.0  0.36462  0.15699  0.16380  1.0000
  C   C22       1.0  0.86462  0.34301  0.83619  1.0000
  C   C23       1.0  0.63538  0.84301  0.83619  1.0000
  C   C24       1.0  0.13538  0.65698  0.16381  1.0000
  C   C25       1.0  0.33708  0.11810  0.07463  1.0000
  C   C26       1.0  0.83707  0.38189  0.92537  1.0000
  C   C27       1.0  0.66292  0.88190  0.92537  1.0000
  C   C28       1.0  0.16291  0.61810  0.07463  1.0000
  C   C29       1.0  0.07219  0.07625  0.20118  1.0000
  C   C30       1.0  0.57219  0.42374  0.79882  1.0000
  C   C31       1.0  0.92781  0.92375  0.79882  1.0000
  C   C32       1.0  0.42781  0.57625  0.20118  1.0000
  C   C33       1.0  0.94187  0.07584  0.28016  1.0000
  C   C34       1.0  0.44187  0.42416  0.71984  1.0000
  C   C35       1.0  0.05813  0.92416  0.71984  1.0000
  C   C36       1.0  0.55813  0.57584  0.28016  1.0000
  C   C37       1.0  0.72882  0.30692  0.31643  1.0000
  C   C38       1.0  0.22882  0.19308  0.68357  1.0000
  C   C39       1.0  0.27118  0.69308  0.68357  1.0000
  C   C40       1.0  0.77118  0.80692  0.31643  1.0000
  C   C41       1.0  0.75362  0.31667  0.41378  1.0000
  C   C42       1.0  0.25362  0.18333  0.58621  1.0000
  C   C43       1.0  0.24638  0.68333  0.58621  1.0000
  C   C44       1.0  0.74638  0.81667  0.41379  1.0000
  O   O1        1.0  0.23131  0.14742  0.22726  1.0000
  O   O2        1.0  0.73131  0.35258  0.77274  1.0000
  O   O3        1.0  0.76870  0.85258  0.77274  1.0000
  O   O4        1.0  0.26869  0.64742  0.22726  1.0000
  O   O5        1.0  0.43443  0.07402  0.37509  1.0000
  O   O6        1.0  0.93442  0.42598  0.62491  1.0000
  O   O7        1.0  0.56557  0.92598  0.62492  1.0000
  O   O8        1.0  0.06558  0.57402  0.37509  1.0000
  O   O9        1.0  0.99434  0.12560  0.35536  1.0000
  O   O10       1.0  0.49432  0.37440  0.64464  1.0000
  O   O11       1.0  0.00567  0.87440  0.64464  1.0000
  O   O12       1.0  0.50567  0.62559  0.35536  1.0000
  O   O13       1.0  0.21488  0.38679  0.30110  1.0000
  O   O14       1.0  0.71488  0.11321  0.69889  1.0000
  O   O15       1.0  0.78512  0.61321  0.69890  1.0000
  O   O16       1.0  0.28513  0.88679  0.30110  1.0000
  O   O17       1.0  0.78218  0.02410  0.26472  1.0000
  O   O18       1.0  0.28217  0.47590  0.73528  1.0000
  O   O19       1.0  0.21782  0.97590  0.73528  1.0000
  O   O20       1.0  0.71783  0.52410  0.26472  1.0000
  O   O21       1.0  0.31533  0.43048  0.50801  1.0000
  O   O22       1.0  0.81533  0.06952  0.49199  1.0000
  O   O23       1.0  0.68466  0.56952  0.49200  1.0000
  O   O24       1.0  0.18465  0.93048  0.50800  1.0000
  O   O25       1.0  0.28718  0.04372  0.89719  1.0000
  O   O26       1.0  0.78718  0.45628  0.10280  1.0000
  O   O27       1.0  0.71282  0.95628  0.10280  1.0000
  O   O28       1.0  0.21282  0.54372  0.89720  1.0000
  O   O29       1.0  0.57488  0.11315  0.86591  1.0000
  O   O30       1.0  0.07487  0.38684  0.13408  1.0000
  O   O31       1.0  0.42513  0.88685  0.13408  1.0000
  O   O32       1.0  0.92513  0.61316  0.86592  1.0000
  O   O33       1.0  0.56001  0.24485  0.28319  1.0000
  O   O34       1.0  0.06001  0.25515  0.71681  1.0000
  O   O35       1.0  0.43999  0.75515  0.71681  1.0000
  O   O36       1.0  0.93999  0.74485  0.28319  1.0000
  O   O37       1.0  0.62618  0.27931  0.45510  1.0000
  O   O38       1.0  0.12618  0.22069  0.54489  1.0000
  O   O39       1.0  0.37382  0.72070  0.54490  1.0000
  O   O40       1.0  0.87382  0.77930  0.45511  1.0000
  O   O41       1.0  0.90959  0.36446  0.44658  1.0000
  O   O42       1.0  0.40960  0.13555  0.55342  1.0000
  O   O43       1.0  0.09040  0.63554  0.55342  1.0000
  O   O44       1.0  0.59040  0.86446  0.44658  1.0000
