data_image0
_chemical_formula_structural       Rb4H28C28S4O28
_chemical_formula_sum              "Rb4 H28 C28 S4 O28"
_cell_length_a       7.24788
_cell_length_b       11.9352
_cell_length_c       12.0433
_cell_angle_alpha    104.314
_cell_angle_beta     90
_cell_angle_gamma    90.0005

_space_group_name_H-M_alt    "P 1"
_space_group_IT_number       1

loop_
  _space_group_symop_operation_xyz
  'x, y, z'

loop_
  _atom_site_type_symbol
  _atom_site_label
  _atom_site_symmetry_multiplicity
  _atom_site_fract_x
  _atom_site_fract_y
  _atom_site_fract_z
  _atom_site_occupancy
  Rb  Rb1       1.0  0.41729  0.09113  0.25099  1.0000
  Rb  Rb2       1.0  0.91729  0.90887  0.24901  1.0000
  Rb  Rb3       1.0  0.58271  0.90887  0.74901  1.0000
  Rb  Rb4       1.0  0.08271  0.09113  0.75099  1.0000
  H   H1        1.0  0.63087  0.66756  0.16002  1.0000
  H   H2        1.0  0.13086  0.33244  0.33998  1.0000
  H   H3        1.0  0.36913  0.33244  0.83999  1.0000
  H   H4        1.0  0.86914  0.66756  0.66002  1.0000
  H   H5        1.0  0.16218  0.60282  0.16363  1.0000
  H   H6        1.0  0.66217  0.39718  0.33637  1.0000
  H   H7        1.0  0.83782  0.39718  0.83637  1.0000
  H   H8        1.0  0.33783  0.60282  0.66363  1.0000
  H   H9        1.0  0.34966  0.31887  0.08445  1.0000
  H   H10       1.0  0.84967  0.68114  0.41556  1.0000
  H   H11       1.0  0.65034  0.68114  0.91556  1.0000
  H   H12       1.0  0.15034  0.31886  0.58445  1.0000
  H   H13       1.0  0.14126  0.14753  0.03744  1.0000
  H   H14       1.0  0.64127  0.85247  0.46256  1.0000
  H   H15       1.0  0.85873  0.85247  0.96256  1.0000
  H   H16       1.0  0.35874  0.14753  0.53744  1.0000
  H   H17       1.0  0.66788  0.37376  0.08688  1.0000
  H   H18       1.0  0.16789  0.62623  0.41312  1.0000
  H   H19       1.0  0.33211  0.62624  0.91313  1.0000
  H   H20       1.0  0.83212  0.37377  0.58687  1.0000
  H   H21       1.0  0.99853  0.18881  0.39297  1.0000
  H   H22       1.0  0.49853  0.81119  0.10703  1.0000
  H   H23       1.0  0.00147  0.81119  0.60703  1.0000
  H   H24       1.0  0.50146  0.18881  0.89297  1.0000
  H   H25       1.0  0.94641  0.17889  0.26195  1.0000
  H   H26       1.0  0.44640  0.82110  0.23805  1.0000
  H   H27       1.0  0.05359  0.82110  0.73805  1.0000
  H   H28       1.0  0.55359  0.17889  0.76195  1.0000
  C   C1        1.0  0.85708  0.57611  0.14743  1.0000
  C   C2        1.0  0.35708  0.42389  0.35257  1.0000
  C   C3        1.0  0.14292  0.42389  0.85257  1.0000
  C   C4        1.0  0.64292  0.57611  0.64743  1.0000
  C   C5        1.0  0.93252  0.45823  0.11488  1.0000
  C   C6        1.0  0.43252  0.54177  0.38512  1.0000
  C   C7        1.0  0.06748  0.54177  0.88512  1.0000
  C   C8        1.0  0.56748  0.45823  0.61487  1.0000
  C   C9        1.0  0.12668  0.44244  0.11474  1.0000
  C   C10       1.0  0.62668  0.55756  0.38526  1.0000
  C   C11       1.0  0.87332  0.55756  0.88526  1.0000
  C   C12       1.0  0.37332  0.44244  0.61474  1.0000
  C   C13       1.0  0.20067  0.32987  0.08459  1.0000
  C   C14       1.0  0.70067  0.67013  0.41541  1.0000
  C   C15       1.0  0.79933  0.67012  0.91541  1.0000
  C   C16       1.0  0.29933  0.32987  0.58459  1.0000
  C   C17       1.0  0.08474  0.23510  0.05802  1.0000
  C   C18       1.0  0.58475  0.76490  0.44198  1.0000
  C   C19       1.0  0.91525  0.76490  0.94198  1.0000
  C   C20       1.0  0.41526  0.23509  0.55802  1.0000
  C   C21       1.0  0.89194  0.25103  0.05914  1.0000
  C   C22       1.0  0.39195  0.74897  0.44087  1.0000
  C   C23       1.0  0.10805  0.74898  0.94087  1.0000
  C   C24       1.0  0.60806  0.25102  0.55913  1.0000
  C   C25       1.0  0.81655  0.36121  0.08626  1.0000
  C   C26       1.0  0.31655  0.63880  0.41374  1.0000
  C   C27       1.0  0.18345  0.63880  0.91374  1.0000
  C   C28       1.0  0.68345  0.36121  0.58626  1.0000
  S   S1        1.0  0.75011  0.12683  0.03508  1.0000
  S   S2        1.0  0.25012  0.87317  0.46492  1.0000
  S   S3        1.0  0.24989  0.87318  0.96492  1.0000
  S   S4        1.0  0.74989  0.12683  0.53508  1.0000
  O   O1        1.0  0.55797  0.16488  0.02426  1.0000
  O   O2        1.0  0.05797  0.83512  0.47575  1.0000
  O   O3        1.0  0.44203  0.83513  0.97575  1.0000
  O   O4        1.0  0.94203  0.16488  0.52426  1.0000
  O   O5        1.0  0.81677  0.04633  0.92995  1.0000
  O   O6        1.0  0.31678  0.95368  0.57005  1.0000
  O   O7        1.0  0.18323  0.95368  0.07005  1.0000
  O   O8        1.0  0.68323  0.04632  0.42995  1.0000
  O   O9        1.0  0.77384  0.08301  0.13913  1.0000
  O   O10       1.0  0.27384  0.91698  0.36086  1.0000
  O   O11       1.0  0.22616  0.91698  0.86086  1.0000
  O   O12       1.0  0.72616  0.08302  0.63914  1.0000
  O   O13       1.0  0.95979  0.66264  0.18143  1.0000
  O   O14       1.0  0.45979  0.33736  0.31858  1.0000
  O   O15       1.0  0.04021  0.33736  0.81857  1.0000
  O   O16       1.0  0.54021  0.66264  0.68142  1.0000
  O   O17       1.0  0.67626  0.58408  0.13860  1.0000
  O   O18       1.0  0.17626  0.41592  0.36141  1.0000
  O   O19       1.0  0.32374  0.41592  0.86141  1.0000
  O   O20       1.0  0.82375  0.58408  0.63859  1.0000
  O   O21       1.0  0.24366  0.53200  0.14199  1.0000
  O   O22       1.0  0.74365  0.46800  0.35801  1.0000
  O   O23       1.0  0.75634  0.46800  0.85801  1.0000
  O   O24       1.0  0.25634  0.53199  0.64199  1.0000
  O   O25       1.0  0.04531  0.20146  0.31897  1.0000
  O   O26       1.0  0.54530  0.79853  0.18103  1.0000
  O   O27       1.0  0.95469  0.79854  0.68103  1.0000
  O   O28       1.0  0.45469  0.20146  0.81897  1.0000
