data_image0
_chemical_formula_structural       Ag4P4H40C40N8O16
_chemical_formula_sum              "Ag4 P4 H40 C40 N8 O16"
_cell_length_a       8.46538
_cell_length_b       8.34702
_cell_length_c       18.729
_cell_angle_alpha    90
_cell_angle_beta     101.507
_cell_angle_gamma    90

_space_group_name_H-M_alt    "P 1"
_space_group_IT_number       1

loop_
  _space_group_symop_operation_xyz
  'x, y, z'

loop_
  _atom_site_type_symbol
  _atom_site_label
  _atom_site_symmetry_multiplicity
  _atom_site_fract_x
  _atom_site_fract_y
  _atom_site_fract_z
  _atom_site_occupancy
  Ag  Ag1       1.0  0.81646  0.04468  0.52235  1.0000
  Ag  Ag2       1.0  0.18355  0.04467  0.97764  1.0000
  Ag  Ag3       1.0  0.18355  0.95532  0.47764  1.0000
  Ag  Ag4       1.0  0.81646  0.95532  0.02236  1.0000
  P   P1        1.0  0.75838  0.49880  0.51554  1.0000
  P   P2        1.0  0.24161  0.49878  0.98446  1.0000
  P   P3        1.0  0.24161  0.50122  0.48445  1.0000
  P   P4        1.0  0.75839  0.50121  0.01555  1.0000
  H   H1        1.0  0.54827  0.49517  0.56917  1.0000
  H   H2        1.0  0.45173  0.49516  0.93083  1.0000
  H   H3        1.0  0.45172  0.50485  0.43082  1.0000
  H   H4        1.0  0.54827  0.50483  0.06918  1.0000
  H   H5        1.0  0.97294  0.64685  0.50866  1.0000
  H   H6        1.0  0.02706  0.64684  0.99134  1.0000
  H   H7        1.0  0.02705  0.35317  0.49133  1.0000
  H   H8        1.0  0.97294  0.35316  0.00867  1.0000
  H   H9        1.0  0.60744  0.77324  0.44060  1.0000
  H   H10       1.0  0.39257  0.77323  0.05940  1.0000
  H   H11       1.0  0.39255  0.22678  0.55940  1.0000
  H   H12       1.0  0.60744  0.22676  0.94060  1.0000
  H   H13       1.0  0.37807  0.74364  0.33962  1.0000
  H   H14       1.0  0.62194  0.74361  0.16037  1.0000
  H   H15       1.0  0.62190  0.25638  0.66039  1.0000
  H   H16       1.0  0.37809  0.25638  0.83962  1.0000
  H   H17       1.0  0.39048  0.25941  0.30959  1.0000
  H   H18       1.0  0.60950  0.25937  0.19042  1.0000
  H   H19       1.0  0.60954  0.74061  0.69040  1.0000
  H   H20       1.0  0.39045  0.74060  0.80960  1.0000
  H   H21       1.0  0.61348  0.26998  0.41474  1.0000
  H   H22       1.0  0.38651  0.26996  0.08527  1.0000
  H   H23       1.0  0.38654  0.73004  0.58526  1.0000
  H   H24       1.0  0.61346  0.73003  0.91474  1.0000
  H   H25       1.0  0.24221  0.72744  0.23525  1.0000
  H   H26       1.0  0.75783  0.72742  0.26474  1.0000
  H   H27       1.0  0.75784  0.27258  0.76474  1.0000
  H   H28       1.0  0.24220  0.27257  0.73525  1.0000
  H   H29       1.0  0.02793  0.72178  0.12254  1.0000
  H   H30       1.0  0.97210  0.72175  0.37746  1.0000
  H   H31       1.0  0.97211  0.27823  0.87746  1.0000
  H   H32       1.0  0.02793  0.27824  0.62254  1.0000
  H   H33       1.0  0.98137  0.21546  0.12164  1.0000
  H   H34       1.0  0.01862  0.21545  0.37836  1.0000
  H   H35       1.0  0.01859  0.78453  0.87837  1.0000
  H   H36       1.0  0.98138  0.78454  0.62163  1.0000
  H   H37       1.0  0.18892  0.24349  0.23462  1.0000
  H   H38       1.0  0.81106  0.24347  0.26539  1.0000
  H   H39       1.0  0.81104  0.75651  0.76540  1.0000
  H   H40       1.0  0.18893  0.75652  0.73461  1.0000
  C   C1        1.0  0.55525  0.87907  0.41086  1.0000
  C   C2        1.0  0.44475  0.87905  0.08914  1.0000
  C   C3        1.0  0.44474  0.12094  0.58914  1.0000
  C   C4        1.0  0.55525  0.12094  0.91086  1.0000
  C   C5        1.0  0.42714  0.86328  0.35205  1.0000
  C   C6        1.0  0.57287  0.86327  0.14795  1.0000
  C   C7        1.0  0.57286  0.13674  0.64796  1.0000
  C   C8        1.0  0.42713  0.13673  0.85204  1.0000
  C   C9        1.0  0.36490  0.99895  0.31175  1.0000
  C   C10       1.0  0.63509  0.99892  0.18825  1.0000
  C   C11       1.0  0.63509  0.00107  0.68825  1.0000
  C   C12       1.0  0.36490  0.00106  0.81175  1.0000
  C   C13       1.0  0.43302  0.14728  0.33620  1.0000
  C   C14       1.0  0.56697  0.14725  0.16381  1.0000
  C   C15       1.0  0.56699  0.85274  0.66379  1.0000
  C   C16       1.0  0.43300  0.85273  0.83620  1.0000
  C   C17       1.0  0.55974  0.15476  0.39577  1.0000
  C   C18       1.0  0.44025  0.15474  0.10424  1.0000
  C   C19       1.0  0.44026  0.84525  0.60423  1.0000
  C   C20       1.0  0.55973  0.84524  0.89577  1.0000
  C   C21       1.0  0.23633  0.98720  0.24594  1.0000
  C   C22       1.0  0.76367  0.98718  0.25407  1.0000
  C   C23       1.0  0.76367  0.01281  0.75406  1.0000
  C   C24       1.0  0.23633  0.01281  0.74593  1.0000
  C   C25       1.0  0.18744  0.83936  0.21300  1.0000
  C   C26       1.0  0.81258  0.83933  0.28700  1.0000
  C   C27       1.0  0.81259  0.16065  0.78700  1.0000
  C   C28       1.0  0.18744  0.16065  0.71300  1.0000
  C   C29       1.0  0.06881  0.83382  0.15012  1.0000
  C   C30       1.0  0.93121  0.83381  0.34987  1.0000
  C   C31       1.0  0.93122  0.16618  0.84987  1.0000
  C   C32       1.0  0.06881  0.16619  0.65012  1.0000
  C   C33       1.0  0.04241  0.11087  0.14929  1.0000
  C   C34       1.0  0.95758  0.11086  0.35071  1.0000
  C   C35       1.0  0.95757  0.88913  0.85071  1.0000
  C   C36       1.0  0.04242  0.88915  0.64929  1.0000
  C   C37       1.0  0.15967  0.12448  0.21216  1.0000
  C   C38       1.0  0.84032  0.12445  0.28785  1.0000
  C   C39       1.0  0.84031  0.87552  0.78785  1.0000
  C   C40       1.0  0.15967  0.87553  0.71215  1.0000
  N   N1        1.0  0.62196  0.02242  0.43230  1.0000
  N   N2        1.0  0.37804  0.02241  0.06770  1.0000
  N   N3        1.0  0.37805  0.97758  0.56769  1.0000
  N   N4        1.0  0.62195  0.97758  0.93231  1.0000
  N   N5        1.0  0.99752  0.96760  0.11850  1.0000
  N   N6        1.0  0.00248  0.96758  0.38151  1.0000
  N   N7        1.0  0.00248  0.03240  0.88151  1.0000
  N   N8        1.0  0.99753  0.03241  0.61849  1.0000
  O   O1        1.0  0.87102  0.35439  0.51889  1.0000
  O   O2        1.0  0.12897  0.35437  0.98111  1.0000
  O   O3        1.0  0.12899  0.64563  0.48111  1.0000
  O   O4        1.0  0.87101  0.64562  0.01889  1.0000
  O   O5        1.0  0.67340  0.49747  0.58388  1.0000
  O   O6        1.0  0.32660  0.49745  0.91612  1.0000
  O   O7        1.0  0.32660  0.50256  0.41611  1.0000
  O   O8        1.0  0.67340  0.50254  0.08389  1.0000
  O   O9        1.0  0.86589  0.65737  0.52734  1.0000
  O   O10       1.0  0.13411  0.65736  0.97266  1.0000
  O   O11       1.0  0.13410  0.34265  0.47265  1.0000
  O   O12       1.0  0.86590  0.34264  0.02735  1.0000
  O   O13       1.0  0.63196  0.51194  0.44536  1.0000
  O   O14       1.0  0.36804  0.51191  0.05464  1.0000
  O   O15       1.0  0.36804  0.48806  0.55463  1.0000
  O   O16       1.0  0.63196  0.48805  0.94537  1.0000
