data_image0
_chemical_formula_structural       Cd2H32C52S4N16
_chemical_formula_sum              "Cd2 H32 C52 S4 N16"
_cell_length_a       9.22989
_cell_length_b       9.78019
_cell_length_c       15.1047
_cell_angle_alpha    103.989
_cell_angle_beta     106.032
_cell_angle_gamma    97.9077

_space_group_name_H-M_alt    "P 1"
_space_group_IT_number       1

loop_
  _space_group_symop_operation_xyz
  'x, y, z'

loop_
  _atom_site_type_symbol
  _atom_site_label
  _atom_site_symmetry_multiplicity
  _atom_site_fract_x
  _atom_site_fract_y
  _atom_site_fract_z
  _atom_site_occupancy
  Cd  Cd1       1.0  0.00774  0.73633  0.28278  1.0000
  Cd  Cd2       1.0  0.99226  0.26367  0.71722  1.0000
  H   H1        1.0  0.41498  0.00462  0.64954  1.0000
  H   H2        1.0  0.58502  0.99538  0.35046  1.0000
  H   H3        1.0  0.64150  0.90839  0.62936  1.0000
  H   H4        1.0  0.35850  0.09160  0.37064  1.0000
  H   H5        1.0  0.61195  0.72321  0.47123  1.0000
  H   H6        1.0  0.38805  0.27679  0.52878  1.0000
  H   H7        1.0  0.36042  0.65840  0.34009  1.0000
  H   H8        1.0  0.63958  0.34160  0.65991  1.0000
  H   H9        1.0  0.79841  0.24210  0.35834  1.0000
  H   H10       1.0  0.20159  0.75790  0.64166  1.0000
  H   H11       1.0  0.70999  0.25534  0.19103  1.0000
  H   H12       1.0  0.29001  0.74465  0.80897  1.0000
  H   H13       1.0  0.72555  0.05293  0.05567  1.0000
  H   H14       1.0  0.27445  0.94707  0.94433  1.0000
  H   H15       1.0  0.83071  0.84423  0.09857  1.0000
  H   H16       1.0  0.16929  0.15577  0.90143  1.0000
  H   H17       1.0  0.14728  0.22161  0.09559  1.0000
  H   H18       1.0  0.85272  0.77839  0.90441  1.0000
  H   H19       1.0  0.22772  0.14132  0.24255  1.0000
  H   H20       1.0  0.77228  0.85868  0.75745  1.0000
  H   H21       1.0  0.19414  0.28979  0.39682  1.0000
  H   H22       1.0  0.80586  0.71021  0.60318  1.0000
  H   H23       1.0  0.08505  0.50718  0.39292  1.0000
  H   H24       1.0  0.91495  0.49283  0.60708  1.0000
  H   H25       1.0  0.63281  0.28366  0.97661  1.0000
  H   H26       1.0  0.36719  0.71634  0.02339  1.0000
  H   H27       1.0  0.40415  0.27982  0.03587  1.0000
  H   H28       1.0  0.59585  0.72018  0.96413  1.0000
  H   H29       1.0  0.40765  0.48898  0.17113  1.0000
  H   H30       1.0  0.59235  0.51102  0.82887  1.0000
  H   H31       1.0  0.64642  0.68760  0.24789  1.0000
  H   H32       1.0  0.35357  0.31240  0.75211  1.0000
  C   C1        1.0  0.12911  0.94386  0.50706  1.0000
  C   C2        1.0  0.87089  0.05614  0.49294  1.0000
  C   C3        1.0  0.92641  0.01997  0.41386  1.0000
  C   C4        1.0  0.07359  0.98003  0.58614  1.0000
  C   C5        1.0  0.26718  0.88312  0.50434  1.0000
  C   C6        1.0  0.73282  0.11688  0.49566  1.0000
  C   C7        1.0  0.40514  0.92720  0.58170  1.0000
  C   C8        1.0  0.59486  0.07280  0.41830  1.0000
  C   C9        1.0  0.53238  0.87207  0.57048  1.0000
  C   C10       1.0  0.46762  0.12792  0.42952  1.0000
  C   C11       1.0  0.51795  0.77312  0.48333  1.0000
  C   C12       1.0  0.48205  0.22688  0.51667  1.0000
  C   C13       1.0  0.37659  0.73533  0.40960  1.0000
  C   C14       1.0  0.62341  0.26467  0.59040  1.0000
  C   C15       1.0  0.85976  0.03475  0.31608  1.0000
  C   C16       1.0  0.14024  0.96525  0.68392  1.0000
  C   C17       1.0  0.80299  0.15457  0.29938  1.0000
  C   C18       1.0  0.19701  0.84543  0.70062  1.0000
  C   C19       1.0  0.75376  0.16214  0.20510  1.0000
  C   C20       1.0  0.24624  0.83786  0.79490  1.0000
  C   C21       1.0  0.76238  0.05068  0.13044  1.0000
  C   C22       1.0  0.23762  0.94932  0.86956  1.0000
  C   C23       1.0  0.82065  0.93482  0.15360  1.0000
  C   C24       1.0  0.17934  0.06518  0.84640  1.0000
  C   C25       1.0  0.03077  0.45500  0.07996  1.0000
  C   C26       1.0  0.96922  0.54500  0.92004  1.0000
  C   C27       1.0  0.89133  0.49719  0.04446  1.0000
  C   C28       1.0  0.10867  0.50281  0.95554  1.0000
  C   C29       1.0  0.07286  0.40473  0.16689  1.0000
  C   C30       1.0  0.92714  0.59527  0.83311  1.0000
  C   C31       1.0  0.13468  0.28137  0.16293  1.0000
  C   C32       1.0  0.86533  0.71864  0.83707  1.0000
  C   C33       1.0  0.17890  0.23702  0.24548  1.0000
  C   C34       1.0  0.82110  0.76298  0.75452  1.0000
  C   C35       1.0  0.16059  0.31787  0.32968  1.0000
  C   C36       1.0  0.83941  0.68213  0.67032  1.0000
  C   C37       1.0  0.09881  0.43984  0.32805  1.0000
  C   C38       1.0  0.90119  0.56016  0.67195  1.0000
  C   C39       1.0  0.75955  0.48663  0.08384  1.0000
  C   C40       1.0  0.24045  0.51337  0.91616  1.0000
  C   C41       1.0  0.63209  0.37064  0.03740  1.0000
  C   C42       1.0  0.36791  0.62936  0.96260  1.0000
  C   C43       1.0  0.50490  0.36915  0.07017  1.0000
  C   C44       1.0  0.49510  0.63085  0.92983  1.0000
  C   C45       1.0  0.50689  0.48457  0.14593  1.0000
  C   C46       1.0  0.49310  0.51543  0.85407  1.0000
  C   C47       1.0  0.63856  0.59543  0.18799  1.0000
  C   C48       1.0  0.36144  0.40457  0.81202  1.0000
  C   C49       1.0  0.24610  0.86104  0.17338  1.0000
  C   C50       1.0  0.75390  0.13896  0.82662  1.0000
  C   C51       1.0  0.79822  0.57778  0.39639  1.0000
  C   C52       1.0  0.20178  0.42222  0.60361  1.0000
  S   S1        1.0  0.38572  0.95519  0.15303  1.0000
  S   S2        1.0  0.61428  0.04481  0.84697  1.0000
  S   S3        1.0  0.66897  0.45983  0.40774  1.0000
  S   S4        1.0  0.33103  0.54018  0.59226  1.0000
  N   N1        1.0  0.05319  0.96554  0.42415  1.0000
  N   N2        1.0  0.94681  0.03446  0.57585  1.0000
  N   N3        1.0  0.25448  0.78965  0.41901  1.0000
  N   N4        1.0  0.74552  0.21035  0.58099  1.0000
  N   N5        1.0  0.86858  0.92706  0.24395  1.0000
  N   N6        1.0  0.13142  0.07294  0.75605  1.0000
  N   N7        1.0  0.05551  0.48331  0.24869  1.0000
  N   N8        1.0  0.94449  0.51669  0.75131  1.0000
  N   N9        1.0  0.76381  0.59576  0.15904  1.0000
  N   N10       1.0  0.23619  0.40424  0.84096  1.0000
  N   N11       1.0  0.86387  0.54267  0.96597  1.0000
  N   N12       1.0  0.13613  0.45733  0.03403  1.0000
  N   N13       1.0  0.14400  0.79190  0.18837  1.0000
  N   N14       1.0  0.85600  0.20810  0.81163  1.0000
  N   N15       1.0  0.89209  0.66705  0.38868  1.0000
  N   N16       1.0  0.10792  0.33296  0.61132  1.0000
