data_image0
_chemical_formula_structural       Cd4H32C52S4N20O12
_chemical_formula_sum              "Cd4 H32 C52 S4 N20 O12"
_cell_length_a       6.83416
_cell_length_b       10.6421
_cell_length_c       20.3073
_cell_angle_alpha    90
_cell_angle_beta     90
_cell_angle_gamma    100.523

_space_group_name_H-M_alt    "P 1"
_space_group_IT_number       1

loop_
  _space_group_symop_operation_xyz
  'x, y, z'

loop_
  _atom_site_type_symbol
  _atom_site_label
  _atom_site_symmetry_multiplicity
  _atom_site_fract_x
  _atom_site_fract_y
  _atom_site_fract_z
  _atom_site_occupancy
  Cd  Cd1       1.0  0.22567  0.27655  0.90090  1.0000
  Cd  Cd2       1.0  0.27431  0.22345  0.40090  1.0000
  Cd  Cd3       1.0  0.77433  0.72345  0.09910  1.0000
  Cd  Cd4       1.0  0.72568  0.77655  0.59910  1.0000
  H   H1        1.0  0.57072  0.10296  0.11520  1.0000
  H   H2        1.0  0.92928  0.39704  0.61520  1.0000
  H   H3        1.0  0.42927  0.89704  0.88480  1.0000
  H   H4        1.0  0.07072  0.60296  0.38480  1.0000
  H   H5        1.0  0.11869  0.74872  0.73454  1.0000
  H   H6        1.0  0.38131  0.75128  0.23454  1.0000
  H   H7        1.0  0.88130  0.25128  0.26546  1.0000
  H   H8        1.0  0.61869  0.24872  0.76546  1.0000
  H   H9        1.0  0.25162  0.36861  0.74977  1.0000
  H   H10       1.0  0.24838  0.13139  0.24977  1.0000
  H   H11       1.0  0.74839  0.63139  0.25023  1.0000
  H   H12       1.0  0.75162  0.86861  0.75023  1.0000
  H   H13       1.0  0.31641  0.43984  0.15116  1.0000
  H   H14       1.0  0.18359  0.06016  0.65115  1.0000
  H   H15       1.0  0.68359  0.56016  0.84884  1.0000
  H   H16       1.0  0.81641  0.93984  0.34884  1.0000
  H   H17       1.0  0.03263  0.73633  0.85311  1.0000
  H   H18       1.0  0.46738  0.76367  0.35311  1.0000
  H   H19       1.0  0.96737  0.26367  0.14689  1.0000
  H   H20       1.0  0.53263  0.23633  0.64689  1.0000
  H   H21       1.0  0.51620  0.28326  0.19069  1.0000
  H   H22       1.0  0.98380  0.21674  0.69069  1.0000
  H   H23       1.0  0.48380  0.71674  0.80931  1.0000
  H   H24       1.0  0.01621  0.78326  0.30931  1.0000
  H   H25       1.0  0.41802  0.09224  0.00272  1.0000
  H   H26       1.0  0.08197  0.40776  0.50273  1.0000
  H   H27       1.0  0.58197  0.90776  0.99728  1.0000
  H   H28       1.0  0.91803  0.59224  0.49728  1.0000
  H   H29       1.0  0.22673  0.56018  0.68011  1.0000
  H   H30       1.0  0.27327  0.93981  0.18011  1.0000
  H   H31       1.0  0.77327  0.43982  0.31989  1.0000
  H   H32       1.0  0.72673  0.06018  0.81989  1.0000
  C   C1        1.0  0.02893  0.52279  0.93377  1.0000
  C   C2        1.0  0.47107  0.97721  0.43377  1.0000
  C   C3        1.0  0.97107  0.47721  0.06623  1.0000
  C   C4        1.0  0.52894  0.02280  0.56623  1.0000
  C   C5        1.0  0.11661  0.42588  0.03080  1.0000
  C   C6        1.0  0.38339  0.07412  0.53080  1.0000
  C   C7        1.0  0.88338  0.57412  0.96920  1.0000
  C   C8        1.0  0.61662  0.92588  0.46920  1.0000
  C   C9        1.0  0.48113  0.17307  0.10033  1.0000
  C   C10       1.0  0.01887  0.32692  0.60033  1.0000
  C   C11       1.0  0.51886  0.82693  0.89967  1.0000
  C   C12       1.0  0.98114  0.67308  0.39967  1.0000
  C   C13       1.0  0.12303  0.66139  0.76188  1.0000
  C   C14       1.0  0.37697  0.83861  0.26188  1.0000
  C   C15       1.0  0.87697  0.33861  0.23812  1.0000
  C   C16       1.0  0.62303  0.16139  0.73812  1.0000
  C   C17       1.0  0.07938  0.54101  0.86280  1.0000
  C   C18       1.0  0.42061  0.95899  0.36280  1.0000
  C   C19       1.0  0.92061  0.45899  0.13720  1.0000
  C   C20       1.0  0.57939  0.04101  0.63720  1.0000
  C   C21       1.0  0.19722  0.45053  0.77009  1.0000
  C   C22       1.0  0.30277  0.04947  0.27009  1.0000
  C   C23       1.0  0.80278  0.54947  0.22991  1.0000
  C   C24       1.0  0.69723  0.95053  0.72991  1.0000
  C   C25       1.0  0.33697  0.36006  0.11996  1.0000
  C   C26       1.0  0.16303  0.13994  0.61996  1.0000
  C   C27       1.0  0.66302  0.63994  0.88004  1.0000
  C   C28       1.0  0.83698  0.86006  0.38004  1.0000
  C   C29       1.0  0.07192  0.65375  0.82840  1.0000
  C   C30       1.0  0.42808  0.84625  0.32840  1.0000
  C   C31       1.0  0.92808  0.34625  0.17160  1.0000
  C   C32       1.0  0.57192  0.15376  0.67160  1.0000
  C   C33       1.0  0.25038  0.34310  0.05752  1.0000
  C   C34       1.0  0.24961  0.15690  0.55752  1.0000
  C   C35       1.0  0.74961  0.65690  0.94248  1.0000
  C   C36       1.0  0.75039  0.84310  0.44248  1.0000
  C   C37       1.0  0.45189  0.27264  0.14159  1.0000
  C   C38       1.0  0.04811  0.22736  0.64159  1.0000
  C   C39       1.0  0.54810  0.72736  0.85841  1.0000
  C   C40       1.0  0.95190  0.77264  0.35841  1.0000
  C   C41       1.0  0.39686  0.16643  0.03758  1.0000
  C   C42       1.0  0.10313  0.33357  0.53758  1.0000
  C   C43       1.0  0.60313  0.83357  0.96242  1.0000
  C   C44       1.0  0.89687  0.66643  0.46243  1.0000
  C   C45       1.0  0.18422  0.55751  0.73185  1.0000
  C   C46       1.0  0.31577  0.94249  0.23185  1.0000
  C   C47       1.0  0.81578  0.44249  0.26815  1.0000
  C   C48       1.0  0.68423  0.05751  0.76815  1.0000
  C   C49       1.0  0.68402  0.24850  0.91097  1.0000
  C   C50       1.0  0.81596  0.25150  0.41097  1.0000
  C   C51       1.0  0.31597  0.75149  0.08904  1.0000
  C   C52       1.0  0.18403  0.74851  0.58903  1.0000
  S   S1        1.0  0.83842  0.16287  0.94013  1.0000
  S   S2        1.0  0.66157  0.33713  0.44013  1.0000
  S   S3        1.0  0.16159  0.83712  0.05987  1.0000
  S   S4        1.0  0.33843  0.66288  0.55987  1.0000
  N   N1        1.0  0.13745  0.45023  0.96632  1.0000
  N   N2        1.0  0.36255  0.04977  0.46632  1.0000
  N   N3        1.0  0.86255  0.54977  0.03368  1.0000
  N   N4        1.0  0.63745  0.95023  0.53368  1.0000
  N   N5        1.0  0.14597  0.44237  0.83381  1.0000
  N   N6        1.0  0.35403  0.05763  0.33380  1.0000
  N   N7        1.0  0.85403  0.55763  0.16619  1.0000
  N   N8        1.0  0.64598  0.94238  0.66619  1.0000
  N   N9        1.0  0.28546  0.24957  0.01647  1.0000
  N   N10       1.0  0.21453  0.25043  0.51647  1.0000
  N   N11       1.0  0.71453  0.75043  0.98353  1.0000
  N   N12       1.0  0.78547  0.74957  0.48353  1.0000
  N   N13       1.0  0.56651  0.30858  0.89044  1.0000
  N   N14       1.0  0.93348  0.19142  0.39044  1.0000
  N   N15       1.0  0.43349  0.69141  0.10957  1.0000
  N   N16       1.0  0.06652  0.80858  0.60956  1.0000
  N   N17       1.0  0.18952  0.05076  0.81925  1.0000
  N   N18       1.0  0.31048  0.44924  0.31925  1.0000
  N   N19       1.0  0.81048  0.94924  0.18075  1.0000
  N   N20       1.0  0.68952  0.55076  0.68075  1.0000
  O   O1        1.0  0.22918  0.04099  0.88048  1.0000
  O   O2        1.0  0.27081  0.45901  0.38048  1.0000
  O   O3        1.0  0.77082  0.95901  0.11952  1.0000
  O   O4        1.0  0.72919  0.54099  0.61952  1.0000
  O   O5        1.0  0.17161  0.16150  0.79738  1.0000
  O   O6        1.0  0.32839  0.33850  0.29738  1.0000
  O   O7        1.0  0.82840  0.83850  0.20262  1.0000
  O   O8        1.0  0.67160  0.66150  0.70262  1.0000
  O   O9        1.0  0.16839  0.95667  0.78170  1.0000
  O   O10       1.0  0.33161  0.54333  0.28170  1.0000
  O   O11       1.0  0.83161  0.04333  0.21830  1.0000
  O   O12       1.0  0.66839  0.45667  0.71830  1.0000
