data_image0
_chemical_formula_structural       Ag2Mo4H14C22N12O16
_chemical_formula_sum              "Ag2 Mo4 H14 C22 N12 O16"
_cell_length_a       7.25768
_cell_length_b       11.4524
_cell_length_c       11.7766
_cell_angle_alpha    119.093
_cell_angle_beta     98.8839
_cell_angle_gamma    90.0002

_space_group_name_H-M_alt    "P 1"
_space_group_IT_number       1

loop_
  _space_group_symop_operation_xyz
  'x, y, z'

loop_
  _atom_site_type_symbol
  _atom_site_label
  _atom_site_symmetry_multiplicity
  _atom_site_fract_x
  _atom_site_fract_y
  _atom_site_fract_z
  _atom_site_occupancy
  Ag  Ag1       1.0  1.00000  0.50000  0.50000  1.0000
  Ag  Ag2       1.0  0.50000  1.00000  0.50000  1.0000
  Mo  Mo1       1.0  0.41258  0.09454  0.14924  1.0000
  Mo  Mo2       1.0  0.08742  0.94530  0.85075  1.0000
  Mo  Mo3       1.0  0.58742  0.90546  0.85076  1.0000
  Mo  Mo4       1.0  0.91258  0.05470  0.14925  1.0000
  H   H1        1.0  0.28300  0.74125  0.21236  1.0000
  H   H2        1.0  0.21700  0.52889  0.78764  1.0000
  H   H3        1.0  0.71700  0.25875  0.78764  1.0000
  H   H4        1.0  0.78300  0.47111  0.21236  1.0000
  H   H5        1.0  0.08474  0.36823  0.20105  1.0000
  H   H6        1.0  0.41526  0.16717  0.79895  1.0000
  H   H7        1.0  0.91526  0.63177  0.79895  1.0000
  H   H8        1.0  0.58474  0.83283  0.20105  1.0000
  H   H9        1.0  0.39928  0.68333  0.55153  1.0000
  H   H10       1.0  0.10072  0.13179  0.44847  1.0000
  H   H11       1.0  0.60072  0.31668  0.44847  1.0000
  H   H12       1.0  0.89928  0.86821  0.55153  1.0000
  H   H13       1.0  0.25000  0.30820  1.00000  1.0000
  H   H14       1.0  0.75000  0.69180  0.00000  1.0000
  C   C1        1.0  0.27187  0.64806  0.11920  1.0000
  C   C2        1.0  0.22813  0.52886  0.88080  1.0000
  C   C3        1.0  0.72813  0.35194  0.88080  1.0000
  C   C4        1.0  0.77187  0.47114  0.11920  1.0000
  C   C5        1.0  0.25000  0.77933  1.00000  1.0000
  C   C6        1.0  0.75000  0.22067  1.00000  1.0000
  C   C7        1.0  0.18134  0.45484  0.27166  1.0000
  C   C8        1.0  0.31866  0.18317  0.72833  1.0000
  C   C9        1.0  0.81866  0.54516  0.72834  1.0000
  C   C10       1.0  0.68134  0.81683  0.27166  1.0000
  C   C11       1.0  0.34147  0.61662  0.44825  1.0000
  C   C12       1.0  0.15853  0.16837  0.55175  1.0000
  C   C13       1.0  0.65853  0.38338  0.55175  1.0000
  C   C14       1.0  0.84147  0.83163  0.44825  1.0000
  C   C15       1.0  0.25000  0.64900  0.00000  1.0000
  C   C16       1.0  0.75000  0.35100  0.00000  1.0000
  C   C17       1.0  0.27181  0.52557  0.11766  1.0000
  C   C18       1.0  0.22819  0.40790  0.88234  1.0000
  C   C19       1.0  0.72819  0.47443  0.88234  1.0000
  C   C20       1.0  0.77181  0.59210  0.11766  1.0000
  C   C21       1.0  0.25000  0.40329  1.00000  1.0000
  C   C22       1.0  0.75000  0.59671  0.00000  1.0000
  N   N1        1.0  0.21305  0.50853  0.40294  1.0000
  N   N2        1.0  0.28695  0.10559  0.59706  1.0000
  N   N3        1.0  0.78695  0.49147  0.59706  1.0000
  N   N4        1.0  0.71304  0.89441  0.40294  1.0000
  N   N5        1.0  0.38839  0.63298  0.35253  1.0000
  N   N6        1.0  0.11161  0.28045  0.64747  1.0000
  N   N7        1.0  0.61161  0.36702  0.64747  1.0000
  N   N8        1.0  0.88839  0.71955  0.35253  1.0000
  N   N9        1.0  0.28476  0.52943  0.24078  1.0000
  N   N10       1.0  0.21524  0.28865  0.75922  1.0000
  N   N11       1.0  0.71524  0.47057  0.75922  1.0000
  N   N12       1.0  0.78476  0.71135  0.24078  1.0000
  O   O1        1.0  0.64316  0.01819  0.08955  1.0000
  O   O2        1.0  0.85683  0.92864  0.91045  1.0000
  O   O3        1.0  0.35684  0.98180  0.91045  1.0000
  O   O4        1.0  0.14316  0.07135  0.08955  1.0000
  O   O5        1.0  0.43970  0.12741  0.30921  1.0000
  O   O6        1.0  0.06030  0.81819  0.69079  1.0000
  O   O7        1.0  0.56030  0.87260  0.69079  1.0000
  O   O8        1.0  0.93970  0.18181  0.30921  1.0000
  O   O9        1.0  0.35718  0.87634  0.09479  1.0000
  O   O10       1.0  0.14282  0.78155  0.90521  1.0000
  O   O11       1.0  0.64283  0.12366  0.90521  1.0000
  O   O12       1.0  0.85718  0.21845  0.09479  1.0000
  O   O13       1.0  0.45422  0.24910  0.16319  1.0000
  O   O14       1.0  0.04578  0.08591  0.83681  1.0000
  O   O15       1.0  0.54577  0.75090  0.83681  1.0000
  O   O16       1.0  0.95422  0.91409  0.16320  1.0000
