data_image0
_chemical_formula_structural       Cd2P4H40C28S8N4O8
_chemical_formula_sum              "Cd2 P4 H40 C28 S8 N4 O8"
_cell_length_a       10.2748
_cell_length_b       10.7086
_cell_length_c       12.5518
_cell_angle_alpha    77.8927
_cell_angle_beta     66.7718
_cell_angle_gamma    63.4515

_space_group_name_H-M_alt    "P 1"
_space_group_IT_number       1

loop_
  _space_group_symop_operation_xyz
  'x, y, z'

loop_
  _atom_site_type_symbol
  _atom_site_label
  _atom_site_symmetry_multiplicity
  _atom_site_fract_x
  _atom_site_fract_y
  _atom_site_fract_z
  _atom_site_occupancy
  Cd  Cd1       1.0  0.68081  0.76577  0.75552  1.0000
  Cd  Cd2       1.0  0.31919  0.23423  0.24448  1.0000
  P   P1        1.0  0.68162  0.06792  0.71924  1.0000
  P   P2        1.0  0.31838  0.93208  0.28076  1.0000
  P   P3        1.0  0.97307  0.48921  0.77285  1.0000
  P   P4        1.0  0.02693  0.51079  0.22715  1.0000
  H   H1        1.0  0.43560  0.84725  0.62553  1.0000
  H   H2        1.0  0.56440  0.15275  0.37447  1.0000
  H   H3        1.0  0.35216  0.74598  0.51897  1.0000
  H   H4        1.0  0.64783  0.25402  0.48103  1.0000
  H   H5        1.0  0.70907  0.34376  0.56549  1.0000
  H   H6        1.0  0.29093  0.65624  0.43451  1.0000
  H   H7        1.0  0.77432  0.46271  0.67157  1.0000
  H   H8        1.0  0.22568  0.53730  0.32843  1.0000
  H   H9        1.0  0.38537  0.05977  0.79893  1.0000
  H   H10       1.0  0.61463  0.94023  0.20108  1.0000
  H   H11       1.0  0.10129  0.16612  0.88909  1.0000
  H   H12       1.0  0.89871  0.83388  0.11091  1.0000
  H   H13       1.0  0.12823  0.75461  0.03818  1.0000
  H   H14       1.0  0.87177  0.24539  0.96182  1.0000
  H   H15       1.0  0.40904  0.66602  0.93610  1.0000
  H   H16       1.0  0.59096  0.33398  0.06391  1.0000
  H   H17       1.0  0.04584  0.08894  0.60115  1.0000
  H   H18       1.0  0.95416  0.91107  0.39885  1.0000
  H   H19       1.0  0.00757  0.94281  0.59709  1.0000
  H   H20       1.0  0.99243  0.05719  0.40291  1.0000
  H   H21       1.0  0.98877  0.98989  0.73317  1.0000
  H   H22       1.0  0.01123  0.01011  0.26683  1.0000
  H   H23       1.0  0.38311  0.38239  0.84814  1.0000
  H   H24       1.0  0.61689  0.61761  0.15186  1.0000
  H   H25       1.0  0.58094  0.31983  0.84008  1.0000
  H   H26       1.0  0.41907  0.68017  0.15992  1.0000
  H   H27       1.0  0.46475  0.22468  0.92699  1.0000
  H   H28       1.0  0.53526  0.77532  0.07301  1.0000
  H   H29       1.0  0.16291  0.57098  0.91122  1.0000
  H   H30       1.0  0.83709  0.42902  0.08878  1.0000
  H   H31       1.0  0.96133  0.65719  0.92929  1.0000
  H   H32       1.0  0.03867  0.34281  0.07071  1.0000
  H   H33       1.0  0.10233  0.67166  0.79112  1.0000
  H   H34       1.0  0.89767  0.32834  0.20888  1.0000
  H   H35       1.0  0.20946  0.16477  0.63796  1.0000
  H   H36       1.0  0.79055  0.83523  0.36204  1.0000
  H   H37       1.0  0.28254  0.27744  0.66058  1.0000
  H   H38       1.0  0.71746  0.72256  0.33942  1.0000
  H   H39       1.0  0.17375  0.33286  0.56355  1.0000
  H   H40       1.0  0.82625  0.66715  0.43645  1.0000
  C   C1        1.0  0.49140  0.73518  0.61193  1.0000
  C   C2        1.0  0.50860  0.26482  0.38807  1.0000
  C   C3        1.0  0.44520  0.67703  0.55184  1.0000
  C   C4        1.0  0.55479  0.32297  0.44817  1.0000
  C   C5        1.0  0.52179  0.53313  0.53244  1.0000
  C   C6        1.0  0.47821  0.46688  0.46756  1.0000
  C   C7        1.0  0.64291  0.45540  0.57637  1.0000
  C   C8        1.0  0.35709  0.54461  0.42363  1.0000
  C   C9        1.0  0.68090  0.52138  0.63651  1.0000
  C   C10       1.0  0.31910  0.47862  0.36349  1.0000
  C   C11       1.0  0.32308  0.99578  0.85216  1.0000
  C   C12       1.0  0.67692  0.00422  0.14784  1.0000
  C   C13       1.0  0.16305  0.05484  0.90395  1.0000
  C   C14       1.0  0.83694  0.94516  0.09606  1.0000
  C   C15       1.0  0.08528  0.97051  0.97213  1.0000
  C   C16       1.0  0.91472  0.02949  0.02788  1.0000
  C   C17       1.0  0.17708  0.82806  0.98505  1.0000
  C   C18       1.0  0.82292  0.17195  0.01495  1.0000
  C   C19       1.0  0.33648  0.77701  0.92871  1.0000
  C   C20       1.0  0.66351  0.22299  0.07129  1.0000
  C   C21       1.0  0.97459  0.03026  0.64865  1.0000
  C   C22       1.0  0.02542  0.96974  0.35135  1.0000
  C   C23       1.0  0.48852  0.28959  0.84751  1.0000
  C   C24       1.0  0.51148  0.71041  0.15249  1.0000
  C   C25       1.0  0.07827  0.60304  0.86789  1.0000
  C   C26       1.0  0.92173  0.39696  0.13211  1.0000
  C   C27       1.0  0.18720  0.27352  0.64399  1.0000
  C   C28       1.0  0.81280  0.72648  0.35601  1.0000
  S   S1        1.0  0.70448  0.94701  0.86032  1.0000
  S   S2        1.0  0.29552  0.05298  0.13968  1.0000
  S   S3        1.0  0.66664  0.98565  0.59808  1.0000
  S   S4        1.0  0.33336  0.01435  0.40192  1.0000
  S   S5        1.0  0.76075  0.52940  0.89007  1.0000
  S   S6        1.0  0.23925  0.47060  0.10993  1.0000
  S   S7        1.0  0.98438  0.62048  0.63492  1.0000
  S   S8        1.0  0.01562  0.37952  0.36508  1.0000
  N   N1        1.0  0.60664  0.65900  0.65453  1.0000
  N   N2        1.0  0.39336  0.34100  0.34547  1.0000
  N   N3        1.0  0.40923  0.85875  0.86280  1.0000
  N   N4        1.0  0.59077  0.14125  0.13720  1.0000
  O   O1        1.0  0.81582  0.12747  0.66546  1.0000
  O   O2        1.0  0.18418  0.87253  0.33454  1.0000
  O   O3        1.0  0.53129  0.21406  0.74737  1.0000
  O   O4        1.0  0.46871  0.78593  0.25263  1.0000
  O   O5        1.0  0.09207  0.47554  0.83354  1.0000
  O   O6        1.0  0.90793  0.52446  0.16646  1.0000
  O   O7        1.0  0.04252  0.32884  0.73995  1.0000
  O   O8        1.0  0.95749  0.67116  0.26005  1.0000
