data_image0
_chemical_formula_structural       Nd4H28C24O32
_chemical_formula_sum              "Nd4 H28 C24 O32"
_cell_length_a       8.6861
_cell_length_b       9.32739
_cell_length_c       12.8119
_cell_angle_alpha    75.4059
_cell_angle_beta     70.2182
_cell_angle_gamma    62.2223

_space_group_name_H-M_alt    "P 1"
_space_group_IT_number       1

loop_
  _space_group_symop_operation_xyz
  'x, y, z'

loop_
  _atom_site_type_symbol
  _atom_site_label
  _atom_site_symmetry_multiplicity
  _atom_site_fract_x
  _atom_site_fract_y
  _atom_site_fract_z
  _atom_site_occupancy
  Nd  Nd1       1.0  0.00134  0.00090  0.82991  1.0000
  Nd  Nd2       1.0  0.83236  0.49896  0.66995  1.0000
  Nd  Nd3       1.0  0.99866  0.99910  0.17009  1.0000
  Nd  Nd4       1.0  0.16765  0.50104  0.33005  1.0000
  H   H1        1.0  0.67361  0.02535  0.45799  1.0000
  H   H2        1.0  0.15757  0.47462  0.04203  1.0000
  H   H3        1.0  0.32639  0.97465  0.54201  1.0000
  H   H4        1.0  0.84242  0.52538  0.95797  1.0000
  H   H5        1.0  0.83694  0.03070  0.50662  1.0000
  H   H6        1.0  0.37477  0.46934  0.99364  1.0000
  H   H7        1.0  0.16305  0.96931  0.49338  1.0000
  H   H8        1.0  0.62523  0.53066  0.00636  1.0000
  H   H9        1.0  0.41938  0.12565  0.61528  1.0000
  H   H10       1.0  0.16051  0.37436  0.88491  1.0000
  H   H11       1.0  0.58062  0.87435  0.38472  1.0000
  H   H12       1.0  0.83949  0.62564  0.11509  1.0000
  H   H13       1.0  0.55826  0.15949  0.67199  1.0000
  H   H14       1.0  0.39006  0.34010  0.82827  1.0000
  H   H15       1.0  0.44173  0.84051  0.32801  1.0000
  H   H16       1.0  0.60994  0.65990  0.17173  1.0000
  H   H17       1.0  0.49094  0.81156  0.67829  1.0000
  H   H18       1.0  0.98115  0.68815  0.82172  1.0000
  H   H19       1.0  0.50906  0.18844  0.32171  1.0000
  H   H20       1.0  0.01885  0.31185  0.17828  1.0000
  H   H21       1.0  0.63536  0.04844  0.00700  1.0000
  H   H22       1.0  0.69075  0.45163  0.49281  1.0000
  H   H23       1.0  0.36464  0.95156  0.99300  1.0000
  H   H24       1.0  0.30925  0.54837  0.50719  1.0000
  H   H25       1.0  0.62727  0.01364  0.89351  1.0000
  H   H26       1.0  0.53456  0.48622  0.60641  1.0000
  H   H27       1.0  0.37273  0.98636  0.10649  1.0000
  H   H28       1.0  0.46544  0.51378  0.39359  1.0000
  C   C1        1.0  0.91158  0.80422  0.45173  1.0000
  C   C2        1.0  0.16753  0.69587  0.04839  1.0000
  C   C3        1.0  0.08842  0.19578  0.54827  1.0000
  C   C4        1.0  0.83247  0.30413  0.95161  1.0000
  C   C5        1.0  0.77064  0.95377  0.50885  1.0000
  C   C6        1.0  0.23377  0.54622  0.99127  1.0000
  C   C7        1.0  0.22936  0.04623  0.49115  1.0000
  C   C8        1.0  0.76624  0.45378  0.00873  1.0000
  C   C9        1.0  0.67068  0.91683  0.62945  1.0000
  C   C10       1.0  0.21745  0.58295  0.87061  1.0000
  C   C11       1.0  0.32932  0.08317  0.37055  1.0000
  C   C12       1.0  0.78255  0.41705  0.12939  1.0000
  C   C13       1.0  0.50703  0.07133  0.67232  1.0000
  C   C14       1.0  0.25100  0.42842  0.82788  1.0000
  C   C15       1.0  0.49297  0.92867  0.32767  1.0000
  C   C16       1.0  0.74900  0.57158  0.17212  1.0000
  C   C17       1.0  0.39993  0.03840  0.79126  1.0000
  C   C18       1.0  0.22978  0.46134  0.70893  1.0000
  C   C19       1.0  0.60007  0.96160  0.20874  1.0000
  C   C20       1.0  0.77022  0.53866  0.29107  1.0000
  C   C21       1.0  0.80246  0.85315  0.70425  1.0000
  C   C22       1.0  0.36027  0.64648  0.79575  1.0000
  C   C23       1.0  0.19754  0.14685  0.29575  1.0000
  C   C24       1.0  0.63973  0.35352  0.20425  1.0000
  O   O1        1.0  0.95507  0.66079  0.50407  1.0000
  O   O2        1.0  0.11997  0.83922  0.99594  1.0000
  O   O3        1.0  0.04492  0.33921  0.49593  1.0000
  O   O4        1.0  0.88003  0.16078  0.00406  1.0000
  O   O5        1.0  0.98832  0.82260  0.34854  1.0000
  O   O6        1.0  0.15901  0.67767  0.15165  1.0000
  O   O7        1.0  0.01168  0.17740  0.65146  1.0000
  O   O8        1.0  0.84099  0.32233  0.84835  1.0000
  O   O9        1.0  0.84548  0.70682  0.75234  1.0000
  O   O10       1.0  0.30493  0.79285  0.74773  1.0000
  O   O11       1.0  0.15452  0.29318  0.24766  1.0000
  O   O12       1.0  0.69507  0.20715  0.25227  1.0000
  O   O13       1.0  0.86465  0.94852  0.70935  1.0000
  O   O14       1.0  0.52304  0.55099  0.79054  1.0000
  O   O15       1.0  0.13535  0.05148  0.29065  1.0000
  O   O16       1.0  0.47696  0.44901  0.20946  1.0000
  O   O17       1.0  0.48755  0.96495  0.86526  1.0000
  O   O18       1.0  0.31777  0.53487  0.63501  1.0000
  O   O19       1.0  0.51245  0.03505  0.13474  1.0000
  O   O20       1.0  0.68223  0.46513  0.36500  1.0000
  O   O21       1.0  0.23211  0.08433  0.81086  1.0000
  O   O22       1.0  0.12759  0.41541  0.68922  1.0000
  O   O23       1.0  0.76789  0.91567  0.18914  1.0000
  O   O24       1.0  0.87241  0.58459  0.31078  1.0000
  O   O25       1.0  0.61553  0.79396  0.62877  1.0000
  O   O26       1.0  0.03871  0.70585  0.87116  1.0000
  O   O27       1.0  0.38447  0.20604  0.37123  1.0000
  O   O28       1.0  0.96129  0.29415  0.12884  1.0000
  O   O29       1.0  0.69475  0.04793  0.92437  1.0000
  O   O30       1.0  0.66714  0.45199  0.57546  1.0000
  O   O31       1.0  0.30525  0.95207  0.07563  1.0000
  O   O32       1.0  0.33286  0.54801  0.42454  1.0000
