data_image0
_chemical_formula_structural       Zn2H40C52N4O16
_chemical_formula_sum              "Zn2 H40 C52 N4 O16"
_cell_length_a       7.62493
_cell_length_b       8.24259
_cell_length_c       19.016
_cell_angle_alpha    96.6832
_cell_angle_beta     97.9212
_cell_angle_gamma    109.253

_space_group_name_H-M_alt    "P 1"
_space_group_IT_number       1

loop_
  _space_group_symop_operation_xyz
  'x, y, z'

loop_
  _atom_site_type_symbol
  _atom_site_label
  _atom_site_symmetry_multiplicity
  _atom_site_fract_x
  _atom_site_fract_y
  _atom_site_fract_z
  _atom_site_occupancy
  Zn  Zn1       1.0  0.51291  0.32051  0.44787  1.0000
  Zn  Zn2       1.0  0.48708  0.67949  0.55213  1.0000
  H   H1        1.0  0.13054  0.94685  0.54287  1.0000
  H   H2        1.0  0.86946  0.05315  0.45713  1.0000
  H   H3        1.0  0.87412  0.91069  0.73144  1.0000
  H   H4        1.0  0.12588  0.08931  0.26857  1.0000
  H   H5        1.0  0.21219  0.41113  0.69094  1.0000
  H   H6        1.0  0.78782  0.58888  0.30906  1.0000
  H   H7        1.0  0.90635  0.18340  0.81226  1.0000
  H   H8        1.0  0.09366  0.81660  0.18774  1.0000
  H   H9        1.0  0.15768  0.27964  0.83298  1.0000
  H   H10       1.0  0.84232  0.72037  0.16702  1.0000
  H   H11       1.0  0.06647  0.74001  0.76913  1.0000
  H   H12       1.0  0.93354  0.25999  0.23087  1.0000
  H   H13       1.0  0.16373  0.99528  0.86983  1.0000
  H   H14       1.0  0.83627  0.00473  0.13016  1.0000
  H   H15       1.0  0.17448  0.65483  0.02294  1.0000
  H   H16       1.0  0.82551  0.34517  0.97706  1.0000
  H   H17       1.0  0.08246  0.40053  0.92426  1.0000
  H   H18       1.0  0.91754  0.59948  0.07573  1.0000
  H   H19       1.0  0.63104  0.26776  0.30894  1.0000
  H   H20       1.0  0.36896  0.73224  0.69106  1.0000
  H   H21       1.0  0.60082  0.02406  0.21310  1.0000
  H   H22       1.0  0.39918  0.97594  0.78690  1.0000
  H   H23       1.0  0.30169  0.66918  0.34399  1.0000
  H   H24       1.0  0.69831  0.33081  0.65601  1.0000
  H   H25       1.0  0.34226  0.92670  0.43344  1.0000
  H   H26       1.0  0.65774  0.07330  0.56656  1.0000
  H   H27       1.0  0.46468  0.82384  0.12627  1.0000
  H   H28       1.0  0.53533  0.17615  0.87374  1.0000
  H   H29       1.0  0.43921  0.57271  0.03650  1.0000
  H   H30       1.0  0.56079  0.42728  0.96350  1.0000
  H   H31       1.0  0.34505  0.23548  0.18320  1.0000
  H   H32       1.0  0.65495  0.76452  0.81680  1.0000
  H   H33       1.0  0.38146  0.47635  0.28367  1.0000
  H   H34       1.0  0.61854  0.52365  0.71633  1.0000
  H   H35       1.0  0.33298  0.24115  0.04355  1.0000
  H   H36       1.0  0.66702  0.75884  0.95645  1.0000
  H   H37       1.0  0.84037  0.43361  0.54126  1.0000
  H   H38       1.0  0.15964  0.56640  0.45874  1.0000
  H   H39       1.0  0.84888  0.31901  0.47131  1.0000
  H   H40       1.0  0.15112  0.68099  0.52869  1.0000
  C   C1        1.0  0.29861  0.30235  0.56733  1.0000
  C   C2        1.0  0.70139  0.69766  0.43267  1.0000
  C   C3        1.0  0.18081  0.19008  0.61214  1.0000
  C   C4        1.0  0.81919  0.80992  0.38786  1.0000
  C   C5        1.0  0.10538  0.00848  0.59242  1.0000
  C   C6        1.0  0.89462  0.99152  0.40759  1.0000
  C   C7        1.0  0.99400  0.90835  0.63537  1.0000
  C   C8        1.0  0.00600  0.09165  0.36463  1.0000
  C   C9        1.0  0.96491  0.99012  0.69935  1.0000
  C   C10       1.0  0.03509  0.00988  0.30065  1.0000
  C   C11       1.0  0.04810  0.17068  0.72113  1.0000
  C   C12       1.0  0.95190  0.82932  0.27887  1.0000
  C   C13       1.0  0.15198  0.26992  0.67627  1.0000
  C   C14       1.0  0.84802  0.73008  0.32373  1.0000
  C   C15       1.0  0.89893  0.71454  0.61197  1.0000
  C   C16       1.0  0.10108  0.28546  0.38803  1.0000
  C   C17       1.0  0.03137  0.26009  0.79213  1.0000
  C   C18       1.0  0.96863  0.73991  0.20787  1.0000
  C   C19       1.0  0.07281  0.55661  0.84024  1.0000
  C   C20       1.0  0.92719  0.44339  0.15976  1.0000
  C   C21       1.0  0.09351  0.72430  0.82525  1.0000
  C   C22       1.0  0.90649  0.27570  0.17474  1.0000
  C   C23       1.0  0.14743  0.86511  0.88121  1.0000
  C   C24       1.0  0.85257  0.13490  0.11878  1.0000
  C   C25       1.0  0.17959  0.84109  0.95321  1.0000
  C   C26       1.0  0.82040  0.15891  0.04678  1.0000
  C   C27       1.0  0.15350  0.67269  0.96708  1.0000
  C   C28       1.0  0.84650  0.32731  0.03291  1.0000
  C   C29       1.0  0.10176  0.53018  0.91174  1.0000
  C   C30       1.0  0.89823  0.46981  0.08826  1.0000
  C   C31       1.0  0.24258  0.98749  0.01526  1.0000
  C   C32       1.0  0.75741  0.01250  0.98472  1.0000
  C   C33       1.0  0.55782  0.13268  0.31386  1.0000
  C   C34       1.0  0.44218  0.86732  0.68614  1.0000
  C   C35       1.0  0.54022  0.99525  0.26073  1.0000
  C   C36       1.0  0.45978  0.00475  0.73927  1.0000
  C   C37       1.0  0.44846  0.82275  0.26985  1.0000
  C   C38       1.0  0.55154  0.17725  0.73015  1.0000
  C   C39       1.0  0.37632  0.79884  0.33338  1.0000
  C   C40       1.0  0.62368  0.20116  0.66662  1.0000
  C   C41       1.0  0.39865  0.94351  0.38406  1.0000
  C   C42       1.0  0.60135  0.05649  0.61594  1.0000
  C   C43       1.0  0.43018  0.67418  0.21421  1.0000
  C   C44       1.0  0.56982  0.32581  0.78579  1.0000
  C   C45       1.0  0.44639  0.69852  0.14320  1.0000
  C   C46       1.0  0.55361  0.30148  0.85680  1.0000
  C   C47       1.0  0.42790  0.55646  0.09196  1.0000
  C   C48       1.0  0.57210  0.44354  0.90804  1.0000
  C   C49       1.0  0.37627  0.37000  0.17449  1.0000
  C   C50       1.0  0.62374  0.63000  0.82551  1.0000
  C   C51       1.0  0.39582  0.50494  0.22971  1.0000
  C   C52       1.0  0.60418  0.49506  0.77029  1.0000
  N   N1        1.0  0.48789  0.10787  0.37465  1.0000
  N   N2        1.0  0.51211  0.89213  0.62535  1.0000
  N   N3        1.0  0.39193  0.39479  0.10671  1.0000
  N   N4        1.0  0.60807  0.60520  0.89329  1.0000
  O   O1        1.0  0.34288  0.22555  0.51398  1.0000
  O   O2        1.0  0.65712  0.77446  0.48602  1.0000
  O   O3        1.0  0.34721  0.46596  0.58696  1.0000
  O   O4        1.0  0.65280  0.53404  0.41305  1.0000
  O   O5        1.0  0.98766  0.63069  0.58014  1.0000
  O   O6        1.0  0.01234  0.36931  0.41986  1.0000
  O   O7        1.0  0.73387  0.64313  0.62470  1.0000
  O   O8        1.0  0.26613  0.35688  0.37530  1.0000
  O   O9        1.0  0.28714  0.14469  0.99633  1.0000
  O   O10       1.0  0.71285  0.85531  0.00367  1.0000
  O   O11       1.0  0.25473  0.96466  0.07889  1.0000
  O   O12       1.0  0.74525  0.03533  0.92112  1.0000
  O   O13       1.0  0.02256  0.42769  0.78178  1.0000
  O   O14       1.0  0.97744  0.57231  0.21822  1.0000
  O   O15       1.0  0.76568  0.31914  0.50786  1.0000
  O   O16       1.0  0.23432  0.68086  0.49214  1.0000
