data_image0
_chemical_formula_structural       Cd3H26C38N4O14
_chemical_formula_sum              "Cd3 H26 C38 N4 O14"
_cell_length_a       7.78711
_cell_length_b       10.9113
_cell_length_c       11.3643
_cell_angle_alpha    83.4784
_cell_angle_beta     70.0912
_cell_angle_gamma    81.9523

_space_group_name_H-M_alt    "P 1"
_space_group_IT_number       1

loop_
  _space_group_symop_operation_xyz
  'x, y, z'

loop_
  _atom_site_type_symbol
  _atom_site_label
  _atom_site_symmetry_multiplicity
  _atom_site_fract_x
  _atom_site_fract_y
  _atom_site_fract_z
  _atom_site_occupancy
  Cd  Cd1       1.0  0.50000  0.50000  0.50000  1.0000
  Cd  Cd2       1.0  0.84806  0.73956  0.70325  1.0000
  Cd  Cd3       1.0  0.15194  0.26044  0.29675  1.0000
  H   H1        1.0  0.49328  0.66369  0.65431  1.0000
  H   H2        1.0  0.50672  0.33632  0.34568  1.0000
  H   H3        1.0  0.28101  0.68821  0.67427  1.0000
  H   H4        1.0  0.71899  0.31179  0.32573  1.0000
  H   H5        1.0  0.11717  0.71697  0.41632  1.0000
  H   H6        1.0  0.88283  0.28303  0.58367  1.0000
  H   H7        1.0  0.16629  0.82733  0.20380  1.0000
  H   H8        1.0  0.83371  0.17267  0.79620  1.0000
  H   H9        1.0  0.96194  0.02586  0.18594  1.0000
  H   H10       1.0  0.03806  0.97414  0.81406  1.0000
  H   H11       1.0  0.72421  0.10284  0.37686  1.0000
  H   H12       1.0  0.27579  0.89716  0.62314  1.0000
  H   H13       1.0  0.56307  0.17136  0.53792  1.0000
  H   H14       1.0  0.43693  0.82863  0.46207  1.0000
  H   H15       1.0  0.34685  0.23710  0.73861  1.0000
  H   H16       1.0  0.65315  0.76291  0.26138  1.0000
  H   H17       1.0  0.32154  0.09766  0.93608  1.0000
  H   H18       1.0  0.67847  0.90235  0.06391  1.0000
  H   H19       1.0  0.51900  0.89068  0.91488  1.0000
  H   H20       1.0  0.48101  0.10933  0.08512  1.0000
  H   H21       1.0  0.19010  0.37943  0.85725  1.0000
  H   H22       1.0  0.80989  0.62057  0.14276  1.0000
  H   H23       1.0  0.66330  0.29512  0.11364  1.0000
  H   H24       1.0  0.33668  0.70488  0.88637  1.0000
  H   H25       1.0  0.51919  0.37793  0.95375  1.0000
  H   H26       1.0  0.48081  0.62207  0.04625  1.0000
  C   C1        1.0  0.03221  0.80236  0.40327  1.0000
  C   C2        1.0  0.96779  0.19764  0.59672  1.0000
  C   C3        1.0  0.05887  0.86459  0.28528  1.0000
  C   C4        1.0  0.94113  0.13541  0.71472  1.0000
  C   C5        1.0  0.94658  0.97364  0.27581  1.0000
  C   C6        1.0  0.05343  0.02636  0.72418  1.0000
  C   C7        1.0  0.81223  0.01746  0.38345  1.0000
  C   C8        1.0  0.18777  0.98254  0.61654  1.0000
  C   C9        1.0  0.79330  0.95079  0.49902  1.0000
  C   C10       1.0  0.20670  0.04921  0.50097  1.0000
  C   C11       1.0  0.65605  0.99409  0.61787  1.0000
  C   C12       1.0  0.34395  0.00591  0.38213  1.0000
  C   C13       1.0  0.55014  0.10935  0.62204  1.0000
  C   C14       1.0  0.44986  0.89065  0.37796  1.0000
  C   C15       1.0  0.42862  0.14727  0.73662  1.0000
  C   C16       1.0  0.57138  0.85273  0.26338  1.0000
  C   C17       1.0  0.41402  0.06941  0.84499  1.0000
  C   C18       1.0  0.58598  0.93060  0.15501  1.0000
  C   C19       1.0  0.52298  0.95567  0.83378  1.0000
  C   C20       1.0  0.47702  0.04433  0.16622  1.0000
  C   C21       1.0  0.77213  0.43171  0.81587  1.0000
  C   C22       1.0  0.22787  0.56829  0.18413  1.0000
  C   C23       1.0  0.96360  0.42837  0.78688  1.0000
  C   C24       1.0  0.03640  0.57163  0.21313  1.0000
  C   C25       1.0  0.04306  0.37885  0.87778  1.0000
  C   C26       1.0  0.95694  0.62115  0.12222  1.0000
  C   C27       1.0  0.93717  0.33270  0.99608  1.0000
  C   C28       1.0  0.06283  0.66730  0.00393  1.0000
  C   C29       1.0  0.74780  0.33141  0.02215  1.0000
  C   C30       1.0  0.25220  0.66860  0.97786  1.0000
  C   C31       1.0  0.66665  0.37933  0.93238  1.0000
  C   C32       1.0  0.33334  0.62067  0.06762  1.0000
  C   C33       1.0  0.67110  0.48993  0.72790  1.0000
  C   C34       1.0  0.32890  0.51007  0.27210  1.0000
  C   C35       1.0  0.09066  0.47535  0.66203  1.0000
  C   C36       1.0  0.90934  0.52465  0.33797  1.0000
  C   C37       1.0  0.02665  0.29034  0.09312  1.0000
  C   C38       1.0  0.97335  0.70966  0.90688  1.0000
  N   N1        1.0  0.90303  0.84476  0.50676  1.0000
  N   N2        1.0  0.09697  0.15524  0.49324  1.0000
  N   N3        1.0  0.64063  0.91918  0.72337  1.0000
  N   N4        1.0  0.35937  0.08082  0.27663  1.0000
  O   O1        1.0  0.62219  0.42064  0.66695  1.0000
  O   O2        1.0  0.37781  0.57936  0.33305  1.0000
  O   O3        1.0  0.63134  0.60879  0.72796  1.0000
  O   O4        1.0  0.36866  0.39120  0.27204  1.0000
  O   O5        1.0  0.04132  0.57382  0.60547  1.0000
  O   O6        1.0  0.95868  0.42618  0.39453  1.0000
  O   O7        1.0  0.24624  0.41088  0.62257  1.0000
  O   O8        1.0  0.75376  0.58912  0.37744  1.0000
  O   O9        1.0  0.19998  0.28100  0.06397  1.0000
  O   O10       1.0  0.80001  0.71899  0.93604  1.0000
  O   O11       1.0  0.92234  0.26610  0.20696  1.0000
  O   O12       1.0  0.07765  0.73391  0.79305  1.0000
  O   O13       1.0  0.40262  0.68437  0.60731  1.0000
  O   O14       1.0  0.59737  0.31563  0.39269  1.0000
