data_image0
_chemical_formula_structural       Zn2H32C50N6O12
_chemical_formula_sum              "Zn2 H32 C50 N6 O12"
_cell_length_a       8.12379
_cell_length_b       10.6846
_cell_length_c       13.5293
_cell_angle_alpha    93.8369
_cell_angle_beta     97.9181
_cell_angle_gamma    96.155

_space_group_name_H-M_alt    "P 1"
_space_group_IT_number       1

loop_
  _space_group_symop_operation_xyz
  'x, y, z'

loop_
  _atom_site_type_symbol
  _atom_site_label
  _atom_site_symmetry_multiplicity
  _atom_site_fract_x
  _atom_site_fract_y
  _atom_site_fract_z
  _atom_site_occupancy
  Zn  Zn1       1.0  0.55462  0.85688  0.44857  1.0000
  Zn  Zn2       1.0  0.44537  0.14312  0.55143  1.0000
  H   H1        1.0  0.94310  0.61208  0.02549  1.0000
  H   H2        1.0  0.05690  0.38793  0.97451  1.0000
  H   H3        1.0  0.11224  0.61674  0.19154  1.0000
  H   H4        1.0  0.88776  0.38326  0.80846  1.0000
  H   H5        1.0  0.36130  0.98171  0.15142  1.0000
  H   H6        1.0  0.63870  0.01829  0.84858  1.0000
  H   H7        1.0  0.18438  0.98084  0.98489  1.0000
  H   H8        1.0  0.81562  0.01916  0.01511  1.0000
  H   H9        1.0  0.83307  0.62858  0.73929  1.0000
  H   H10       1.0  0.16693  0.37142  0.26071  1.0000
  H   H11       1.0  0.56383  0.48797  0.71921  1.0000
  H   H12       1.0  0.43617  0.51203  0.28079  1.0000
  H   H13       1.0  0.44824  0.66293  0.99373  1.0000
  H   H14       1.0  0.55176  0.33707  0.00627  1.0000
  H   H15       1.0  0.72291  0.79647  0.01875  1.0000
  H   H16       1.0  0.27709  0.20353  0.98125  1.0000
  H   H17       1.0  0.83843  0.90676  0.73463  1.0000
  H   H18       1.0  0.16157  0.09324  0.26537  1.0000
  H   H19       1.0  0.99182  0.95106  0.59213  1.0000
  H   H20       1.0  0.00819  0.04894  0.40787  1.0000
  H   H21       1.0  0.41135  0.78169  0.73399  1.0000
  H   H22       1.0  0.58865  0.21830  0.26601  1.0000
  H   H23       1.0  0.25986  0.74204  0.87909  1.0000
  H   H24       1.0  0.74013  0.25795  0.12091  1.0000
  H   H25       1.0  0.88715  0.82326  0.38570  1.0000
  H   H26       1.0  0.11285  0.17674  0.61430  1.0000
  H   H27       1.0  0.09206  0.66920  0.40620  1.0000
  H   H28       1.0  0.90794  0.33080  0.59380  1.0000
  H   H29       1.0  0.75064  0.45595  0.57225  1.0000
  H   H30       1.0  0.24936  0.54405  0.42775  1.0000
  H   H31       1.0  0.56309  0.62324  0.54541  1.0000
  H   H32       1.0  0.43691  0.37676  0.45459  1.0000
  C   C1        1.0  0.05110  0.79698  0.99469  1.0000
  C   C2        1.0  0.94890  0.20302  0.00531  1.0000
  C   C3        1.0  0.03249  0.69418  0.05288  1.0000
  C   C4        1.0  0.96751  0.30583  0.94712  1.0000
  C   C5        1.0  0.12826  0.69635  0.14622  1.0000
  C   C6        1.0  0.87174  0.30365  0.85378  1.0000
  C   C7        1.0  0.24794  0.79928  0.18248  1.0000
  C   C8        1.0  0.75206  0.20072  0.81752  1.0000
  C   C9        1.0  0.26812  0.90159  0.12329  1.0000
  C   C10       1.0  0.73188  0.09841  0.87671  1.0000
  C   C11       1.0  0.16963  0.90131  0.03053  1.0000
  C   C12       1.0  0.83036  0.09869  0.96947  1.0000
  C   C13       1.0  0.79642  0.72233  0.88024  1.0000
  C   C14       1.0  0.20358  0.27768  0.11976  1.0000
  C   C15       1.0  0.74801  0.63708  0.79429  1.0000
  C   C16       1.0  0.25199  0.36292  0.20571  1.0000
  C   C17       1.0  0.59736  0.55955  0.78205  1.0000
  C   C18       1.0  0.40263  0.44045  0.21795  1.0000
  C   C19       1.0  0.49086  0.56981  0.85437  1.0000
  C   C20       1.0  0.50914  0.43019  0.14564  1.0000
  C   C21       1.0  0.53405  0.65647  0.93892  1.0000
  C   C22       1.0  0.46595  0.34353  0.06108  1.0000
  C   C23       1.0  0.68618  0.73158  0.95185  1.0000
  C   C24       1.0  0.31382  0.26842  0.04815  1.0000
  C   C25       1.0  0.04040  0.82084  0.81574  1.0000
  C   C26       1.0  0.95960  0.17916  0.18426  1.0000
  C   C27       1.0  0.96398  0.87956  0.73459  1.0000
  C   C28       1.0  0.03602  0.12044  0.26541  1.0000
  C   C29       1.0  0.05039  0.90413  0.65462  1.0000
  C   C30       1.0  0.94961  0.09587  0.34538  1.0000
  C   C31       1.0  0.21127  0.86783  0.65377  1.0000
  C   C32       1.0  0.78873  0.13217  0.34623  1.0000
  C   C33       1.0  0.28634  0.80927  0.73510  1.0000
  C   C34       1.0  0.71366  0.19073  0.26490  1.0000
  C   C35       1.0  0.20262  0.78760  0.81589  1.0000
  C   C36       1.0  0.79737  0.21240  0.18411  1.0000
  C   C37       1.0  0.30887  0.89437  0.57109  1.0000
  C   C38       1.0  0.69113  0.10563  0.42891  1.0000
  C   C39       1.0  0.86304  0.74056  0.42679  1.0000
  C   C40       1.0  0.13696  0.25944  0.57321  1.0000
  C   C41       1.0  0.97706  0.65312  0.43906  1.0000
  C   C42       1.0  0.02294  0.34688  0.56094  1.0000
  C   C43       1.0  0.94090  0.54757  0.49227  1.0000
  C   C44       1.0  0.05910  0.45243  0.50773  1.0000
  C   C45       1.0  0.78803  0.53554  0.53062  1.0000
  C   C46       1.0  0.21197  0.46446  0.46938  1.0000
  C   C47       1.0  0.68147  0.62762  0.51563  1.0000
  C   C48       1.0  0.31853  0.37238  0.48436  1.0000
  C   C49       1.0  0.34916  0.79812  0.28302  1.0000
  C   C50       1.0  0.65084  0.20188  0.71698  1.0000
  N   N1        1.0  0.33201  0.49084  0.84114  1.0000
  N   N2        1.0  0.66798  0.50916  0.15886  1.0000
  N   N3        1.0  0.95501  0.79232  0.89782  1.0000
  N   N4        1.0  0.04499  0.20769  0.10218  1.0000
  N   N5        1.0  0.71803  0.72852  0.46463  1.0000
  N   N6        1.0  0.28197  0.27148  0.53537  1.0000
  O   O1        1.0  0.32505  0.70723  0.33647  1.0000
  O   O2        1.0  0.67495  0.29277  0.66353  1.0000
  O   O3        1.0  0.46073  0.89429  0.31276  1.0000
  O   O4        1.0  0.53927  0.10571  0.68724  1.0000
  O   O5        1.0  0.30447  0.40231  0.77391  1.0000
  O   O6        1.0  0.69553  0.59769  0.22609  1.0000
  O   O7        1.0  0.22908  0.51643  0.89801  1.0000
  O   O8        1.0  0.77092  0.48357  0.10199  1.0000
  O   O9        1.0  0.27561  0.98452  0.51658  1.0000
  O   O10       1.0  0.72439  0.01548  0.48342  1.0000
  O   O11       1.0  0.42668  0.82629  0.56036  1.0000
  O   O12       1.0  0.57332  0.17370  0.43964  1.0000
