data_image0
_chemical_formula_structural       Co2H38C42Br4N4O12
_chemical_formula_sum              "Co2 H38 C42 Br4 N4 O12"
_cell_length_a       9.95835
_cell_length_b       10.7936
_cell_length_c       11.4504
_cell_angle_alpha    88.9227
_cell_angle_beta     72.5803
_cell_angle_gamma    70.2574

_space_group_name_H-M_alt    "P 1"
_space_group_IT_number       1

loop_
  _space_group_symop_operation_xyz
  'x, y, z'

loop_
  _atom_site_type_symbol
  _atom_site_label
  _atom_site_symmetry_multiplicity
  _atom_site_fract_x
  _atom_site_fract_y
  _atom_site_fract_z
  _atom_site_occupancy
  Co  Co1       1.0  0.19173  0.31440  0.45921  1.0000
  Co  Co2       1.0  0.80554  0.68967  0.54403  1.0000
  H   H1        1.0  0.03123  0.25033  0.36432  1.0000
  H   H2        1.0  0.95700  0.74953  0.63984  1.0000
  H   H3        1.0  0.94700  0.40060  0.42640  1.0000
  H   H4        1.0  0.04513  0.60175  0.56940  1.0000
  H   H5        1.0  0.30532  0.59084  0.18595  1.0000
  H   H6        1.0  0.68521  0.41191  0.81607  1.0000
  H   H7        1.0  0.33069  0.72558  0.00928  1.0000
  H   H8        1.0  0.66295  0.27717  0.99123  1.0000
  H   H9        1.0  0.87470  0.78345  0.02525  1.0000
  H   H10       1.0  0.12081  0.21831  0.97026  1.0000
  H   H11       1.0  0.85030  0.64946  0.20537  1.0000
  H   H12       1.0  0.14249  0.35193  0.79155  1.0000
  H   H13       1.0  0.00240  0.88603  0.88181  1.0000
  H   H14       1.0  0.99641  0.11422  0.11577  1.0000
  H   H15       1.0  0.33051  0.84992  0.86065  1.0000
  H   H16       1.0  0.66800  0.14600  0.14348  1.0000
  H   H17       1.0  0.42646  0.13695  0.55759  1.0000
  H   H18       1.0  0.57296  0.85751  0.44312  1.0000
  H   H19       1.0  0.44622  0.96926  0.71041  1.0000
  H   H20       1.0  0.55432  0.02607  0.29398  1.0000
  H   H21       1.0  0.99708  0.99036  0.73140  1.0000
  H   H22       1.0  0.00587  0.99883  0.27019  1.0000
  H   H23       1.0  0.99961  0.15385  0.57676  1.0000
  H   H24       1.0  0.00323  0.83429  0.42152  1.0000
  H   H25       1.0  0.43936  0.41165  0.30156  1.0000
  H   H26       1.0  0.57079  0.59464  0.69690  1.0000
  H   H27       1.0  0.63731  0.46791  0.22144  1.0000
  H   H28       1.0  0.37504  0.53379  0.77579  1.0000
  H   H29       1.0  0.80589  0.36023  0.24515  1.0000
  H   H30       1.0  0.20606  0.63898  0.75112  1.0000
  H   H31       1.0  0.70883  0.51698  0.33248  1.0000
  H   H32       1.0  0.30786  0.48263  0.66278  1.0000
  H   H33       1.0  0.57376  0.30238  0.55629  1.0000
  H   H34       1.0  0.43422  0.69848  0.43977  1.0000
  H   H35       1.0  0.70837  0.38551  0.51798  1.0000
  H   H36       1.0  0.29979  0.61571  0.48250  1.0000
  H   H37       1.0  0.75718  0.22421  0.44894  1.0000
  H   H38       1.0  0.25279  0.77842  0.54923  1.0000
  C   C1        1.0  0.05882  0.53660  0.31688  1.0000
  C   C2        1.0  0.93516  0.46894  0.68167  1.0000
  C   C3        1.0  0.07600  0.61250  0.20703  1.0000
  C   C4        1.0  0.91589  0.39090  0.79070  1.0000
  C   C5        1.0  0.21181  0.63308  0.14959  1.0000
  C   C6        1.0  0.78074  0.36972  0.85016  1.0000
  C   C7        1.0  0.22514  0.70888  0.05061  1.0000
  C   C8        1.0  0.76888  0.29305  0.94922  1.0000
  C   C9        1.0  0.10280  0.76599  0.00547  1.0000
  C   C10       1.0  0.89172  0.23459  0.99393  1.0000
  C   C11       1.0  0.96866  0.74120  0.06121  1.0000
  C   C12       1.0  0.02528  0.26012  0.93599  1.0000
  C   C13       1.0  0.95511  0.66599  0.16067  1.0000
  C   C14       1.0  0.03755  0.33570  0.83642  1.0000
  C   C15       1.0  0.10680  0.84987  0.90519  1.0000
  C   C16       1.0  0.89050  0.14943  0.09446  1.0000
  C   C17       1.0  0.22450  0.88436  0.83951  1.0000
  C   C18       1.0  0.77546  0.11200  0.16249  1.0000
  C   C19       1.0  0.33415  0.10165  0.59925  1.0000
  C   C20       1.0  0.66668  0.89086  0.40209  1.0000
  C   C21       1.0  0.34326  0.01012  0.68571  1.0000
  C   C22       1.0  0.65852  0.98396  0.31677  1.0000
  C   C23       1.0  0.21982  0.97025  0.74089  1.0000
  C   C24       1.0  0.78192  0.02398  0.26039  1.0000
  C   C25       1.0  0.09519  0.01999  0.69701  1.0000
  C   C26       1.0  0.90655  0.97067  0.30394  1.0000
  C   C27       1.0  0.09545  0.11059  0.61010  1.0000
  C   C28       1.0  0.90646  0.87847  0.38979  1.0000
  C   C29       1.0  0.26722  0.15085  0.22322  1.0000
  C   C30       1.0  0.72940  0.85064  0.78006  1.0000
  C   C31       1.0  0.38626  0.07348  0.10748  1.0000
  C   C32       1.0  0.61348  0.92816  0.89688  1.0000
  C   C33       1.0  0.43599  0.13834  0.00525  1.0000
  C   C34       1.0  0.56353  0.86324  0.99896  1.0000
  C   C35       1.0  0.54895  0.06562  0.90029  1.0000
  C   C36       1.0  0.45041  0.93600  0.10384  1.0000
  C   C37       1.0  0.47394  0.37219  0.38148  1.0000
  C   C38       1.0  0.53597  0.63330  0.61715  1.0000
  C   C39       1.0  0.69443  0.43360  0.29056  1.0000
  C   C40       1.0  0.31869  0.56723  0.70608  1.0000
  C   C41       1.0  0.66448  0.31871  0.48311  1.0000
  C   C42       1.0  0.34467  0.68330  0.51504  1.0000
  Br  Br1       1.0  0.34770  0.32549  0.01449  1.0000
  Br  Br2       1.0  0.64887  0.67579  0.98881  1.0000
  Br  Br3       1.0  0.61552  0.14901  0.75774  1.0000
  Br  Br4       1.0  0.38131  0.85190  0.24503  1.0000
  N   N1        1.0  0.21119  0.15463  0.56311  1.0000
  N   N2        1.0  0.79019  0.83408  0.43774  1.0000
  N   N3        1.0  0.60586  0.37487  0.38436  1.0000
  N   N4        1.0  0.40551  0.62834  0.61311  1.0000
  O   O1        1.0  0.17599  0.47097  0.34501  1.0000
  O   O2        1.0  0.81867  0.54418  0.65649  1.0000
  O   O3        1.0  0.92506  0.54136  0.37729  1.0000
  O   O4        1.0  0.07022  0.45883  0.61902  1.0000
  O   O5        1.0  0.31935  0.19148  0.29725  1.0000
  O   O6        1.0  0.67377  0.81584  0.70598  1.0000
  O   O7        1.0  0.13262  0.16562  0.23446  1.0000
  O   O8        1.0  0.86625  0.82972  0.76712  1.0000
  O   O9        1.0  0.39065  0.32968  0.46525  1.0000
  O   O10       1.0  0.61895  0.67725  0.53332  1.0000
  O   O11       1.0  0.99083  0.30618  0.44568  1.0000
  O   O12       1.0  0.99481  0.69692  0.55541  1.0000
