data_image0
_chemical_formula_structural       Zn2H38C58N6O8
_chemical_formula_sum              "Zn2 H38 C58 N6 O8"
_cell_length_a       9.18101
_cell_length_b       10.3784
_cell_length_c       14.2612
_cell_angle_alpha    76.976
_cell_angle_beta     71.6528
_cell_angle_gamma    64.9438

_space_group_name_H-M_alt    "P 1"
_space_group_IT_number       1

loop_
  _space_group_symop_operation_xyz
  'x, y, z'

loop_
  _atom_site_type_symbol
  _atom_site_label
  _atom_site_symmetry_multiplicity
  _atom_site_fract_x
  _atom_site_fract_y
  _atom_site_fract_z
  _atom_site_occupancy
  Zn  Zn1       1.0  0.54896  0.80673  0.81010  1.0000
  Zn  Zn2       1.0  0.45104  0.19327  0.18990  1.0000
  H   H1        1.0  0.36218  0.70705  0.70581  1.0000
  H   H2        1.0  0.63782  0.29294  0.29419  1.0000
  H   H3        1.0  0.16714  0.57420  0.75796  1.0000
  H   H4        1.0  0.83287  0.42579  0.24204  1.0000
  H   H5        1.0  0.08569  0.49106  0.93633  1.0000
  H   H6        1.0  0.91431  0.50894  0.06367  1.0000
  H   H7        1.0  0.18373  0.55015  0.06133  1.0000
  H   H8        1.0  0.81628  0.44986  0.93867  1.0000
  H   H9        1.0  0.25920  0.63418  0.15634  1.0000
  H   H10       1.0  0.74080  0.36583  0.84366  1.0000
  H   H11       1.0  0.59592  0.82761  0.15314  1.0000
  H   H12       1.0  0.40408  0.17239  0.84686  1.0000
  H   H13       1.0  0.78612  0.89812  0.06016  1.0000
  H   H14       1.0  0.21387  0.10188  0.93984  1.0000
  H   H15       1.0  0.00118  0.98051  0.93445  1.0000
  H   H16       1.0  0.99882  0.01948  0.06555  1.0000
  H   H17       1.0  0.03528  0.98433  0.75548  1.0000
  H   H18       1.0  0.96472  0.01566  0.24452  1.0000
  H   H19       1.0  0.85074  0.90324  0.70278  1.0000
  H   H20       1.0  0.14927  0.09675  0.29723  1.0000
  H   H21       1.0  0.11839  0.76162  0.29496  1.0000
  H   H22       1.0  0.88160  0.23838  0.70504  1.0000
  H   H23       1.0  0.04616  0.74661  0.47716  1.0000
  H   H24       1.0  0.95383  0.25339  0.52284  1.0000
  H   H25       1.0  0.26342  0.68452  0.56733  1.0000
  H   H26       1.0  0.73657  0.31548  0.43267  1.0000
  H   H27       1.0  0.55604  0.64037  0.47199  1.0000
  H   H28       1.0  0.44395  0.35963  0.52801  1.0000
  H   H29       1.0  0.62823  0.66523  0.28849  1.0000
  H   H30       1.0  0.37177  0.33477  0.71151  1.0000
  H   H31       1.0  0.72614  0.70158  0.52049  1.0000
  H   H32       1.0  0.27387  0.29842  0.47951  1.0000
  H   H33       1.0  0.11242  0.37866  0.64843  1.0000
  H   H34       1.0  0.88758  0.62134  0.35157  1.0000
  H   H35       1.0  0.64388  0.01094  0.61732  1.0000
  H   H36       1.0  0.35612  0.98907  0.38268  1.0000
  H   H37       1.0  0.20330  0.03143  0.55889  1.0000
  H   H38       1.0  0.79669  0.96857  0.44111  1.0000
  C   C1        1.0  0.31629  0.67217  0.78359  1.0000
  C   C2        1.0  0.68372  0.32782  0.21641  1.0000
  C   C3        1.0  0.21106  0.59762  0.81230  1.0000
  C   C4        1.0  0.78894  0.40238  0.18770  1.0000
  C   C5        1.0  0.16377  0.55310  0.91294  1.0000
  C   C6        1.0  0.83624  0.44689  0.08706  1.0000
  C   C7        1.0  0.21810  0.58600  0.98230  1.0000
  C   C8        1.0  0.78190  0.41401  0.01770  1.0000
  C   C9        1.0  0.32130  0.66355  0.94739  1.0000
  C   C10       1.0  0.67870  0.33645  0.05261  1.0000
  C   C11       1.0  0.39107  0.70368  0.01245  1.0000
  C   C12       1.0  0.60893  0.29632  0.98755  1.0000
  C   C13       1.0  0.34796  0.68423  0.11627  1.0000
  C   C14       1.0  0.65204  0.31577  0.88373  1.0000
  C   C15       1.0  0.42294  0.72815  0.16872  1.0000
  C   C16       1.0  0.57706  0.27185  0.83128  1.0000
  C   C17       1.0  0.54123  0.78731  0.11433  1.0000
  C   C18       1.0  0.45877  0.21269  0.88567  1.0000
  C   C19       1.0  0.58053  0.80076  0.01082  1.0000
  C   C20       1.0  0.41947  0.19924  0.98918  1.0000
  C   C21       1.0  0.70788  0.85593  0.94523  1.0000
  C   C22       1.0  0.29212  0.14407  0.05477  1.0000
  C   C23       1.0  0.80481  0.89882  0.98054  1.0000
  C   C24       1.0  0.19519  0.10118  0.01946  1.0000
  C   C25       1.0  0.92337  0.94511  0.91102  1.0000
  C   C26       1.0  0.07663  0.05489  0.08898  1.0000
  C   C27       1.0  0.94411  0.94652  0.80976  1.0000
  C   C28       1.0  0.05589  0.05347  0.19024  1.0000
  C   C29       1.0  0.84165  0.90334  0.78098  1.0000
  C   C30       1.0  0.15835  0.09666  0.21902  1.0000
  C   C31       1.0  0.37922  0.71436  0.27819  1.0000
  C   C32       1.0  0.62077  0.28564  0.72181  1.0000
  C   C33       1.0  0.21532  0.73626  0.33267  1.0000
  C   C34       1.0  0.78467  0.26373  0.66733  1.0000
  C   C35       1.0  0.17399  0.72866  0.43606  1.0000
  C   C36       1.0  0.82601  0.27133  0.56394  1.0000
  C   C37       1.0  0.29601  0.69359  0.48635  1.0000
  C   C38       1.0  0.70399  0.30641  0.51365  1.0000
  C   C39       1.0  0.45996  0.66916  0.43305  1.0000
  C   C40       1.0  0.54004  0.33083  0.56694  1.0000
  C   C41       1.0  0.50067  0.68185  0.32971  1.0000
  C   C42       1.0  0.49933  0.31815  0.67029  1.0000
  C   C43       1.0  0.81321  0.59690  0.69424  1.0000
  C   C44       1.0  0.18679  0.40310  0.30576  1.0000
  C   C45       1.0  0.84568  0.61232  0.51055  1.0000
  C   C46       1.0  0.15432  0.38767  0.48945  1.0000
  C   C47       1.0  0.91030  0.54612  0.59397  1.0000
  C   C48       1.0  0.08969  0.45388  0.40603  1.0000
  C   C49       1.0  0.06556  0.43308  0.58289  1.0000
  C   C50       1.0  0.93444  0.56692  0.41711  1.0000
  C   C51       1.0  0.31867  0.05223  0.70556  1.0000
  C   C52       1.0  0.68133  0.94778  0.29444  1.0000
  C   C53       1.0  0.58160  0.00502  0.56580  1.0000
  C   C54       1.0  0.41841  0.99499  0.43419  1.0000
  C   C55       1.0  0.41434  0.02197  0.60003  1.0000
  C   C56       1.0  0.58566  0.97804  0.39997  1.0000
  C   C57       1.0  0.33386  0.01685  0.53281  1.0000
  C   C58       1.0  0.66615  0.98316  0.46718  1.0000
  N   N1        1.0  0.36866  0.70444  0.84942  1.0000
  N   N2        1.0  0.63134  0.29556  0.15058  1.0000
  N   N3        1.0  0.50429  0.76099  0.96284  1.0000
  N   N4        1.0  0.49570  0.23901  0.03716  1.0000
  N   N5        1.0  0.72647  0.86032  0.84684  1.0000
  N   N6        1.0  0.27353  0.13968  0.15316  1.0000
  O   O1        1.0  0.67935  0.71075  0.69130  1.0000
  O   O2        1.0  0.32065  0.28925  0.30870  1.0000
  O   O3        1.0  0.86185  0.53295  0.77122  1.0000
  O   O4        1.0  0.13815  0.46704  0.22878  1.0000
  O   O5        1.0  0.40112  0.00608  0.77404  1.0000
  O   O6        1.0  0.59887  0.99392  0.22596  1.0000
  O   O7        1.0  0.16584  0.12332  0.72307  1.0000
  O   O8        1.0  0.83416  0.87668  0.27693  1.0000
