data_image0
_chemical_formula_structural       Zn2H24C28N8O8
_chemical_formula_sum              "Zn2 H24 C28 N8 O8"
_cell_length_a       7.81979
_cell_length_b       9.80456
_cell_length_c       11.505
_cell_angle_alpha    78.1007
_cell_angle_beta     72.6516
_cell_angle_gamma    82.3621

_space_group_name_H-M_alt    "P 1"
_space_group_IT_number       1

loop_
  _space_group_symop_operation_xyz
  'x, y, z'

loop_
  _atom_site_type_symbol
  _atom_site_label
  _atom_site_symmetry_multiplicity
  _atom_site_fract_x
  _atom_site_fract_y
  _atom_site_fract_z
  _atom_site_occupancy
  Zn  Zn1       1.0  0.55212  0.43324  0.20315  1.0000
  Zn  Zn2       1.0  0.44790  0.56675  0.79685  1.0000
  H   H1        1.0  0.98568  0.17053  0.30566  1.0000
  H   H2        1.0  0.01429  0.82950  0.69432  1.0000
  H   H3        1.0  0.85853  0.64656  0.44404  1.0000
  H   H4        1.0  0.14145  0.35344  0.55597  1.0000
  H   H5        1.0  0.96087  0.25137  0.90964  1.0000
  H   H6        1.0  0.03914  0.74862  0.09036  1.0000
  H   H7        1.0  0.82994  0.91625  0.21756  1.0000
  H   H8        1.0  0.17008  0.08372  0.78244  1.0000
  H   H9        1.0  0.24677  0.96349  0.19175  1.0000
  H   H10       1.0  0.75322  0.03650  0.80826  1.0000
  H   H11       1.0  0.70344  0.79557  0.93627  1.0000
  H   H12       1.0  0.29656  0.20443  0.06372  1.0000
  H   H13       1.0  0.28984  0.16599  0.35830  1.0000
  H   H14       1.0  0.71017  0.83403  0.64170  1.0000
  H   H15       1.0  0.93915  0.38269  0.15089  1.0000
  H   H16       1.0  0.06087  0.61733  0.84909  1.0000
  H   H17       1.0  0.23234  0.53655  0.10532  1.0000
  H   H18       1.0  0.76766  0.46346  0.89466  1.0000
  H   H19       1.0  0.74166  0.67336  0.25374  1.0000
  H   H20       1.0  0.25834  0.32664  0.74627  1.0000
  H   H21       1.0  0.77932  0.41301  0.59296  1.0000
  H   H22       1.0  0.22066  0.58699  0.40704  1.0000
  H   H23       1.0  0.62296  0.27588  0.46801  1.0000
  H   H24       1.0  0.37702  0.72412  0.53199  1.0000
  C   C1        1.0  0.76250  0.19077  0.15020  1.0000
  C   C2        1.0  0.23749  0.80922  0.84981  1.0000
  C   C3        1.0  0.88479  0.09301  0.07146  1.0000
  C   C4        1.0  0.11521  0.90697  0.92854  1.0000
  C   C5        1.0  0.97996  0.14135  0.94864  1.0000
  C   C6        1.0  0.02003  0.85864  0.05137  1.0000
  C   C7        1.0  0.90586  0.95111  0.12191  1.0000
  C   C8        1.0  0.09414  0.04886  0.87810  1.0000
  C   C9        1.0  0.43916  0.72226  0.14493  1.0000
  C   C10       1.0  0.56084  0.27774  0.85507  1.0000
  C   C11       1.0  0.47194  0.86587  0.07051  1.0000
  C   C12       1.0  0.52808  0.13412  0.92950  1.0000
  C   C13       1.0  0.35799  0.98114  0.10794  1.0000
  C   C14       1.0  0.64201  0.01885  0.89206  1.0000
  C   C15       1.0  0.61461  0.88606  0.96229  1.0000
  C   C16       1.0  0.38539  0.11393  0.03770  1.0000
  C   C17       1.0  0.23190  0.24898  0.30003  1.0000
  C   C18       1.0  0.76810  0.75104  0.69996  1.0000
  C   C19       1.0  0.05236  0.36414  0.18915  1.0000
  C   C20       1.0  0.94765  0.63589  0.81085  1.0000
  C   C21       1.0  0.19778  0.43890  0.16762  1.0000
  C   C22       1.0  0.80224  0.56112  0.83236  1.0000
  C   C23       1.0  0.73048  0.58391  0.32805  1.0000
  C   C24       1.0  0.26951  0.41609  0.67195  1.0000
  C   C25       1.0  0.75678  0.44446  0.50201  1.0000
  C   C26       1.0  0.24320  0.55554  0.49800  1.0000
  C   C27       1.0  0.67205  0.37912  0.44241  1.0000
  C   C28       1.0  0.32792  0.62088  0.55760  1.0000
  N   N1        1.0  0.30825  0.36644  0.23753  1.0000
  N   N2        1.0  0.69176  0.63358  0.76246  1.0000
  N   N3        1.0  0.07509  0.24570  0.27338  1.0000
  N   N4        1.0  0.92491  0.75433  0.72661  1.0000
  N   N5        1.0  0.65613  0.46686  0.33498  1.0000
  N   N6        1.0  0.34387  0.53314  0.66502  1.0000
  N   N7        1.0  0.79260  0.57326  0.42785  1.0000
  N   N8        1.0  0.20740  0.42674  0.57216  1.0000
  O   O1        1.0  0.72058  0.31296  0.09174  1.0000
  O   O2        1.0  0.27942  0.68704  0.90825  1.0000
  O   O3        1.0  0.71180  0.15453  0.26602  1.0000
  O   O4        1.0  0.28820  0.84546  0.73399  1.0000
  O   O5        1.0  0.55912  0.62402  0.10590  1.0000
  O   O6        1.0  0.44089  0.37598  0.89410  1.0000
  O   O7        1.0  0.30432  0.70435  0.23707  1.0000
  O   O8        1.0  0.69571  0.29563  0.76294  1.0000
