data_image0
_chemical_formula_structural       Zn2H36C32N4O8
_chemical_formula_sum              "Zn2 H36 C32 N4 O8"
_cell_length_a       8.34922
_cell_length_b       10.6184
_cell_length_c       10.8299
_cell_angle_alpha    113.496
_cell_angle_beta     93.1016
_cell_angle_gamma    96.3676

_space_group_name_H-M_alt    "P 1"
_space_group_IT_number       1

loop_
  _space_group_symop_operation_xyz
  'x, y, z'

loop_
  _atom_site_type_symbol
  _atom_site_label
  _atom_site_symmetry_multiplicity
  _atom_site_fract_x
  _atom_site_fract_y
  _atom_site_fract_z
  _atom_site_occupancy
  Zn  Zn1       1.0  0.30154  0.84911  0.61700  1.0000
  Zn  Zn2       1.0  0.69846  0.15088  0.38300  1.0000
  H   H1        1.0  0.17969  0.77555  0.33701  1.0000
  H   H2        1.0  0.82032  0.22445  0.66299  1.0000
  H   H3        1.0  0.23323  0.62446  0.10328  1.0000
  H   H4        1.0  0.76678  0.37554  0.89672  1.0000
  H   H5        1.0  0.60687  0.48030  0.28518  1.0000
  H   H6        1.0  0.39314  0.51970  0.71482  1.0000
  H   H7        1.0  0.53222  0.63348  0.51043  1.0000
  H   H8        1.0  0.46779  0.36652  0.48957  1.0000
  H   H9        1.0  0.41527  0.77942  0.84668  1.0000
  H   H10       1.0  0.58472  0.22059  0.15333  1.0000
  H   H11       1.0  0.66106  0.86343  0.02311  1.0000
  H   H12       1.0  0.33893  0.13657  0.97689  1.0000
  H   H13       1.0  0.86828  0.09355  0.80576  1.0000
  H   H14       1.0  0.13172  0.90646  0.19425  1.0000
  H   H15       1.0  0.61678  0.00384  0.64171  1.0000
  H   H16       1.0  0.38322  0.99617  0.35830  1.0000
  H   H17       1.0  0.36066  0.38109  0.97205  1.0000
  H   H18       1.0  0.63934  0.61891  0.02794  1.0000
  H   H19       1.0  0.55981  0.38975  0.04299  1.0000
  H   H20       1.0  0.44019  0.61024  0.95700  1.0000
  H   H21       1.0  0.90371  0.02999  0.12376  1.0000
  H   H22       1.0  0.09628  0.97000  0.87624  1.0000
  H   H23       1.0  0.96793  0.15103  0.05435  1.0000
  H   H24       1.0  0.03206  0.84897  0.94565  1.0000
  H   H25       1.0  0.88875  0.54781  0.72395  1.0000
  H   H26       1.0  0.11125  0.45220  0.27606  1.0000
  H   H27       1.0  0.81961  0.69465  0.70570  1.0000
  H   H28       1.0  0.18039  0.30536  0.29431  1.0000
  H   H29       1.0  0.85193  0.54870  0.56053  1.0000
  H   H30       1.0  0.14806  0.45131  0.43948  1.0000
  H   H31       1.0  0.14550  0.30513  0.67656  1.0000
  H   H32       1.0  0.85451  0.69487  0.32344  1.0000
  H   H33       1.0  0.02738  0.15261  0.54978  1.0000
  H   H34       1.0  0.97263  0.84739  0.45021  1.0000
  H   H35       1.0  0.21625  0.21176  0.51581  1.0000
  H   H36       1.0  0.78376  0.78824  0.48418  1.0000
  C   C1        1.0  0.27210  0.70740  0.31990  1.0000
  C   C2        1.0  0.72791  0.29260  0.68010  1.0000
  C   C3        1.0  0.30335  0.62331  0.19067  1.0000
  C   C4        1.0  0.69666  0.37670  0.80933  1.0000
  C   C5        1.0  0.42530  0.53893  0.17403  1.0000
  C   C6        1.0  0.57471  0.46107  0.82597  1.0000
  C   C7        1.0  0.50890  0.54190  0.29101  1.0000
  C   C8        1.0  0.49111  0.45810  0.70898  1.0000
  C   C9        1.0  0.46910  0.62802  0.41712  1.0000
  C   C10       1.0  0.53091  0.37198  0.58287  1.0000
  C   C11       1.0  0.51925  0.84983  0.84383  1.0000
  C   C12       1.0  0.48074  0.15017  0.15618  1.0000
  C   C13       1.0  0.65463  0.89552  0.93910  1.0000
  C   C14       1.0  0.34537  0.10447  0.06090  1.0000
  C   C15       1.0  0.78195  0.98772  0.92931  1.0000
  C   C16       1.0  0.21804  0.01227  0.07069  1.0000
  C   C17       1.0  0.76912  0.02604  0.81979  1.0000
  C   C18       1.0  0.23088  0.97396  0.18021  1.0000
  C   C19       1.0  0.63040  0.97678  0.72857  1.0000
  C   C20       1.0  0.36960  0.02323  0.27143  1.0000
  C   C21       1.0  0.46757  0.45323  0.03529  1.0000
  C   C22       1.0  0.53243  0.54676  0.96470  1.0000
  C   C23       1.0  0.92984  0.04037  0.02976  1.0000
  C   C24       1.0  0.07015  0.95962  0.97024  1.0000
  C   C25       1.0  0.07051  0.67618  0.67376  1.0000
  C   C26       1.0  0.92949  0.32382  0.32623  1.0000
  C   C27       1.0  0.89688  0.61314  0.66731  1.0000
  C   C28       1.0  0.10312  0.38687  0.33270  1.0000
  C   C29       1.0  0.22325  0.10860  0.65262  1.0000
  C   C30       1.0  0.77675  0.89139  0.34738  1.0000
  C   C31       1.0  0.15072  0.20224  0.59733  1.0000
  C   C32       1.0  0.84929  0.79775  0.40267  1.0000
  N   N1        1.0  0.35397  0.71047  0.43198  1.0000
  N   N2        1.0  0.64604  0.28952  0.56802  1.0000
  N   N3        1.0  0.50628  0.89111  0.74139  1.0000
  N   N4        1.0  0.49372  0.10889  0.25861  1.0000
  O   O1        1.0  0.08502  0.78273  0.64266  1.0000
  O   O2        1.0  0.91497  0.21727  0.35733  1.0000
  O   O3        1.0  0.18767  0.62609  0.70456  1.0000
  O   O4        1.0  0.81232  0.37391  0.29543  1.0000
  O   O5        1.0  0.27270  0.00107  0.56059  1.0000
  O   O6        1.0  0.72730  0.99892  0.43940  1.0000
  O   O7        1.0  0.22836  0.13158  0.77555  1.0000
  O   O8        1.0  0.77164  0.86841  0.22444  1.0000
