data_image0
_chemical_formula_structural       Zn2H28C28S4N4O8
_chemical_formula_sum              "Zn2 H28 C28 S4 N4 O8"
_cell_length_a       9.58854
_cell_length_b       9.58853
_cell_length_c       10.9462
_cell_angle_alpha    73.2951
_cell_angle_beta     73.295
_cell_angle_gamma    62.0682

_space_group_name_H-M_alt    "P 1"
_space_group_IT_number       1

loop_
  _space_group_symop_operation_xyz
  'x, y, z'

loop_
  _atom_site_type_symbol
  _atom_site_label
  _atom_site_symmetry_multiplicity
  _atom_site_fract_x
  _atom_site_fract_y
  _atom_site_fract_z
  _atom_site_occupancy
  Zn  Zn1       1.0  0.49530  0.58568  0.65396  1.0000
  Zn  Zn2       1.0  0.58568  0.49531  0.15396  1.0000
  H   H1        1.0  0.51258  0.77521  0.81578  1.0000
  H   H2        1.0  0.77521  0.51258  0.31578  1.0000
  H   H3        1.0  0.33910  0.92216  0.99713  1.0000
  H   H4        1.0  0.92216  0.33911  0.49713  1.0000
  H   H5        1.0  0.98455  0.76205  0.99590  1.0000
  H   H6        1.0  0.76205  0.98454  0.49589  1.0000
  H   H7        1.0  0.17645  0.61858  0.81648  1.0000
  H   H8        1.0  0.61858  0.17645  0.31647  1.0000
  H   H9        1.0  0.30650  0.56821  0.49227  1.0000
  H   H10       1.0  0.56821  0.30650  0.99227  1.0000
  H   H11       1.0  0.15998  0.74061  0.31049  1.0000
  H   H12       1.0  0.74061  0.15998  0.81049  1.0000
  H   H13       1.0  0.31834  0.09666  0.31175  1.0000
  H   H14       1.0  0.09666  0.31834  0.81175  1.0000
  H   H15       1.0  0.46118  0.90564  0.49191  1.0000
  H   H16       1.0  0.90564  0.46118  0.99191  1.0000
  H   H17       1.0  0.96397  0.71893  0.50376  1.0000
  H   H18       1.0  0.71893  0.96397  0.00375  1.0000
  H   H19       1.0  0.00795  0.50979  0.56057  1.0000
  H   H20       1.0  0.50979  0.00795  0.06057  1.0000
  H   H21       1.0  0.96491  0.63425  0.66998  1.0000
  H   H22       1.0  0.63425  0.96491  0.16998  1.0000
  H   H23       1.0  0.43502  0.10966  0.84117  1.0000
  H   H24       1.0  0.10966  0.43502  0.34117  1.0000
  H   H25       1.0  0.57153  0.07558  0.69196  1.0000
  H   H26       1.0  0.07558  0.57153  0.19196  1.0000
  H   H27       1.0  0.36549  0.12251  0.70321  1.0000
  H   H28       1.0  0.12251  0.36548  0.20320  1.0000
  C   C1        1.0  0.39486  0.77573  0.85888  1.0000
  C   C2        1.0  0.77573  0.39486  0.35889  1.0000
  C   C3        1.0  0.29624  0.86065  0.95757  1.0000
  C   C4        1.0  0.86065  0.29624  0.45758  1.0000
  C   C5        1.0  0.14500  0.86072  0.00705  1.0000
  C   C6        1.0  0.86072  0.14500  0.50705  1.0000
  C   C7        1.0  0.09843  0.77293  0.95682  1.0000
  C   C8        1.0  0.77293  0.09843  0.45681  1.0000
  C   C9        1.0  0.20488  0.69060  0.85848  1.0000
  C   C10       1.0  0.69061  0.20488  0.35848  1.0000
  C   C11       1.0  0.30568  0.68604  0.44899  1.0000
  C   C12       1.0  0.68604  0.30568  0.94898  1.0000
  C   C13       1.0  0.22077  0.78425  0.35015  1.0000
  C   C14       1.0  0.78425  0.22077  0.85016  1.0000
  C   C15       1.0  0.22033  0.93565  0.30070  1.0000
  C   C16       1.0  0.93565  0.22033  0.80069  1.0000
  C   C17       1.0  0.30780  0.98266  0.35090  1.0000
  C   C18       1.0  0.98266  0.30780  0.85090  1.0000
  C   C19       1.0  0.38985  0.87666  0.44956  1.0000
  C   C20       1.0  0.87666  0.38985  0.94956  1.0000
  C   C21       1.0  0.75594  0.67416  0.60464  1.0000
  C   C22       1.0  0.67416  0.75594  0.10464  1.0000
  C   C23       1.0  0.93378  0.63101  0.58211  1.0000
  C   C24       1.0  0.63101  0.93378  0.08211  1.0000
  C   C25       1.0  0.40682  0.32553  0.70388  1.0000
  C   C26       1.0  0.32553  0.40682  0.20388  1.0000
  C   C27       1.0  0.44851  0.14742  0.73519  1.0000
  C   C28       1.0  0.14743  0.44851  0.23518  1.0000
  S   S1        1.0  0.00456  0.96607  0.13072  1.0000
  S   S2        1.0  0.96606  0.00456  0.63072  1.0000
  S   S3        1.0  0.11465  0.07568  0.17708  1.0000
  S   S4        1.0  0.07568  0.11466  0.67708  1.0000
  N   N1        1.0  0.35075  0.69222  0.80911  1.0000
  N   N2        1.0  0.69222  0.35075  0.30911  1.0000
  N   N3        1.0  0.38859  0.73061  0.49896  1.0000
  N   N4        1.0  0.73061  0.38859  0.99896  1.0000
  O   O1        1.0  0.71842  0.55342  0.63363  1.0000
  O   O2        1.0  0.55342  0.71842  0.13363  1.0000
  O   O3        1.0  0.65641  0.81848  0.59678  1.0000
  O   O4        1.0  0.81848  0.65641  0.09678  1.0000
  O   O5        1.0  0.52815  0.36235  0.67364  1.0000
  O   O6        1.0  0.36235  0.52815  0.17364  1.0000
  O   O7        1.0  0.26284  0.42577  0.71076  1.0000
  O   O8        1.0  0.42577  0.26284  0.21076  1.0000
