data_image0
_chemical_formula_structural       Zn4H32C64N32
_chemical_formula_sum              "Zn4 H32 C64 N32"
_cell_length_a       10.1038
_cell_length_b       10.9429
_cell_length_c       14.1351
_cell_angle_alpha    90
_cell_angle_beta     101.109
_cell_angle_gamma    90

_space_group_name_H-M_alt    "P 1"
_space_group_IT_number       1

loop_
  _space_group_symop_operation_xyz
  'x, y, z'

loop_
  _atom_site_type_symbol
  _atom_site_label
  _atom_site_symmetry_multiplicity
  _atom_site_fract_x
  _atom_site_fract_y
  _atom_site_fract_z
  _atom_site_occupancy
  Zn  Zn1       1.0  0.84944  0.12722  0.25353  1.0000
  Zn  Zn2       1.0  0.15056  0.62722  0.24648  1.0000
  Zn  Zn3       1.0  0.15056  0.87278  0.74647  1.0000
  Zn  Zn4       1.0  0.84944  0.37277  0.75353  1.0000
  H   H1        1.0  0.69471  0.37590  0.19271  1.0000
  H   H2        1.0  0.30529  0.87591  0.30729  1.0000
  H   H3        1.0  0.30529  0.62410  0.80729  1.0000
  H   H4        1.0  0.69471  0.12410  0.69271  1.0000
  H   H5        1.0  0.46354  0.43514  0.10286  1.0000
  H   H6        1.0  0.53646  0.93514  0.39714  1.0000
  H   H7        1.0  0.53646  0.56486  0.89714  1.0000
  H   H8        1.0  0.46354  0.06486  0.60286  1.0000
  H   H9        1.0  0.29567  0.27052  0.04413  1.0000
  H   H10       1.0  0.70432  0.77052  0.45587  1.0000
  H   H11       1.0  0.70433  0.72948  0.95587  1.0000
  H   H12       1.0  0.29568  0.22948  0.54413  1.0000
  H   H13       1.0  0.24353  0.04299  0.03183  1.0000
  H   H14       1.0  0.75647  0.54299  0.46817  1.0000
  H   H15       1.0  0.75647  0.95701  0.96817  1.0000
  H   H16       1.0  0.24353  0.45701  0.53183  1.0000
  H   H17       1.0  0.32195  0.82816  0.06494  1.0000
  H   H18       1.0  0.67805  0.32816  0.43506  1.0000
  H   H19       1.0  0.67805  0.17184  0.93506  1.0000
  H   H20       1.0  0.32195  0.67184  0.56494  1.0000
  H   H21       1.0  0.50781  0.68209  0.13156  1.0000
  H   H22       1.0  0.49219  0.18209  0.36843  1.0000
  H   H23       1.0  0.49219  0.31791  0.86844  1.0000
  H   H24       1.0  0.50781  0.81791  0.63156  1.0000
  H   H25       1.0  0.74964  0.65233  0.21706  1.0000
  H   H26       1.0  0.25036  0.15233  0.28294  1.0000
  H   H27       1.0  0.25036  0.34767  0.78294  1.0000
  H   H28       1.0  0.74964  0.84767  0.71706  1.0000
  H   H29       1.0  0.89205  0.83692  0.26893  1.0000
  H   H30       1.0  0.10795  0.33692  0.23107  1.0000
  H   H31       1.0  0.10795  0.16308  0.73107  1.0000
  H   H32       1.0  0.89205  0.66308  0.76893  1.0000
  C   C1        1.0  0.61903  0.30713  0.16496  1.0000
  C   C2        1.0  0.38097  0.80713  0.33504  1.0000
  C   C3        1.0  0.38097  0.69287  0.83504  1.0000
  C   C4        1.0  0.61904  0.19287  0.66496  1.0000
  C   C5        1.0  0.48967  0.33916  0.11482  1.0000
  C   C6        1.0  0.51033  0.83917  0.38519  1.0000
  C   C7        1.0  0.51033  0.66083  0.88518  1.0000
  C   C8        1.0  0.48968  0.16083  0.61482  1.0000
  C   C9        1.0  0.39679  0.24802  0.08302  1.0000
  C   C10       1.0  0.60321  0.74803  0.41698  1.0000
  C   C11       1.0  0.60321  0.75197  0.91698  1.0000
  C   C12       1.0  0.39679  0.25197  0.58302  1.0000
  C   C13       1.0  0.43397  0.12434  0.10076  1.0000
  C   C14       1.0  0.56603  0.62435  0.39923  1.0000
  C   C15       1.0  0.56603  0.87565  0.89923  1.0000
  C   C16       1.0  0.43398  0.37566  0.60076  1.0000
  C   C17       1.0  0.34579  0.02325  0.07012  1.0000
  C   C18       1.0  0.65421  0.52325  0.42988  1.0000
  C   C19       1.0  0.65421  0.97675  0.92988  1.0000
  C   C20       1.0  0.34579  0.47675  0.57012  1.0000
  C   C21       1.0  0.38876  0.90538  0.08747  1.0000
  C   C22       1.0  0.61123  0.40538  0.41253  1.0000
  C   C23       1.0  0.61124  0.09462  0.91253  1.0000
  C   C24       1.0  0.38877  0.59462  0.58747  1.0000
  C   C25       1.0  0.52364  0.87904  0.13646  1.0000
  C   C26       1.0  0.47636  0.37904  0.36354  1.0000
  C   C27       1.0  0.47636  0.12097  0.86354  1.0000
  C   C28       1.0  0.52364  0.62096  0.63646  1.0000
  C   C29       1.0  0.57480  0.75920  0.15433  1.0000
  C   C30       1.0  0.42520  0.25920  0.34567  1.0000
  C   C31       1.0  0.42520  0.24080  0.84567  1.0000
  C   C32       1.0  0.57480  0.74081  0.65433  1.0000
  C   C33       1.0  0.70676  0.74308  0.20171  1.0000
  C   C34       1.0  0.29324  0.24308  0.29829  1.0000
  C   C35       1.0  0.29324  0.25692  0.79829  1.0000
  C   C36       1.0  0.70676  0.75692  0.70171  1.0000
  C   C37       1.0  0.78763  0.84601  0.23127  1.0000
  C   C38       1.0  0.21237  0.34601  0.26873  1.0000
  C   C39       1.0  0.21237  0.15399  0.76873  1.0000
  C   C40       1.0  0.78763  0.65399  0.73127  1.0000
  C   C41       1.0  0.61282  0.97704  0.16828  1.0000
  C   C42       1.0  0.38718  0.47704  0.33172  1.0000
  C   C43       1.0  0.38718  0.02296  0.83171  1.0000
  C   C44       1.0  0.61282  0.52296  0.66828  1.0000
  C   C45       1.0  0.56735  0.10107  0.15059  1.0000
  C   C46       1.0  0.43265  0.60107  0.34941  1.0000
  C   C47       1.0  0.43265  0.89893  0.84941  1.0000
  C   C48       1.0  0.56735  0.39893  0.65059  1.0000
  C   C49       1.0  0.10233  0.02066  0.39870  1.0000
  C   C50       1.0  0.89767  0.52066  0.10130  1.0000
  C   C51       1.0  0.89767  0.97934  0.60130  1.0000
  C   C52       1.0  0.10233  0.47934  0.89870  1.0000
  C   C53       1.0  0.24832  0.94399  0.53092  1.0000
  C   C54       1.0  0.75168  0.44398  0.96908  1.0000
  C   C55       1.0  0.75168  0.05602  0.46909  1.0000
  C   C56       1.0  0.24832  0.55602  0.03092  1.0000
  C   C57       1.0  0.95436  0.32065  0.39789  1.0000
  C   C58       1.0  0.04564  0.82064  0.10211  1.0000
  C   C59       1.0  0.04564  0.67936  0.60211  1.0000
  C   C60       1.0  0.95436  0.17935  0.89789  1.0000
  C   C61       1.0  0.97430  0.34957  0.56089  1.0000
  C   C62       1.0  0.02570  0.84957  0.93911  1.0000
  C   C63       1.0  0.02570  0.65043  0.43911  1.0000
  C   C64       1.0  0.97430  0.15043  0.06089  1.0000
  N   N1        1.0  0.65640  0.19153  0.18180  1.0000
  N   N2        1.0  0.34360  0.69153  0.31820  1.0000
  N   N3        1.0  0.34360  0.80847  0.81820  1.0000
  N   N4        1.0  0.65640  0.30847  0.68180  1.0000
  N   N5        1.0  0.74165  0.95941  0.21455  1.0000
  N   N6        1.0  0.25835  0.45941  0.28545  1.0000
  N   N7        1.0  0.25835  0.04059  0.78545  1.0000
  N   N8        1.0  0.74165  0.54059  0.71455  1.0000
  N   N9        1.0  0.00125  0.03760  0.34296  1.0000
  N   N10       1.0  0.99875  0.53759  0.15705  1.0000
  N   N11       1.0  0.99875  0.96240  0.65705  1.0000
  N   N12       1.0  0.00125  0.46240  0.84295  1.0000
  N   N13       1.0  0.21959  0.00929  0.45295  1.0000
  N   N14       1.0  0.78041  0.50929  0.04705  1.0000
  N   N15       1.0  0.78041  0.99071  0.54705  1.0000
  N   N16       1.0  0.21959  0.49071  0.95295  1.0000
  N   N17       1.0  0.28740  0.88908  0.60287  1.0000
  N   N18       1.0  0.71260  0.38908  0.89714  1.0000
  N   N19       1.0  0.71260  0.11092  0.39714  1.0000
  N   N20       1.0  0.28740  0.61092  0.10287  1.0000
  N   N21       1.0  0.90196  0.29758  0.31775  1.0000
  N   N22       1.0  0.09804  0.79758  0.18225  1.0000
  N   N23       1.0  0.09804  0.70242  0.68225  1.0000
  N   N24       1.0  0.90196  0.20242  0.81775  1.0000
  N   N25       1.0  0.02220  0.34733  0.48237  1.0000
  N   N26       1.0  0.97780  0.84733  0.01763  1.0000
  N   N27       1.0  0.97780  0.65267  0.51763  1.0000
  N   N28       1.0  0.02220  0.15267  0.98237  1.0000
  N   N29       1.0  0.94368  0.35381  0.63702  1.0000
  N   N30       1.0  0.05632  0.85381  0.86298  1.0000
  N   N31       1.0  0.05632  0.64618  0.36298  1.0000
  N   N32       1.0  0.94368  0.14619  0.13702  1.0000
