data_image0
_chemical_formula_structural       Ni2H12C8O12
_chemical_formula_sum              "Ni2 H12 C8 O12"
_cell_length_a       7.47453
_cell_length_b       7.59986
_cell_length_c       8.059
_cell_angle_alpha    76.469
_cell_angle_beta     62.357
_cell_angle_gamma    60.5431

_space_group_name_H-M_alt    "P 1"
_space_group_IT_number       1

loop_
  _space_group_symop_operation_xyz
  'x, y, z'

loop_
  _atom_site_type_symbol
  _atom_site_label
  _atom_site_symmetry_multiplicity
  _atom_site_fract_x
  _atom_site_fract_y
  _atom_site_fract_z
  _atom_site_occupancy
  Ni  Ni1       1.0  0.88641  0.75441  0.20268  1.0000
  Ni  Ni2       1.0  0.15655  0.25437  0.70267  1.0000
  H   H1        1.0  0.62205  0.75796  0.53667  1.0000
  H   H2        1.0  0.08335  0.25773  0.03672  1.0000
  H   H3        1.0  0.85302  0.54685  0.49165  1.0000
  H   H4        1.0  0.10837  0.04673  0.99161  1.0000
  H   H5        1.0  0.45125  0.89740  0.24066  1.0000
  H   H6        1.0  0.41077  0.39732  0.74055  1.0000
  H   H7        1.0  0.51141  0.83554  0.96055  1.0000
  H   H8        1.0  0.69256  0.33580  0.46031  1.0000
  H   H9        1.0  0.61925  0.09382  0.80747  1.0000
  H   H10       1.0  0.47935  0.59386  0.30738  1.0000
  H   H11       1.0  0.83817  0.87282  0.67867  1.0000
  H   H12       1.0  0.61024  0.37291  0.17859  1.0000
  C   C1        1.0  0.83044  0.60154  0.95337  1.0000
  C   C2        1.0  0.61483  0.10166  0.45326  1.0000
  C   C3        1.0  0.65791  0.82377  0.97120  1.0000
  C   C4        1.0  0.54721  0.32389  0.47105  1.0000
  C   C5        1.0  0.75837  0.94756  0.81318  1.0000
  C   C6        1.0  0.48085  0.44758  0.31315  1.0000
  C   C7        1.0  0.92989  0.99091  0.82624  1.0000
  C   C8        1.0  0.25290  0.49085  0.32638  1.0000
  O   O1        1.0  0.93840  0.53038  0.05764  1.0000
  O   O2        1.0  0.47384  0.03041  0.55751  1.0000
  O   O3        1.0  0.72163  0.63519  0.45805  1.0000
  O   O4        1.0  0.18507  0.13502  0.95803  1.0000
  O   O5        1.0  0.85800  0.50420  0.82917  1.0000
  O   O6        1.0  0.80884  0.00432  0.32899  1.0000
  O   O7        1.0  0.58590  0.91018  0.14672  1.0000
  O   O8        1.0  0.35725  0.41023  0.64664  1.0000
  O   O9        1.0  0.00908  0.90705  0.95017  1.0000
  O   O10       1.0  0.13359  0.40704  0.45026  1.0000
  O   O11       1.0  0.98338  0.11700  0.70449  1.0000
  O   O12       1.0  0.19510  0.61703  0.20460  1.0000
