data_image0
_chemical_formula_structural       Co4H16C24N16O8
_chemical_formula_sum              "Co4 H16 C24 N16 O8"
_cell_length_a       5.86243
_cell_length_b       10.1592
_cell_length_c       12.5802
_cell_angle_alpha    89.9999
_cell_angle_beta     89.9997
_cell_angle_gamma    89.9992

_space_group_name_H-M_alt    "P 1"
_space_group_IT_number       1

loop_
  _space_group_symop_operation_xyz
  'x, y, z'

loop_
  _atom_site_type_symbol
  _atom_site_label
  _atom_site_symmetry_multiplicity
  _atom_site_fract_x
  _atom_site_fract_y
  _atom_site_fract_z
  _atom_site_occupancy
  Co  Co1       1.0  0.20842  0.68006  0.49368  1.0000
  Co  Co2       1.0  0.29157  0.31994  0.99368  1.0000
  Co  Co3       1.0  0.79157  0.18004  0.00632  1.0000
  Co  Co4       1.0  0.70842  0.81996  0.50633  1.0000
  H   H1        1.0  0.71507  0.03683  0.21244  1.0000
  H   H2        1.0  0.78492  0.96318  0.71244  1.0000
  H   H3        1.0  0.28489  0.53683  0.28755  1.0000
  H   H4        1.0  0.21509  0.46316  0.78755  1.0000
  H   H5        1.0  0.47542  0.99607  0.90328  1.0000
  H   H6        1.0  0.02458  0.00392  0.40329  1.0000
  H   H7        1.0  0.52459  0.49610  0.59671  1.0000
  H   H8        1.0  0.97543  0.50391  0.09671  1.0000
  H   H9        1.0  0.18587  0.75355  0.15137  1.0000
  H   H10       1.0  0.31414  0.24644  0.65136  1.0000
  H   H11       1.0  0.81413  0.25356  0.34863  1.0000
  H   H12       1.0  0.68590  0.74646  0.84864  1.0000
  H   H13       1.0  0.20276  0.82059  0.95719  1.0000
  H   H14       1.0  0.29725  0.17940  0.45719  1.0000
  H   H15       1.0  0.79726  0.32061  0.54281  1.0000
  H   H16       1.0  0.70279  0.67941  0.04282  1.0000
  C   C1        1.0  0.45575  0.85142  0.31075  1.0000
  C   C2        1.0  0.04425  0.14858  0.81075  1.0000
  C   C3        1.0  0.54423  0.35141  0.18925  1.0000
  C   C4        1.0  0.95576  0.64859  0.68925  1.0000
  C   C5        1.0  0.60135  0.98577  0.15795  1.0000
  C   C6        1.0  0.89864  0.01424  0.65795  1.0000
  C   C7        1.0  0.39862  0.48577  0.34205  1.0000
  C   C8        1.0  0.10136  0.51422  0.84205  1.0000
  C   C9        1.0  0.46530  0.96310  0.98548  1.0000
  C   C10       1.0  0.03470  0.03690  0.48547  1.0000
  C   C11       1.0  0.53470  0.46311  0.51452  1.0000
  C   C12       1.0  0.96531  0.53689  0.01453  1.0000
  C   C13       1.0  0.30559  0.82776  0.12310  1.0000
  C   C14       1.0  0.19442  0.17223  0.62310  1.0000
  C   C15       1.0  0.69440  0.32777  0.37690  1.0000
  C   C16       1.0  0.80562  0.67224  0.87690  1.0000
  C   C17       1.0  0.45456  0.88807  0.19516  1.0000
  C   C18       1.0  0.04543  0.11192  0.69516  1.0000
  C   C19       1.0  0.54541  0.38808  0.30484  1.0000
  C   C20       1.0  0.95459  0.61192  0.80485  1.0000
  C   C21       1.0  0.31355  0.86509  0.01657  1.0000
  C   C22       1.0  0.18646  0.13490  0.51656  1.0000
  C   C23       1.0  0.68646  0.36511  0.48343  1.0000
  C   C24       1.0  0.81355  0.63490  0.98344  1.0000
  N   N1        1.0  0.37332  0.83237  0.66551  1.0000
  N   N2        1.0  0.12668  0.16762  0.16551  1.0000
  N   N3        1.0  0.62669  0.33239  0.83449  1.0000
  N   N4        1.0  0.87330  0.66762  0.33449  1.0000
  N   N5        1.0  0.40041  0.81344  0.57073  1.0000
  N   N6        1.0  0.09959  0.18655  0.07073  1.0000
  N   N7        1.0  0.59959  0.31344  0.92928  1.0000
  N   N8        1.0  0.90039  0.68656  0.42928  1.0000
  N   N9        1.0  0.60441  0.02424  0.05547  1.0000
  N   N10       1.0  0.89559  0.97577  0.55547  1.0000
  N   N11       1.0  0.39559  0.52425  0.44452  1.0000
  N   N12       1.0  0.10441  0.47575  0.94452  1.0000
  N   N13       1.0  0.34691  0.85304  0.75520  1.0000
  N   N14       1.0  0.15309  0.14695  0.25520  1.0000
  N   N15       1.0  0.65309  0.35306  0.74481  1.0000
  N   N16       1.0  0.84691  0.64695  0.24481  1.0000
  O   O1        1.0  0.30513  0.77126  0.34202  1.0000
  O   O2        1.0  0.19487  0.22874  0.84202  1.0000
  O   O3        1.0  0.69484  0.27125  0.15798  1.0000
  O   O4        1.0  0.80517  0.72876  0.65798  1.0000
  O   O5        1.0  0.61206  0.90337  0.36842  1.0000
  O   O6        1.0  0.88792  0.09664  0.86842  1.0000
  O   O7        1.0  0.38790  0.40336  0.13158  1.0000
  O   O8        1.0  0.11209  0.59663  0.63158  1.0000
