data_image0
_chemical_formula_structural       Ag2H24C24S4N10O6
_chemical_formula_sum              "Ag2 H24 C24 S4 N10 O6"
_cell_length_a       8.94325
_cell_length_b       8.90503
_cell_length_c       10.2388
_cell_angle_alpha    83.1523
_cell_angle_beta     79.0049
_cell_angle_gamma    72.0965

_space_group_name_H-M_alt    "P 1"
_space_group_IT_number       1

loop_
  _space_group_symop_operation_xyz
  'x, y, z'

loop_
  _atom_site_type_symbol
  _atom_site_label
  _atom_site_symmetry_multiplicity
  _atom_site_fract_x
  _atom_site_fract_y
  _atom_site_fract_z
  _atom_site_occupancy
  Ag  Ag1       1.0  0.59382  0.55770  0.65751  1.0000
  Ag  Ag2       1.0  0.40618  0.44230  0.34249  1.0000
  H   H1        1.0  0.52854  0.93421  0.79390  1.0000
  H   H2        1.0  0.47145  0.06579  0.20611  1.0000
  H   H3        1.0  0.26777  0.00104  0.70663  1.0000
  H   H4        1.0  0.73222  0.99897  0.29337  1.0000
  H   H5        1.0  0.22675  0.21136  0.51489  1.0000
  H   H6        1.0  0.77325  0.78865  0.48510  1.0000
  H   H7        1.0  0.95077  0.30221  0.55791  1.0000
  H   H8        1.0  0.04922  0.69780  0.44209  1.0000
  H   H9        1.0  0.85567  0.17259  0.66311  1.0000
  H   H10       1.0  0.14433  0.82741  0.33689  1.0000
  H   H11       1.0  0.03356  0.10462  0.37298  1.0000
  H   H12       1.0  0.96643  0.89539  0.62702  1.0000
  H   H13       1.0  0.25608  0.51260  0.74918  1.0000
  H   H14       1.0  0.74392  0.48739  0.25082  1.0000
  H   H15       1.0  0.12548  0.33846  0.90931  1.0000
  H   H16       1.0  0.87452  0.66153  0.09069  1.0000
  H   H17       1.0  0.28822  0.16011  0.07679  1.0000
  H   H18       1.0  0.71178  0.83989  0.92322  1.0000
  H   H19       1.0  0.87101  0.23919  0.09650  1.0000
  H   H20       1.0  0.12900  0.76079  0.90350  1.0000
  H   H21       1.0  0.70421  0.16783  0.09528  1.0000
  H   H22       1.0  0.29580  0.83216  0.90471  1.0000
  H   H23       1.0  0.88242  0.97156  0.92068  1.0000
  H   H24       1.0  0.11758  0.02843  0.07932  1.0000
  C   C1        1.0  0.57838  0.20789  0.56378  1.0000
  C   C2        1.0  0.42162  0.79211  0.43622  1.0000
  C   C3        1.0  0.50110  0.02495  0.71333  1.0000
  C   C4        1.0  0.49889  0.97505  0.28668  1.0000
  C   C5        1.0  0.35725  0.06106  0.66563  1.0000
  C   C6        1.0  0.64275  0.93895  0.33437  1.0000
  C   C7        1.0  0.33327  0.17629  0.56127  1.0000
  C   C8        1.0  0.66673  0.82372  0.43873  1.0000
  C   C9        1.0  0.89187  0.21015  0.55898  1.0000
  C   C10       1.0  0.10813  0.78985  0.44102  1.0000
  C   C11       1.0  0.98666  0.07566  0.47640  1.0000
  C   C12       1.0  0.01334  0.92435  0.52360  1.0000
  C   C13       1.0  0.55108  0.32702  0.91207  1.0000
  C   C14       1.0  0.44891  0.67298  0.08793  1.0000
  C   C15       1.0  0.32076  0.43071  0.82121  1.0000
  C   C16       1.0  0.67924  0.56929  0.17879  1.0000
  C   C17       1.0  0.24784  0.33437  0.91069  1.0000
  C   C18       1.0  0.75217  0.66563  0.08931  1.0000
  C   C19       1.0  0.33824  0.23614  0.00109  1.0000
  C   C20       1.0  0.66176  0.76386  0.99891  1.0000
  C   C21       1.0  0.81558  0.18382  0.03668  1.0000
  C   C22       1.0  0.18443  0.81616  0.96332  1.0000
  C   C23       1.0  0.92623  0.03214  0.98537  1.0000
  C   C24       1.0  0.07376  0.96785  0.01462  1.0000
  S   S1        1.0  0.70985  0.31849  0.49262  1.0000
  S   S2        1.0  0.29015  0.68151  0.50738  1.0000
  S   S3        1.0  0.74733  0.33059  0.90325  1.0000
  S   S4        1.0  0.25267  0.66940  0.09676  1.0000
  N   N1        1.0  0.44417  0.24922  0.50892  1.0000
  N   N2        1.0  0.55583  0.75078  0.49108  1.0000
  N   N3        1.0  0.61198  0.09890  0.66355  1.0000
  N   N4        1.0  0.38802  0.90110  0.33645  1.0000
  N   N5        1.0  0.47195  0.42857  0.82095  1.0000
  N   N6        1.0  0.52805  0.57143  0.17905  1.0000
  N   N7        1.0  0.48935  0.23171  0.00190  1.0000
  N   N8        1.0  0.51065  0.76829  0.99810  1.0000
  N   N9        1.0  0.92469  0.61191  0.72688  1.0000
  N   N10       1.0  0.07532  0.38809  0.27311  1.0000
  O   O1        1.0  0.78251  0.68201  0.70422  1.0000
  O   O2        1.0  0.21750  0.31798  0.29578  1.0000
  O   O3        1.0  0.00278  0.48160  0.67837  1.0000
  O   O4        1.0  0.99723  0.51840  0.32161  1.0000
  O   O5        1.0  0.98446  0.67812  0.79771  1.0000
  O   O6        1.0  0.01555  0.32188  0.20229  1.0000
