data_image0
_chemical_formula_structural       Ag2B2H18C14S4N6F8
_chemical_formula_sum              "Ag2 B2 H18 C14 S4 N6 F8"
_cell_length_a       7.32043
_cell_length_b       8.71864
_cell_length_c       11.1395
_cell_angle_alpha    79.7789
_cell_angle_beta     78.5757
_cell_angle_gamma    68.315

_space_group_name_H-M_alt    "P 1"
_space_group_IT_number       1

loop_
  _space_group_symop_operation_xyz
  'x, y, z'

loop_
  _atom_site_type_symbol
  _atom_site_label
  _atom_site_symmetry_multiplicity
  _atom_site_fract_x
  _atom_site_fract_y
  _atom_site_fract_z
  _atom_site_occupancy
  Ag  Ag1       1.0  0.46136  0.62882  0.35093  1.0000
  Ag  Ag2       1.0  0.53862  0.37116  0.64909  1.0000
  B   B1        1.0  0.63773  0.29492  0.15045  1.0000
  B   B2        1.0  0.36225  0.70512  0.84954  1.0000
  H   H1        1.0  0.16573  0.34098  0.81736  1.0000
  H   H2        1.0  0.83424  0.65902  0.18265  1.0000
  H   H3        1.0  0.90022  0.44195  0.84055  1.0000
  H   H4        1.0  0.09976  0.55806  0.15947  1.0000
  H   H5        1.0  0.05975  0.53285  0.87952  1.0000
  H   H6        1.0  0.94025  0.46715  0.12049  1.0000
  H   H7        1.0  0.68236  0.96239  0.27243  1.0000
  H   H8        1.0  0.31770  0.03761  0.72754  1.0000
  H   H9        1.0  0.68323  0.78599  0.38254  1.0000
  H   H10       1.0  0.31678  0.21401  0.61743  1.0000
  H   H11       1.0  0.57833  0.14434  0.44683  1.0000
  H   H12       1.0  0.42168  0.85566  0.55313  1.0000
  H   H13       1.0  0.06394  0.14765  0.10631  1.0000
  H   H14       1.0  0.93607  0.85232  0.89371  1.0000
  H   H15       1.0  0.22409  0.05717  0.97304  1.0000
  H   H16       1.0  0.77591  0.94280  0.02697  1.0000
  H   H17       1.0  0.29129  0.18899  0.04976  1.0000
  H   H18       1.0  0.70873  0.81098  0.95025  1.0000
  C   C1        1.0  0.04341  0.46082  0.81315  1.0000
  C   C2        1.0  0.95658  0.53918  0.18687  1.0000
  C   C3        1.0  0.06044  0.55003  0.68724  1.0000
  C   C4        1.0  0.93954  0.44997  0.31277  1.0000
  C   C5        1.0  0.02088  0.72855  0.49503  1.0000
  C   C6        1.0  0.97911  0.27145  0.50498  1.0000
  C   C7        1.0  0.70407  0.90683  0.36746  1.0000
  C   C8        1.0  0.29595  0.09317  0.63252  1.0000
  C   C9        1.0  0.56688  0.02098  0.45657  1.0000
  C   C10       1.0  0.43314  0.97902  0.54339  1.0000
  C   C11       1.0  0.32481  0.95246  0.14027  1.0000
  C   C12       1.0  0.67522  0.04751  0.85974  1.0000
  C   C13       1.0  0.21908  0.09572  0.06260  1.0000
  C   C14       1.0  0.78093  0.90425  0.93741  1.0000
  S   S1        1.0  0.96608  0.87089  0.36640  1.0000
  S   S2        1.0  0.03395  0.12909  0.63360  1.0000
  S   S3        1.0  0.86006  0.70243  0.62718  1.0000
  S   S4        1.0  0.13993  0.29757  0.37284  1.0000
  N   N1        1.0  0.20652  0.62721  0.50103  1.0000
  N   N2        1.0  0.79346  0.37278  0.49898  1.0000
  N   N3        1.0  0.22782  0.52770  0.61102  1.0000
  N   N4        1.0  0.77216  0.47229  0.38899  1.0000
  N   N5        1.0  0.40701  0.83696  0.20426  1.0000
  N   N6        1.0  0.59302  0.16301  0.79575  1.0000
  F   F1        1.0  0.47042  0.41602  0.21035  1.0000
  F   F2        1.0  0.52953  0.58396  0.78967  1.0000
  F   F3        1.0  0.57370  0.17229  0.12133  1.0000
  F   F4        1.0  0.42635  0.82775  0.87860  1.0000
  F   F5        1.0  0.78046  0.21593  0.23349  1.0000
  F   F6        1.0  0.21952  0.78408  0.76650  1.0000
  F   F7        1.0  0.72666  0.36786  0.04403  1.0000
  F   F8        1.0  0.27327  0.63228  0.95599  1.0000
