data_image0
_chemical_formula_structural       Zn2H28C26N2O8
_chemical_formula_sum              "Zn2 H28 C26 N2 O8"
_cell_length_a       7.93125
_cell_length_b       8.71932
_cell_length_c       9.78429
_cell_angle_alpha    74.6857
_cell_angle_beta     76.0824
_cell_angle_gamma    77.502

_space_group_name_H-M_alt    "P 1"
_space_group_IT_number       1

loop_
  _space_group_symop_operation_xyz
  'x, y, z'

loop_
  _atom_site_type_symbol
  _atom_site_label
  _atom_site_symmetry_multiplicity
  _atom_site_fract_x
  _atom_site_fract_y
  _atom_site_fract_z
  _atom_site_occupancy
  Zn  Zn1       1.0  0.91782  0.98937  0.38943  1.0000
  Zn  Zn2       1.0  0.08218  0.01061  0.61057  1.0000
  H   H1        1.0  0.14914  0.41400  0.64420  1.0000
  H   H2        1.0  0.85088  0.58600  0.35579  1.0000
  H   H3        1.0  0.24315  0.43395  0.78602  1.0000
  H   H4        1.0  0.75688  0.56605  0.21396  1.0000
  H   H5        1.0  0.26323  0.57534  0.61819  1.0000
  H   H6        1.0  0.73677  0.42467  0.38180  1.0000
  H   H7        1.0  0.43640  0.31634  0.50879  1.0000
  H   H8        1.0  0.56361  0.68367  0.49119  1.0000
  H   H9        1.0  0.56385  0.31750  0.78135  1.0000
  H   H10       1.0  0.43616  0.68251  0.21864  1.0000
  H   H11       1.0  0.15366  0.68137  0.93261  1.0000
  H   H12       1.0  0.84636  0.31861  0.06740  1.0000
  H   H13       1.0  0.26110  0.69727  0.06874  1.0000
  H   H14       1.0  0.73889  0.30269  0.93127  1.0000
  H   H15       1.0  0.37114  0.58511  0.93523  1.0000
  H   H16       1.0  0.62886  0.41487  0.06480  1.0000
  H   H17       1.0  0.13490  0.39159  0.04873  1.0000
  H   H18       1.0  0.86510  0.60838  0.95127  1.0000
  H   H19       1.0  0.21578  0.48919  0.30320  1.0000
  H   H20       1.0  0.78420  0.51081  0.69679  1.0000
  H   H21       1.0  0.97033  0.86885  0.12276  1.0000
  H   H22       1.0  0.02967  0.13119  0.87723  1.0000
  H   H23       1.0  0.80072  0.87581  0.93874  1.0000
  H   H24       1.0  0.19929  0.12423  0.06126  1.0000
  H   H25       1.0  0.35410  0.13124  0.18809  1.0000
  H   H26       1.0  0.64589  0.86877  0.81192  1.0000
  H   H27       1.0  0.54705  0.12099  0.35685  1.0000
  H   H28       1.0  0.45293  0.87901  0.64316  1.0000
  C   C1        1.0  0.26279  0.44665  0.66898  1.0000
  C   C2        1.0  0.73722  0.55336  0.33101  1.0000
  C   C3        1.0  0.42848  0.34661  0.61194  1.0000
  C   C4        1.0  0.57154  0.65340  0.38804  1.0000
  C   C5        1.0  0.56659  0.29022  0.67817  1.0000
  C   C6        1.0  0.43342  0.70978  0.32182  1.0000
  C   C7        1.0  0.72818  0.18647  0.62143  1.0000
  C   C8        1.0  0.27182  0.81352  0.37857  1.0000
  C   C9        1.0  0.24405  0.61603  0.00626  1.0000
  C   C10       1.0  0.75596  0.38397  0.99373  1.0000
  C   C11       1.0  0.17971  0.46768  0.10115  1.0000
  C   C12       1.0  0.82029  0.53230  0.89887  1.0000
  C   C13       1.0  0.17265  0.41918  0.24429  1.0000
  C   C14       1.0  0.82734  0.58080  0.75573  1.0000
  C   C15       1.0  0.11152  0.26671  0.33156  1.0000
  C   C16       1.0  0.88848  0.73328  0.66845  1.0000
  C   C17       1.0  0.83292  0.92646  0.13168  1.0000
  C   C18       1.0  0.16707  0.07357  0.86831  1.0000
  C   C19       1.0  0.73521  0.92880  0.03089  1.0000
  C   C20       1.0  0.26478  0.07124  0.96910  1.0000
  C   C21       1.0  0.55697  0.00064  0.04948  1.0000
  C   C22       1.0  0.44303  0.99938  0.95051  1.0000
  C   C23       1.0  0.49016  0.07312  0.16760  1.0000
  C   C24       1.0  0.50983  0.92689  0.83240  1.0000
  C   C25       1.0  0.59635  0.06752  0.26305  1.0000
  C   C26       1.0  0.40363  0.93248  0.73696  1.0000
  N   N1        1.0  0.76531  0.99409  0.24631  1.0000
  N   N2        1.0  0.23468  0.00592  0.75370  1.0000
  O   O1        1.0  0.85260  0.14975  0.69278  1.0000
  O   O2        1.0  0.14739  0.85024  0.30722  1.0000
  O   O3        1.0  0.73401  0.13854  0.50730  1.0000
  O   O4        1.0  0.26598  0.86143  0.49270  1.0000
  O   O5        1.0  0.14427  0.21872  0.45899  1.0000
  O   O6        1.0  0.85573  0.78128  0.54101  1.0000
  O   O7        1.0  0.03498  0.19225  0.27379  1.0000
  O   O8        1.0  0.96502  0.80773  0.72623  1.0000
