data_image0
_chemical_formula_structural       Cu4H28C24N4Cl4
_chemical_formula_sum              "Cu4 H28 C24 N4 Cl4"
_cell_length_a       5.51864
_cell_length_b       7.32243
_cell_length_c       16.9251
_cell_angle_alpha    90
_cell_angle_beta     90.0005
_cell_angle_gamma    90.0005

_space_group_name_H-M_alt    "P 1"
_space_group_IT_number       1

loop_
  _space_group_symop_operation_xyz
  'x, y, z'

loop_
  _atom_site_type_symbol
  _atom_site_label
  _atom_site_symmetry_multiplicity
  _atom_site_fract_x
  _atom_site_fract_y
  _atom_site_fract_z
  _atom_site_occupancy
  Cu  Cu1       1.0  0.04395  0.59399  0.32417  1.0000
  Cu  Cu2       1.0  0.95606  0.90599  0.82416  1.0000
  Cu  Cu3       1.0  0.45606  0.09399  0.67584  1.0000
  Cu  Cu4       1.0  0.54394  0.40601  0.17584  1.0000
  H   H1        1.0  0.33917  0.28706  0.45280  1.0000
  H   H2        1.0  0.66086  0.21295  0.95278  1.0000
  H   H3        1.0  0.16085  0.78705  0.54721  1.0000
  H   H4        1.0  0.83912  0.71293  0.04721  1.0000
  H   H5        1.0  0.72640  0.41910  0.65847  1.0000
  H   H6        1.0  0.27360  0.08092  0.15845  1.0000
  H   H7        1.0  0.77359  0.91908  0.34153  1.0000
  H   H8        1.0  0.22639  0.58090  0.84154  1.0000
  H   H9        1.0  0.56307  0.61930  0.63485  1.0000
  H   H10       1.0  0.43695  0.88070  0.13483  1.0000
  H   H11       1.0  0.93694  0.11929  0.36515  1.0000
  H   H12       1.0  0.06305  0.38069  0.86516  1.0000
  H   H13       1.0  0.79815  0.54211  0.57078  1.0000
  H   H14       1.0  0.20187  0.95790  0.07075  1.0000
  H   H15       1.0  0.70184  0.04210  0.42923  1.0000
  H   H16       1.0  0.29812  0.45790  0.92924  1.0000
  H   H17       1.0  0.13947  0.22305  0.57305  1.0000
  H   H18       1.0  0.86051  0.27697  0.07304  1.0000
  H   H19       1.0  0.36052  0.72305  0.42696  1.0000
  H   H20       1.0  0.63943  0.77694  0.92696  1.0000
  H   H21       1.0  0.06696  0.26580  0.71591  1.0000
  H   H22       1.0  0.93306  0.23422  0.21591  1.0000
  H   H23       1.0  0.43306  0.76579  0.28409  1.0000
  H   H24       1.0  0.56696  0.73419  0.78409  1.0000
  H   H25       1.0  0.33871  0.41466  0.72350  1.0000
  H   H26       1.0  0.66130  0.08533  0.22349  1.0000
  H   H27       1.0  0.16130  0.91467  0.27650  1.0000
  H   H28       1.0  0.83870  0.58532  0.77651  1.0000
  C   C1        1.0  0.66571  0.43292  0.43794  1.0000
  C   C2        1.0  0.33431  0.06708  0.93792  1.0000
  C   C3        1.0  0.83430  0.93292  0.56207  1.0000
  C   C4        1.0  0.16568  0.56709  0.06207  1.0000
  C   C5        1.0  0.47755  0.36401  0.48477  1.0000
  C   C6        1.0  0.52249  0.13601  0.98477  1.0000
  C   C7        1.0  0.02248  0.86400  0.51523  1.0000
  C   C8        1.0  0.97752  0.63600  0.01524  1.0000
  C   C9        1.0  0.46691  0.38647  0.56515  1.0000
  C   C10       1.0  0.53315  0.11355  0.06513  1.0000
  C   C11       1.0  0.03312  0.88646  0.43486  1.0000
  C   C12       1.0  0.96689  0.61353  0.93487  1.0000
  C   C13       1.0  0.64962  0.49763  0.60912  1.0000
  C   C14       1.0  0.35041  0.00240  0.10910  1.0000
  C   C15       1.0  0.85040  0.99760  0.39089  1.0000
  C   C16       1.0  0.14960  0.50237  0.89089  1.0000
  C   C17       1.0  0.27226  0.29770  0.60846  1.0000
  C   C18       1.0  0.72776  0.20233  0.10843  1.0000
  C   C19       1.0  0.22775  0.79769  0.39155  1.0000
  C   C20       1.0  0.77223  0.70230  0.89155  1.0000
  C   C21       1.0  0.23298  0.31759  0.68898  1.0000
  C   C22       1.0  0.76702  0.18243  0.18896  1.0000
  C   C23       1.0  0.26702  0.81758  0.31104  1.0000
  C   C24       1.0  0.73297  0.68239  0.81103  1.0000
  N   N1        1.0  0.82284  0.48443  0.39716  1.0000
  N   N2        1.0  0.17718  0.01555  0.89715  1.0000
  N   N3        1.0  0.67714  0.98443  0.60285  1.0000
  N   N4        1.0  0.32282  0.51557  0.10285  1.0000
  Cl  Cl1       1.0  0.80362  0.65556  0.21328  1.0000
  Cl  Cl2       1.0  0.19637  0.84443  0.71327  1.0000
  Cl  Cl3       1.0  0.69638  0.15555  0.78673  1.0000
  Cl  Cl4       1.0  0.30363  0.34444  0.28673  1.0000
