data_image0
_chemical_formula_structural       Cd4H48C76N4O16
_chemical_formula_sum              "Cd4 H48 C76 N4 O16"
_cell_length_a       8.95241
_cell_length_b       9.56428
_cell_length_c       20.6116
_cell_angle_alpha    90
_cell_angle_beta     90
_cell_angle_gamma    103.692

_space_group_name_H-M_alt    "P 1"
_space_group_IT_number       1

loop_
  _space_group_symop_operation_xyz
  'x, y, z'

loop_
  _atom_site_type_symbol
  _atom_site_label
  _atom_site_symmetry_multiplicity
  _atom_site_fract_x
  _atom_site_fract_y
  _atom_site_fract_z
  _atom_site_occupancy
  Cd  Cd1       1.0  0.88486  0.08946  0.50209  1.0000
  Cd  Cd2       1.0  0.11514  0.41053  0.00209  1.0000
  Cd  Cd3       1.0  0.11514  0.91054  0.49791  1.0000
  Cd  Cd4       1.0  0.88486  0.58946  0.99791  1.0000
  H   H1        1.0  0.54985  0.10839  0.55181  1.0000
  H   H2        1.0  0.45015  0.39161  0.05181  1.0000
  H   H3        1.0  0.45015  0.89161  0.44819  1.0000
  H   H4        1.0  0.54985  0.60839  0.94819  1.0000
  H   H5        1.0  0.38263  0.27741  0.55121  1.0000
  H   H6        1.0  0.61737  0.22259  0.05121  1.0000
  H   H7        1.0  0.61737  0.72259  0.44879  1.0000
  H   H8        1.0  0.38263  0.77741  0.94879  1.0000
  H   H9        1.0  0.74968  0.58261  0.45256  1.0000
  H   H10       1.0  0.25032  0.91739  0.95256  1.0000
  H   H11       1.0  0.25032  0.41739  0.54744  1.0000
  H   H12       1.0  0.74968  0.08261  0.04744  1.0000
  H   H13       1.0  0.90004  0.39772  0.45678  1.0000
  H   H14       1.0  0.09996  0.10228  0.95678  1.0000
  H   H15       1.0  0.09996  0.60228  0.54323  1.0000
  H   H16       1.0  0.90004  0.89772  0.04323  1.0000
  H   H17       1.0  0.45245  0.17680  0.36371  1.0000
  H   H18       1.0  0.54755  0.32320  0.86372  1.0000
  H   H19       1.0  0.54755  0.82320  0.63628  1.0000
  H   H20       1.0  0.45245  0.67680  0.13628  1.0000
  H   H21       1.0  0.54284  0.56872  0.25169  1.0000
  H   H22       1.0  0.45716  0.93129  0.75169  1.0000
  H   H23       1.0  0.45716  0.43129  0.74832  1.0000
  H   H24       1.0  0.54284  0.06871  0.24832  1.0000
  H   H25       1.0  0.30006  0.61861  0.29114  1.0000
  H   H26       1.0  0.69994  0.88139  0.79114  1.0000
  H   H27       1.0  0.69994  0.38139  0.70886  1.0000
  H   H28       1.0  0.30006  0.11861  0.20886  1.0000
  H   H29       1.0  0.13187  0.44601  0.36761  1.0000
  H   H30       1.0  0.86812  0.05399  0.86761  1.0000
  H   H31       1.0  0.86812  0.55400  0.63239  1.0000
  H   H32       1.0  0.13188  0.94600  0.13239  1.0000
  H   H33       1.0  0.63015  0.42428  0.18256  1.0000
  H   H34       1.0  0.36985  0.07572  0.68256  1.0000
  H   H35       1.0  0.36985  0.57572  0.81744  1.0000
  H   H36       1.0  0.63015  0.92428  0.31744  1.0000
  H   H37       1.0  0.71606  0.23083  0.36371  1.0000
  H   H38       1.0  0.28394  0.26917  0.86371  1.0000
  H   H39       1.0  0.28394  0.76917  0.63629  1.0000
  H   H40       1.0  0.71606  0.73083  0.13629  1.0000
  H   H41       1.0  0.94252  0.16778  0.31577  1.0000
  H   H42       1.0  0.05748  0.33223  0.81577  1.0000
  H   H43       1.0  0.05748  0.83223  0.68423  1.0000
  H   H44       1.0  0.94252  0.66778  0.18423  1.0000
  H   H45       1.0  0.01326  0.22969  0.19948  1.0000
  H   H46       1.0  0.98674  0.27031  0.69948  1.0000
  H   H47       1.0  0.98674  0.77031  0.80052  1.0000
  H   H48       1.0  0.01326  0.72969  0.30052  1.0000
  C   C1        1.0  0.58950  0.21484  0.53020  1.0000
  C   C2        1.0  0.41051  0.28516  0.03020  1.0000
  C   C3        1.0  0.41051  0.78516  0.46980  1.0000
  C   C4        1.0  0.58949  0.71484  0.96980  1.0000
  C   C5        1.0  0.49621  0.31174  0.52977  1.0000
  C   C6        1.0  0.50379  0.18826  0.02977  1.0000
  C   C7        1.0  0.50379  0.68826  0.47023  1.0000
  C   C8        1.0  0.49622  0.81174  0.97023  1.0000
  C   C9        1.0  0.54892  0.44765  0.50121  1.0000
  C   C10       1.0  0.45109  0.05234  0.00120  1.0000
  C   C11       1.0  0.45108  0.55234  0.49879  1.0000
  C   C12       1.0  0.54892  0.94766  0.99879  1.0000
  C   C13       1.0  0.69806  0.47955  0.47503  1.0000
  C   C14       1.0  0.30194  0.02045  0.97503  1.0000
  C   C15       1.0  0.30194  0.52045  0.52497  1.0000
  C   C16       1.0  0.69806  0.97955  0.02497  1.0000
  C   C17       1.0  0.78466  0.37718  0.47740  1.0000
  C   C18       1.0  0.21534  0.12282  0.97740  1.0000
  C   C19       1.0  0.21534  0.62282  0.52260  1.0000
  C   C20       1.0  0.78466  0.87718  0.02260  1.0000
  C   C21       1.0  0.18816  0.19951  0.41703  1.0000
  C   C22       1.0  0.81185  0.30049  0.91703  1.0000
  C   C23       1.0  0.81185  0.80049  0.58297  1.0000
  C   C24       1.0  0.18815  0.69951  0.08297  1.0000
  C   C25       1.0  0.28540  0.30333  0.37078  1.0000
  C   C26       1.0  0.71460  0.19667  0.87078  1.0000
  C   C27       1.0  0.71460  0.69668  0.62922  1.0000
  C   C28       1.0  0.28540  0.80332  0.12922  1.0000
  C   C29       1.0  0.42233  0.27522  0.34776  1.0000
  C   C30       1.0  0.57768  0.22478  0.84776  1.0000
  C   C31       1.0  0.57768  0.72478  0.65224  1.0000
  C   C32       1.0  0.42232  0.77521  0.15224  1.0000
  C   C33       1.0  0.51583  0.36851  0.30396  1.0000
  C   C34       1.0  0.48417  0.13149  0.80396  1.0000
  C   C35       1.0  0.48417  0.63149  0.69604  1.0000
  C   C36       1.0  0.51583  0.86851  0.19604  1.0000
  C   C37       1.0  0.46966  0.49282  0.28440  1.0000
  C   C38       1.0  0.53034  0.00718  0.78440  1.0000
  C   C39       1.0  0.53034  0.50718  0.71560  1.0000
  C   C40       1.0  0.46966  0.99282  0.21560  1.0000
  C   C41       1.0  0.33317  0.52144  0.30713  1.0000
  C   C42       1.0  0.66683  0.97856  0.80713  1.0000
  C   C43       1.0  0.66683  0.47857  0.69287  1.0000
  C   C44       1.0  0.33317  0.02143  0.19287  1.0000
  C   C45       1.0  0.23993  0.42659  0.35006  1.0000
  C   C46       1.0  0.76007  0.07341  0.85006  1.0000
  C   C47       1.0  0.76007  0.57341  0.64994  1.0000
  C   C48       1.0  0.23993  0.92659  0.14994  1.0000
  C   C49       1.0  0.86772  0.37181  0.11576  1.0000
  C   C50       1.0  0.13229  0.12819  0.61576  1.0000
  C   C51       1.0  0.13228  0.62819  0.88424  1.0000
  C   C52       1.0  0.86771  0.87181  0.38424  1.0000
  C   C53       1.0  0.82520  0.33099  0.18472  1.0000
  C   C54       1.0  0.17480  0.16901  0.68472  1.0000
  C   C55       1.0  0.17480  0.66901  0.81528  1.0000
  C   C56       1.0  0.82519  0.83099  0.31528  1.0000
  C   C57       1.0  0.69813  0.36900  0.21259  1.0000
  C   C58       1.0  0.30187  0.13100  0.71259  1.0000
  C   C59       1.0  0.30187  0.63100  0.78741  1.0000
  C   C60       1.0  0.69813  0.86900  0.28741  1.0000
  C   C61       1.0  0.65595  0.33388  0.27707  1.0000
  C   C62       1.0  0.34405  0.16613  0.77707  1.0000
  C   C63       1.0  0.34405  0.66613  0.72293  1.0000
  C   C64       1.0  0.65595  0.83387  0.22293  1.0000
  C   C65       1.0  0.74629  0.26052  0.31352  1.0000
  C   C66       1.0  0.25371  0.23948  0.81352  1.0000
  C   C67       1.0  0.25371  0.73948  0.68648  1.0000
  C   C68       1.0  0.74629  0.76052  0.18648  1.0000
  C   C69       1.0  0.87438  0.22370  0.28619  1.0000
  C   C70       1.0  0.12562  0.27630  0.78619  1.0000
  C   C71       1.0  0.12562  0.77630  0.71381  1.0000
  C   C72       1.0  0.87438  0.72370  0.21381  1.0000
  C   C73       1.0  0.91394  0.25783  0.22174  1.0000
  C   C74       1.0  0.08606  0.24217  0.72174  1.0000
  C   C75       1.0  0.08606  0.74217  0.77826  1.0000
  C   C76       1.0  0.91394  0.75783  0.27826  1.0000
  N   N1        1.0  0.73132  0.24619  0.50414  1.0000
  N   N2        1.0  0.26868  0.25381  0.00414  1.0000
  N   N3        1.0  0.26868  0.75381  0.49586  1.0000
  N   N4        1.0  0.73132  0.74619  0.99586  1.0000
  O   O1        1.0  0.06355  0.22840  0.43633  1.0000
  O   O2        1.0  0.93645  0.27159  0.93633  1.0000
  O   O3        1.0  0.93645  0.77160  0.56367  1.0000
  O   O4        1.0  0.06355  0.72840  0.06367  1.0000
  O   O5        1.0  0.76173  0.90966  0.56655  1.0000
  O   O6        1.0  0.23826  0.59034  0.06655  1.0000
  O   O7        1.0  0.23827  0.09034  0.43345  1.0000
  O   O8        1.0  0.76174  0.40966  0.93345  1.0000
  O   O9        1.0  0.79732  0.45757  0.08825  1.0000
  O   O10       1.0  0.20268  0.04243  0.58825  1.0000
  O   O11       1.0  0.20267  0.54242  0.91175  1.0000
  O   O12       1.0  0.79732  0.95757  0.41175  1.0000
  O   O13       1.0  0.97060  0.31804  0.08984  1.0000
  O   O14       1.0  0.02940  0.18196  0.58984  1.0000
  O   O15       1.0  0.02940  0.68196  0.91016  1.0000
  O   O16       1.0  0.97060  0.81804  0.41016  1.0000
