data_image0
_chemical_formula_structural       Cd2H16C20N16
_chemical_formula_sum              "Cd2 H16 C20 N16"
_cell_length_a       6.63142
_cell_length_b       9.4732
_cell_length_c       11.0959
_cell_angle_alpha    115.265
_cell_angle_beta     106.066
_cell_angle_gamma    90.0175

_space_group_name_H-M_alt    "P 1"
_space_group_IT_number       1

loop_
  _space_group_symop_operation_xyz
  'x, y, z'

loop_
  _atom_site_type_symbol
  _atom_site_label
  _atom_site_symmetry_multiplicity
  _atom_site_fract_x
  _atom_site_fract_y
  _atom_site_fract_z
  _atom_site_occupancy
  Cd  Cd1       1.0  0.25003  0.09395  0.99997  1.0000
  Cd  Cd2       1.0  0.74996  0.90605  0.00003  1.0000
  H   H1        1.0  0.19072  0.59792  0.89352  1.0000
  H   H2        1.0  0.30891  0.70446  0.10639  1.0000
  H   H3        1.0  0.80928  0.40208  0.10648  1.0000
  H   H4        1.0  0.69109  0.29554  0.89361  1.0000
  H   H5        1.0  0.01141  0.45510  0.63777  1.0000
  H   H6        1.0  0.48827  0.81728  0.36212  1.0000
  H   H7        1.0  0.98859  0.54490  0.36223  1.0000
  H   H8        1.0  0.51173  0.18272  0.63788  1.0000
  H   H9        1.0  0.90333  0.16283  0.52802  1.0000
  H   H10       1.0  0.59664  0.63472  0.47176  1.0000
  H   H11       1.0  0.09667  0.83717  0.47197  1.0000
  H   H12       1.0  0.40336  0.36528  0.52824  1.0000
  H   H13       1.0  0.98625  0.02557  0.68233  1.0000
  H   H14       1.0  0.51385  0.34318  0.31738  1.0000
  H   H15       1.0  0.01375  0.97443  0.31767  1.0000
  H   H16       1.0  0.48615  0.65682  0.68262  1.0000
  C   C1        1.0  0.19222  0.38598  0.92351  1.0000
  C   C2        1.0  0.30751  0.46242  0.07628  1.0000
  C   C3        1.0  0.80778  0.61402  0.07649  1.0000
  C   C4        1.0  0.69249  0.53758  0.92372  1.0000
  C   C5        1.0  0.14545  0.47093  0.84448  1.0000
  C   C6        1.0  0.35425  0.62645  0.15535  1.0000
  C   C7        1.0  0.85455  0.52907  0.15552  1.0000
  C   C8        1.0  0.64575  0.37355  0.84465  1.0000
  C   C9        1.0  0.04457  0.39097  0.70094  1.0000
  C   C10       1.0  0.45524  0.69000  0.29888  1.0000
  C   C11       1.0  0.95544  0.60903  0.29906  1.0000
  C   C12       1.0  0.54477  0.31000  0.70112  1.0000
  C   C13       1.0  0.98713  0.22829  0.63929  1.0000
  C   C14       1.0  0.51286  0.58901  0.36050  1.0000
  C   C15       1.0  0.01287  0.77171  0.36071  1.0000
  C   C16       1.0  0.48714  0.41099  0.63950  1.0000
  C   C17       1.0  0.03301  0.15198  0.72452  1.0000
  C   C18       1.0  0.46702  0.42746  0.27526  1.0000
  C   C19       1.0  0.96699  0.84802  0.27548  1.0000
  C   C20       1.0  0.53298  0.57254  0.72474  1.0000
  N   N1        1.0  0.99017  0.87825  0.86366  1.0000
  N   N2        1.0  0.50979  0.01463  0.13637  1.0000
  N   N3        1.0  0.00983  0.12175  0.13634  1.0000
  N   N4        1.0  0.49020  0.98537  0.86363  1.0000
  N   N5        1.0  0.98122  0.78622  0.74591  1.0000
  N   N6        1.0  0.51872  0.04037  0.25412  1.0000
  N   N7        1.0  0.01878  0.21377  0.25409  1.0000
  N   N8        1.0  0.48128  0.95963  0.74588  1.0000
  N   N9        1.0  0.97297  0.69710  0.63201  1.0000
  N   N10       1.0  0.52695  0.06515  0.36802  1.0000
  N   N11       1.0  0.02702  0.30290  0.36799  1.0000
  N   N12       1.0  0.47305  0.93485  0.63197  1.0000
  N   N13       1.0  0.13386  0.22857  0.86243  1.0000
  N   N14       1.0  0.36607  0.36613  0.13736  1.0000
  N   N15       1.0  0.86613  0.77143  0.13757  1.0000
  N   N16       1.0  0.63393  0.63387  0.86264  1.0000
