data_image0
_chemical_formula_structural       Cd2H16C20N16
_chemical_formula_sum              "Cd2 H16 C20 N16"
_cell_length_a       6.65328
_cell_length_b       9.51957
_cell_length_c       9.5196
_cell_angle_alpha    101.123
_cell_angle_beta     91.0437
_cell_angle_gamma    91.0435

_space_group_name_H-M_alt    "P 1"
_space_group_IT_number       1

loop_
  _space_group_symop_operation_xyz
  'x, y, z'

loop_
  _atom_site_type_symbol
  _atom_site_label
  _atom_site_symmetry_multiplicity
  _atom_site_fract_x
  _atom_site_fract_y
  _atom_site_fract_z
  _atom_site_occupancy
  Cd  Cd1       1.0  0.75000  0.56448  0.43552  1.0000
  Cd  Cd2       1.0  0.25000  0.43552  0.56448  1.0000
  H   H1        1.0  0.88911  0.96168  0.11201  1.0000
  H   H2        1.0  0.61090  0.88799  0.03832  1.0000
  H   H3        1.0  0.11090  0.03832  0.88799  1.0000
  H   H4        1.0  0.38910  0.11201  0.96168  1.0000
  H   H5        1.0  0.13970  0.77144  0.52390  1.0000
  H   H6        1.0  0.36030  0.47610  0.22856  1.0000
  H   H7        1.0  0.86029  0.22857  0.47610  1.0000
  H   H8        1.0  0.63970  0.52390  0.77144  1.0000
  H   H9        1.0  0.34486  0.96237  0.43898  1.0000
  H   H10       1.0  0.15514  0.56102  0.03763  1.0000
  H   H11       1.0  0.65514  0.03763  0.56102  1.0000
  H   H12       1.0  0.84486  0.43898  0.96237  1.0000
  H   H13       1.0  0.21199  0.05893  0.22819  1.0000
  H   H14       1.0  0.28801  0.77181  0.94107  1.0000
  H   H15       1.0  0.78801  0.94107  0.77181  1.0000
  H   H16       1.0  0.71199  0.22819  0.05893  1.0000
  C   C1        1.0  0.84557  0.81201  0.25432  1.0000
  C   C2        1.0  0.65443  0.74567  0.18799  1.0000
  C   C3        1.0  0.15443  0.18799  0.74568  1.0000
  C   C4        1.0  0.34557  0.25433  0.81201  1.0000
  C   C5        1.0  0.94827  0.92083  0.20293  1.0000
  C   C6        1.0  0.55173  0.79707  0.07917  1.0000
  C   C7        1.0  0.05173  0.07917  0.79708  1.0000
  C   C8        1.0  0.44827  0.20293  0.92083  1.0000
  C   C9        1.0  0.09223  0.81605  0.43195  1.0000
  C   C10       1.0  0.40777  0.56805  0.18395  1.0000
  C   C11       1.0  0.90777  0.18396  0.56806  1.0000
  C   C12       1.0  0.59223  0.43195  0.81605  1.0000
  C   C13       1.0  0.20376  0.92236  0.38495  1.0000
  C   C14       1.0  0.29624  0.61505  0.07763  1.0000
  C   C15       1.0  0.79624  0.07764  0.61505  1.0000
  C   C16       1.0  0.70376  0.38495  0.92236  1.0000
  C   C17       1.0  0.12925  0.97571  0.26840  1.0000
  C   C18       1.0  0.37075  0.73160  0.02429  1.0000
  C   C19       1.0  0.87075  0.02429  0.73160  1.0000
  C   C20       1.0  0.62926  0.26840  0.97571  1.0000
  N   N1        1.0  0.04441  0.34314  0.24322  1.0000
  N   N2        1.0  0.45559  0.75678  0.65686  1.0000
  N   N3        1.0  0.95559  0.65686  0.75677  1.0000
  N   N4        1.0  0.54441  0.24322  0.34314  1.0000
  N   N5        1.0  0.91869  0.76233  0.36825  1.0000
  N   N6        1.0  0.58131  0.63175  0.23766  1.0000
  N   N7        1.0  0.08130  0.23767  0.63175  1.0000
  N   N8        1.0  0.41870  0.36825  0.76233  1.0000
  N   N9        1.0  0.01654  0.40963  0.36231  1.0000
  N   N10       1.0  0.48346  0.63769  0.59037  1.0000
  N   N11       1.0  0.98346  0.59037  0.63769  1.0000
  N   N12       1.0  0.51654  0.36231  0.40963  1.0000
  N   N13       1.0  0.07440  0.27898  0.12833  1.0000
  N   N14       1.0  0.42560  0.87167  0.72103  1.0000
  N   N15       1.0  0.92560  0.72103  0.87168  1.0000
  N   N16       1.0  0.57439  0.12833  0.27897  1.0000
