data_image0
_chemical_formula_structural       Zn4H28C28N4O24
_chemical_formula_sum              "Zn4 H28 C28 N4 O24"
_cell_length_a       7.27221
_cell_length_b       9.26746
_cell_length_c       12.8227
_cell_angle_alpha    89.9996
_cell_angle_beta     90
_cell_angle_gamma    89.9996

_space_group_name_H-M_alt    "P 1"
_space_group_IT_number       1

loop_
  _space_group_symop_operation_xyz
  'x, y, z'

loop_
  _atom_site_type_symbol
  _atom_site_label
  _atom_site_symmetry_multiplicity
  _atom_site_fract_x
  _atom_site_fract_y
  _atom_site_fract_z
  _atom_site_occupancy
  Zn  Zn1       1.0  0.10666  0.36403  0.26467  1.0000
  Zn  Zn2       1.0  0.39334  0.63597  0.76467  1.0000
  Zn  Zn3       1.0  0.60666  0.13597  0.73533  1.0000
  Zn  Zn4       1.0  0.89334  0.86403  0.23533  1.0000
  H   H1        1.0  0.59207  0.60119  0.48408  1.0000
  H   H2        1.0  0.90793  0.39881  0.98408  1.0000
  H   H3        1.0  0.09207  0.89881  0.51592  1.0000
  H   H4        1.0  0.40793  0.10120  0.01592  1.0000
  H   H5        1.0  0.84155  0.41245  0.46435  1.0000
  H   H6        1.0  0.65846  0.58755  0.96435  1.0000
  H   H7        1.0  0.34155  0.08755  0.53566  1.0000
  H   H8        1.0  0.15846  0.91246  0.03565  1.0000
  H   H9        1.0  0.45318  0.15772  0.28897  1.0000
  H   H10       1.0  0.04683  0.84228  0.78898  1.0000
  H   H11       1.0  0.95317  0.34228  0.71103  1.0000
  H   H12       1.0  0.54682  0.65773  0.21102  1.0000
  H   H13       1.0  0.07692  0.15201  0.13726  1.0000
  H   H14       1.0  0.42308  0.84799  0.63725  1.0000
  H   H15       1.0  0.57693  0.34799  0.86274  1.0000
  H   H16       1.0  0.92307  0.65201  0.36274  1.0000
  H   H17       1.0  0.19840  0.26973  0.07911  1.0000
  H   H18       1.0  0.30159  0.73027  0.57911  1.0000
  H   H19       1.0  0.69841  0.23027  0.92089  1.0000
  H   H20       1.0  0.80160  0.76973  0.42090  1.0000
  H   H21       1.0  0.89686  0.53037  0.16581  1.0000
  H   H22       1.0  0.60313  0.46963  0.66581  1.0000
  H   H23       1.0  0.39687  0.96963  0.83419  1.0000
  H   H24       1.0  0.10313  0.03037  0.33419  1.0000
  H   H25       1.0  0.81350  0.37091  0.14129  1.0000
  H   H26       1.0  0.68650  0.62909  0.64130  1.0000
  H   H27       1.0  0.31351  0.12909  0.85871  1.0000
  H   H28       1.0  0.18649  0.87091  0.35871  1.0000
  C   C1        1.0  0.39684  0.47572  0.39867  1.0000
  C   C2        1.0  0.10315  0.52428  0.89868  1.0000
  C   C3        1.0  0.89685  0.02429  0.60133  1.0000
  C   C4        1.0  0.60315  0.97571  0.10133  1.0000
  C   C5        1.0  0.24238  0.58415  0.40488  1.0000
  C   C6        1.0  0.25762  0.41583  0.90489  1.0000
  C   C7        1.0  0.74238  0.91583  0.59511  1.0000
  C   C8        1.0  0.75761  0.08417  0.09512  1.0000
  C   C9        1.0  0.56787  0.49999  0.44360  1.0000
  C   C10       1.0  0.93213  0.50001  0.94361  1.0000
  C   C11       1.0  0.06787  0.00001  0.55639  1.0000
  C   C12       1.0  0.43212  1.00000  0.05639  1.0000
  C   C13       1.0  0.70460  0.39584  0.43211  1.0000
  C   C14       1.0  0.79541  0.60415  0.93211  1.0000
  C   C15       1.0  0.20460  0.10416  0.56790  1.0000
  C   C16       1.0  0.29541  0.89585  0.06789  1.0000
  C   C17       1.0  0.80787  0.15636  0.35471  1.0000
  C   C18       1.0  0.69214  0.84364  0.85472  1.0000
  C   C19       1.0  0.30786  0.34365  0.64528  1.0000
  C   C20       1.0  0.19214  0.65636  0.14528  1.0000
  C   C21       1.0  0.66607  0.27047  0.37604  1.0000
  C   C22       1.0  0.83394  0.72952  0.87605  1.0000
  C   C23       1.0  0.16607  0.22952  0.62396  1.0000
  C   C24       1.0  0.33393  0.77048  0.12395  1.0000
  C   C25       1.0  0.48931  0.25333  0.33410  1.0000
  C   C26       1.0  0.01069  0.74667  0.83411  1.0000
  C   C27       1.0  0.98930  0.24668  0.66589  1.0000
  C   C28       1.0  0.51069  0.75333  0.16589  1.0000
  N   N1        1.0  0.35926  0.35395  0.34486  1.0000
  N   N2        1.0  0.14075  0.64606  0.84486  1.0000
  N   N3        1.0  0.85924  0.14606  0.65514  1.0000
  N   N4        1.0  0.64075  0.85394  0.15514  1.0000
  O   O1        1.0  0.17775  0.22523  0.14815  1.0000
  O   O2        1.0  0.32225  0.77476  0.64815  1.0000
  O   O3        1.0  0.67775  0.27476  0.85185  1.0000
  O   O4        1.0  0.82224  0.72523  0.35185  1.0000
  O   O5        1.0  0.85596  0.43677  0.19682  1.0000
  O   O6        1.0  0.64404  0.56323  0.69682  1.0000
  O   O7        1.0  0.35596  0.06323  0.80317  1.0000
  O   O8        1.0  0.14404  0.93676  0.30318  1.0000
  O   O9        1.0  0.08656  0.54014  0.36998  1.0000
  O   O10       1.0  0.41345  0.45985  0.86999  1.0000
  O   O11       1.0  0.58655  0.95985  0.63002  1.0000
  O   O12       1.0  0.91344  0.04016  0.13002  1.0000
  O   O13       1.0  0.97849  0.19396  0.34983  1.0000
  O   O14       1.0  0.52152  0.80605  0.84983  1.0000
  O   O15       1.0  0.47849  0.30604  0.65017  1.0000
  O   O16       1.0  0.02151  0.69396  0.15017  1.0000
  O   O17       1.0  0.75032  0.02930  0.34191  1.0000
  O   O18       1.0  0.74968  0.97069  0.84191  1.0000
  O   O19       1.0  0.25032  0.47070  0.65809  1.0000
  O   O20       1.0  0.24967  0.52932  0.15808  1.0000
  O   O21       1.0  0.27272  0.70864  0.44045  1.0000
  O   O22       1.0  0.22729  0.29136  0.94045  1.0000
  O   O23       1.0  0.77272  0.79136  0.55955  1.0000
  O   O24       1.0  0.72729  0.20864  0.05955  1.0000
