data_image0
_chemical_formula_structural       Cu4H52C40S4I4O4
_chemical_formula_sum              "Cu4 H52 C40 S4 I4 O4"
_cell_length_a       11.7211
_cell_length_b       12.0111
_cell_length_c       11.691
_cell_angle_alpha    108.199
_cell_angle_beta     107.762
_cell_angle_gamma    113.685

_space_group_name_H-M_alt    "P 1"
_space_group_IT_number       1

loop_
  _space_group_symop_operation_xyz
  'x, y, z'

loop_
  _atom_site_type_symbol
  _atom_site_label
  _atom_site_symmetry_multiplicity
  _atom_site_fract_x
  _atom_site_fract_y
  _atom_site_fract_z
  _atom_site_occupancy
  Cu  Cu1       1.0  0.44248  0.33564  0.92434  1.0000
  Cu  Cu2       1.0  0.41048  0.52073  0.07451  1.0000
  Cu  Cu3       1.0  0.66432  0.58837  0.11174  1.0000
  Cu  Cu4       1.0  0.47785  0.55157  0.88851  1.0000
  H   H1        1.0  0.97250  0.82959  0.77673  1.0000
  H   H2        1.0  0.05248  0.19356  0.21924  1.0000
  H   H3        1.0  0.17074  0.94446  0.14347  1.0000
  H   H4        1.0  0.80150  0.02155  0.86136  1.0000
  H   H5        1.0  0.88084  0.60505  0.77957  1.0000
  H   H6        1.0  0.81829  0.09641  0.21407  1.0000
  H   H7        1.0  0.40026  0.17825  0.27908  1.0000
  H   H8        1.0  0.89620  0.11554  0.72619  1.0000
  H   H9        1.0  0.05084  0.57017  0.93116  1.0000
  H   H10       1.0  0.62716  0.11388  0.06705  1.0000
  H   H11       1.0  0.44090  0.37005  0.48444  1.0000
  H   H12       1.0  0.88273  0.95516  0.51786  1.0000
  H   H13       1.0  0.31017  0.75705  0.07150  1.0000
  H   H14       1.0  0.67456  0.23209  0.93152  1.0000
  H   H15       1.0  0.25471  0.32335  0.55462  1.0000
  H   H16       1.0  0.76805  0.70220  0.44360  1.0000
  H   H17       1.0  0.40155  0.97946  0.06548  1.0000
  H   H18       1.0  0.90977  0.33204  0.93986  1.0000
  H   H19       1.0  0.02793  0.08884  0.42158  1.0000
  H   H20       1.0  0.66927  0.60795  0.57572  1.0000
  H   H21       1.0  0.30046  0.14509  0.03442  1.0000
  H   H22       1.0  0.11370  0.26659  0.96902  1.0000
  H   H23       1.0  0.85325  0.87779  0.15249  1.0000
  H   H24       1.0  0.73350  0.70051  0.84479  1.0000
  H   H25       1.0  0.14936  0.06171  0.86887  1.0000
  H   H26       1.0  0.20136  0.29011  0.13642  1.0000
  H   H27       1.0  0.93488  0.79797  0.08606  1.0000
  H   H28       1.0  0.71973  0.84547  0.91736  1.0000
  H   H29       1.0  0.18654  0.88983  0.64973  1.0000
  H   H30       1.0  0.23998  0.54071  0.35175  1.0000
  H   H31       1.0  0.11550  0.76136  0.30080  1.0000
  H   H32       1.0  0.46611  0.81023  0.70603  1.0000
  H   H33       1.0  0.16415  0.02946  0.65251  1.0000
  H   H34       1.0  0.38168  0.51961  0.34774  1.0000
  H   H35       1.0  0.96600  0.62449  0.13258  1.0000
  H   H36       1.0  0.49160  0.82840  0.87141  1.0000
  H   H37       1.0  0.24449  0.96089  0.48773  1.0000
  H   H38       1.0  0.47561  0.76288  0.51275  1.0000
  H   H39       1.0  0.03619  0.53018  0.28154  1.0000
  H   H40       1.0  0.24468  0.75111  0.71781  1.0000
  H   H41       1.0  0.37789  0.13689  0.62517  1.0000
  H   H42       1.0  0.51654  0.75549  0.37644  1.0000
  H   H43       1.0  0.85761  0.48744  0.23216  1.0000
  H   H44       1.0  0.24567  0.62182  0.76217  1.0000
  H   H45       1.0  0.57414  0.13440  0.60936  1.0000
  H   H46       1.0  0.52713  0.96140  0.38964  1.0000
  H   H47       1.0  0.85771  0.47264  0.43048  1.0000
  H   H48       1.0  0.02930  0.42666  0.55732  1.0000
  H   H49       1.0  0.59896  0.00227  0.62645  1.0000
  H   H50       1.0  0.37300  0.96645  0.37165  1.0000
  H   H51       1.0  0.99711  0.62203  0.59586  1.0000
  H   H52       1.0  0.01997  0.40346  0.39586  1.0000
  C   C1        1.0  0.04641  0.81301  0.84059  1.0000
  C   C2        1.0  0.96972  0.20263  0.15693  1.0000
  C   C3        1.0  0.19003  0.02752  0.23434  1.0000
  C   C4        1.0  0.79329  0.95152  0.76907  1.0000
  C   C5        1.0  0.99510  0.68707  0.84280  1.0000
  C   C6        1.0  0.83774  0.14766  0.15344  1.0000
  C   C7        1.0  0.31868  0.15918  0.31042  1.0000
  C   C8        1.0  0.84701  0.00423  0.69323  1.0000
  C   C9        1.0  0.08967  0.66706  0.92678  1.0000
  C   C10       1.0  0.73110  0.15755  0.07185  1.0000
  C   C11       1.0  0.34187  0.26622  0.42529  1.0000
  C   C12       1.0  0.83917  0.91494  0.57665  1.0000
  C   C13       1.0  0.23602  0.77250  0.00611  1.0000
  C   C14       1.0  0.75761  0.22429  0.99532  1.0000
  C   C15       1.0  0.23701  0.24011  0.46505  1.0000
  C   C16       1.0  0.77444  0.77226  0.53451  1.0000
  C   C17       1.0  0.28715  0.89750  0.00251  1.0000
  C   C18       1.0  0.88973  0.28011  0.99993  1.0000
  C   C19       1.0  0.10937  0.10818  0.38989  1.0000
  C   C20       1.0  0.71914  0.71952  0.60917  1.0000
  C   C21       1.0  0.19214  0.92022  0.92152  1.0000
  C   C22       1.0  0.99652  0.26800  0.07940  1.0000
  C   C23       1.0  0.08361  0.00100  0.27209  1.0000
  C   C24       1.0  0.73079  0.80940  0.72922  1.0000
  C   C25       1.0  0.24073  0.05893  0.92688  1.0000
  C   C26       1.0  0.13432  0.31595  0.07594  1.0000
  C   C27       1.0  0.94214  0.86264  0.18170  1.0000
  C   C28       1.0  0.68624  0.75816  0.81958  1.0000
  C   C29       1.0  0.24273  0.00066  0.67760  1.0000
  C   C30       1.0  0.32418  0.56948  0.32316  1.0000
  C   C31       1.0  0.00078  0.67878  0.24351  1.0000
  C   C32       1.0  0.43580  0.75326  0.76009  1.0000
  C   C33       1.0  0.32327  0.02593  0.59949  1.0000
  C   C34       1.0  0.42842  0.72679  0.40086  1.0000
  C   C35       1.0  0.97191  0.57460  0.29454  1.0000
  C   C36       1.0  0.27561  0.67437  0.70385  1.0000
  C   C37       1.0  0.51795  0.02164  0.57824  1.0000
  C   C38       1.0  0.44317  0.93659  0.42019  1.0000
  C   C39       1.0  0.97409  0.55505  0.49220  1.0000
  C   C40       1.0  0.05511  0.48220  0.49984  1.0000
  S   S1        1.0  0.36688  0.10845  0.86349  1.0000
  S   S2        1.0  0.24135  0.50315  0.13706  1.0000
  S   S3        1.0  0.89981  0.75835  0.26531  1.0000
  S   S4        1.0  0.49388  0.63196  0.73774  1.0000
  I   I1        1.0  0.65174  0.45120  0.87069  1.0000
  I   I2        1.0  0.58147  0.77901  0.13078  1.0000
  I   I3        1.0  0.54752  0.42417  0.20491  1.0000
  I   I4        1.0  0.21333  0.34143  0.79309  1.0000
  O   O1        1.0  0.42544  0.98928  0.63509  1.0000
  O   O2        1.0  0.35282  0.78891  0.36294  1.0000
  O   O3        1.0  0.01027  0.64574  0.43642  1.0000
  O   O4        1.0  0.20638  0.57331  0.56110  1.0000
