data_image0
_chemical_formula_structural       Na4H40C16N20O16
_chemical_formula_sum              "Na4 H40 C16 N20 O16"
_cell_length_a       8.32581
_cell_length_b       9.49335
_cell_length_c       10.8059
_cell_angle_alpha    90.9469
_cell_angle_beta     90
_cell_angle_gamma    90.0001

_space_group_name_H-M_alt    "P 1"
_space_group_IT_number       1

loop_
  _space_group_symop_operation_xyz
  'x, y, z'

loop_
  _atom_site_type_symbol
  _atom_site_label
  _atom_site_symmetry_multiplicity
  _atom_site_fract_x
  _atom_site_fract_y
  _atom_site_fract_z
  _atom_site_occupancy
  Na  Na1       1.0  0.54477  0.91357  0.64078  1.0000
  Na  Na2       1.0  0.04477  0.08644  0.85922  1.0000
  Na  Na3       1.0  0.45523  0.08643  0.35922  1.0000
  Na  Na4       1.0  0.95523  0.91357  0.14078  1.0000
  H   H1        1.0  0.24214  0.83176  0.75532  1.0000
  H   H2        1.0  0.74215  0.16824  0.74468  1.0000
  H   H3        1.0  0.75786  0.16824  0.24468  1.0000
  H   H4        1.0  0.25786  0.83176  0.25532  1.0000
  H   H5        1.0  0.35814  0.78964  0.86130  1.0000
  H   H6        1.0  0.85814  0.21036  0.63870  1.0000
  H   H7        1.0  0.64186  0.21036  0.13870  1.0000
  H   H8        1.0  0.14186  0.78964  0.36130  1.0000
  H   H9        1.0  0.23279  0.92683  0.53252  1.0000
  H   H10       1.0  0.73279  0.07317  0.96748  1.0000
  H   H11       1.0  0.76721  0.07317  0.46748  1.0000
  H   H12       1.0  0.26721  0.92683  0.03252  1.0000
  H   H13       1.0  0.27325  0.06833  0.60771  1.0000
  H   H14       1.0  0.77325  0.93167  0.89230  1.0000
  H   H15       1.0  0.72675  0.93167  0.39230  1.0000
  H   H16       1.0  0.22675  0.06833  0.10771  1.0000
  H   H17       1.0  0.97871  0.45384  0.75250  1.0000
  H   H18       1.0  0.47871  0.54616  0.74750  1.0000
  H   H19       1.0  0.02129  0.54616  0.24750  1.0000
  H   H20       1.0  0.52129  0.45384  0.25250  1.0000
  H   H21       1.0  0.14551  0.34544  0.72374  1.0000
  H   H22       1.0  0.64551  0.65456  0.77626  1.0000
  H   H23       1.0  0.85449  0.65456  0.27626  1.0000
  H   H24       1.0  0.35449  0.34544  0.22374  1.0000
  H   H25       1.0  0.54981  0.61814  0.46267  1.0000
  H   H26       1.0  0.04981  0.38186  0.03733  1.0000
  H   H27       1.0  0.45018  0.38186  0.53733  1.0000
  H   H28       1.0  0.95018  0.61814  0.96267  1.0000
  H   H29       1.0  0.45979  0.76812  0.41686  1.0000
  H   H30       1.0  0.95979  0.23188  0.08314  1.0000
  H   H31       1.0  0.54021  0.23188  0.58313  1.0000
  H   H32       1.0  0.04021  0.76812  0.91687  1.0000
  H   H33       1.0  0.83964  0.60766  0.62185  1.0000
  H   H34       1.0  0.33964  0.39234  0.87815  1.0000
  H   H35       1.0  0.16036  0.39234  0.37815  1.0000
  H   H36       1.0  0.66036  0.60766  0.12185  1.0000
  H   H37       1.0  0.87803  0.75173  0.52452  1.0000
  H   H38       1.0  0.37803  0.24827  0.97548  1.0000
  H   H39       1.0  0.12197  0.24827  0.47548  1.0000
  H   H40       1.0  0.62197  0.75173  0.02452  1.0000
  C   C1        1.0  0.15477  0.53461  0.63633  1.0000
  C   C2        1.0  0.65477  0.46538  0.86368  1.0000
  C   C3        1.0  0.84523  0.46539  0.36367  1.0000
  C   C4        1.0  0.34523  0.53461  0.13633  1.0000
  C   C5        1.0  0.32582  0.65243  0.53215  1.0000
  C   C6        1.0  0.82582  0.34757  0.96785  1.0000
  C   C7        1.0  0.67418  0.34758  0.46785  1.0000
  C   C8        1.0  0.17418  0.65242  0.03215  1.0000
  C   C9        1.0  0.91968  0.69813  0.60810  1.0000
  C   C10       1.0  0.41968  0.30187  0.89190  1.0000
  C   C11       1.0  0.08032  0.30187  0.39190  1.0000
  C   C12       1.0  0.58032  0.69813  0.10810  1.0000
  C   C13       1.0  0.90351  0.80231  0.71757  1.0000
  C   C14       1.0  0.40351  0.19769  0.78243  1.0000
  C   C15       1.0  0.09649  0.19769  0.28243  1.0000
  C   C16       1.0  0.59649  0.80232  0.21757  1.0000
  N   N1        1.0  0.08025  0.64810  0.58787  1.0000
  N   N2        1.0  0.58025  0.35190  0.91213  1.0000
  N   N3        1.0  0.91975  0.35190  0.41213  1.0000
  N   N4        1.0  0.41975  0.64810  0.08787  1.0000
  N   N5        1.0  0.19048  0.72710  0.52117  1.0000
  N   N6        1.0  0.69048  0.27290  0.97883  1.0000
  N   N7        1.0  0.80952  0.27290  0.47883  1.0000
  N   N8        1.0  0.30951  0.72710  0.02117  1.0000
  N   N9        1.0  0.31066  0.53290  0.60029  1.0000
  N   N10       1.0  0.81065  0.46710  0.89971  1.0000
  N   N11       1.0  0.68934  0.46710  0.39971  1.0000
  N   N12       1.0  0.18934  0.53290  0.10029  1.0000
  N   N13       1.0  0.08473  0.43725  0.70693  1.0000
  N   N14       1.0  0.58473  0.56275  0.79307  1.0000
  N   N15       1.0  0.91527  0.56275  0.29307  1.0000
  N   N16       1.0  0.41527  0.43725  0.20693  1.0000
  N   N17       1.0  0.47060  0.69756  0.48717  1.0000
  N   N18       1.0  0.97060  0.30243  0.01283  1.0000
  N   N19       1.0  0.52939  0.30244  0.51283  1.0000
  N   N20       1.0  0.02940  0.69756  0.98717  1.0000
  O   O1        1.0  0.76149  0.82151  0.75879  1.0000
  O   O2        1.0  0.26149  0.17849  0.74121  1.0000
  O   O3        1.0  0.23851  0.17849  0.24121  1.0000
  O   O4        1.0  0.73851  0.82151  0.25879  1.0000
  O   O5        1.0  0.02841  0.86086  0.76045  1.0000
  O   O6        1.0  0.52841  0.13914  0.73955  1.0000
  O   O7        1.0  0.97159  0.13913  0.23955  1.0000
  O   O8        1.0  0.47159  0.86087  0.26045  1.0000
  O   O9        1.0  0.35725  0.82091  0.77451  1.0000
  O   O10       1.0  0.85724  0.17909  0.72549  1.0000
  O   O11       1.0  0.64276  0.17909  0.22549  1.0000
  O   O12       1.0  0.14276  0.82091  0.27451  1.0000
  O   O13       1.0  0.29803  0.01379  0.53056  1.0000
  O   O14       1.0  0.79803  0.98621  0.96944  1.0000
  O   O15       1.0  0.70197  0.98621  0.46944  1.0000
  O   O16       1.0  0.20197  0.01379  0.03056  1.0000
