data_image0
_chemical_formula_structural       Cu4H20C16N8
_chemical_formula_sum              "Cu4 H20 C16 N8"
_cell_length_a       6.29563
_cell_length_b       8.4532
_cell_length_c       9.61378
_cell_angle_alpha    90.0005
_cell_angle_beta     90.0003
_cell_angle_gamma    89.9998

_space_group_name_H-M_alt    "P 1"
_space_group_IT_number       1

loop_
  _space_group_symop_operation_xyz
  'x, y, z'

loop_
  _atom_site_type_symbol
  _atom_site_label
  _atom_site_symmetry_multiplicity
  _atom_site_fract_x
  _atom_site_fract_y
  _atom_site_fract_z
  _atom_site_occupancy
  Cu  Cu1       1.0  0.75000  0.46538  0.88399  1.0000
  Cu  Cu2       1.0  0.25001  0.03462  0.38399  1.0000
  Cu  Cu3       1.0  0.75000  0.96538  0.61601  1.0000
  Cu  Cu4       1.0  0.25000  0.53462  0.11602  1.0000
  H   H1        1.0  0.60951  0.65884  0.36170  1.0000
  H   H2        1.0  0.39050  0.84117  0.86169  1.0000
  H   H3        1.0  0.89050  0.15884  0.13831  1.0000
  H   H4        1.0  0.10950  0.34116  0.63831  1.0000
  H   H5        1.0  0.39050  0.34116  0.63831  1.0000
  H   H6        1.0  0.60949  0.15884  0.13831  1.0000
  H   H7        1.0  0.10950  0.84117  0.86169  1.0000
  H   H8        1.0  0.89051  0.65884  0.36169  1.0000
  H   H9        1.0  0.75001  0.47364  0.54485  1.0000
  H   H10       1.0  0.25000  0.02635  0.04486  1.0000
  H   H11       1.0  0.75000  0.97366  0.95514  1.0000
  H   H12       1.0  0.25000  0.52633  0.45514  1.0000
  H   H13       1.0  0.60880  0.36418  0.41628  1.0000
  H   H14       1.0  0.39120  0.13582  0.91629  1.0000
  H   H15       1.0  0.89121  0.86418  0.08371  1.0000
  H   H16       1.0  0.10879  0.63581  0.58371  1.0000
  H   H17       1.0  0.39121  0.63581  0.58371  1.0000
  H   H18       1.0  0.60879  0.86418  0.08371  1.0000
  H   H19       1.0  0.10879  0.13582  0.91629  1.0000
  H   H20       1.0  0.89122  0.36418  0.41628  1.0000
  C   C1        1.0  0.75000  0.27274  0.79098  1.0000
  C   C2        1.0  0.25001  0.22727  0.29098  1.0000
  C   C3        1.0  0.75000  0.77275  0.70901  1.0000
  C   C4        1.0  0.25000  0.72725  0.20902  1.0000
  C   C5        1.0  0.75001  0.54443  0.19617  1.0000
  C   C6        1.0  0.24999  0.95557  0.69617  1.0000
  C   C7        1.0  0.75000  0.04443  0.30384  1.0000
  C   C8        1.0  0.25000  0.45557  0.80384  1.0000
  C   C9        1.0  0.75001  0.58422  0.34248  1.0000
  C   C10       1.0  0.25000  0.91578  0.84248  1.0000
  C   C11       1.0  0.75000  0.08423  0.15752  1.0000
  C   C12       1.0  0.25000  0.41578  0.65752  1.0000
  C   C13       1.0  0.75001  0.43678  0.43557  1.0000
  C   C14       1.0  0.25000  0.06322  0.93558  1.0000
  C   C15       1.0  0.74999  0.93679  0.06442  1.0000
  C   C16       1.0  0.24999  0.56321  0.56442  1.0000
  N   N1        1.0  0.75000  0.15862  0.72069  1.0000
  N   N2        1.0  0.25001  0.34138  0.22069  1.0000
  N   N3        1.0  0.75000  0.65861  0.77932  1.0000
  N   N4        1.0  0.25000  0.84139  0.27932  1.0000
  N   N5        1.0  0.75000  0.50992  0.07879  1.0000
  N   N6        1.0  0.25000  0.99008  0.57879  1.0000
  N   N7        1.0  0.75000  0.00992  0.42121  1.0000
  N   N8        1.0  0.25000  0.49008  0.92121  1.0000
