data_image0
_chemical_formula_structural       Ag4H44C36N8
_chemical_formula_sum              "Ag4 H44 C36 N8"
_cell_length_a       8.45494
_cell_length_b       9.71611
_cell_length_c       11.7452
_cell_angle_alpha    90
_cell_angle_beta     96.8335
_cell_angle_gamma    90.0004

_space_group_name_H-M_alt    "P 1"
_space_group_IT_number       1

loop_
  _space_group_symop_operation_xyz
  'x, y, z'

loop_
  _atom_site_type_symbol
  _atom_site_label
  _atom_site_symmetry_multiplicity
  _atom_site_fract_x
  _atom_site_fract_y
  _atom_site_fract_z
  _atom_site_occupancy
  Ag  Ag1       1.0  0.75795  0.35703  0.65150  1.0000
  Ag  Ag2       1.0  0.74205  0.85702  0.84850  1.0000
  Ag  Ag3       1.0  0.24205  0.64298  0.34850  1.0000
  Ag  Ag4       1.0  0.25795  0.14298  0.15150  1.0000
  H   H1        1.0  0.48903  0.16270  0.57219  1.0000
  H   H2        1.0  0.01097  0.66270  0.92781  1.0000
  H   H3        1.0  0.51097  0.83729  0.42781  1.0000
  H   H4        1.0  0.98903  0.33730  0.07219  1.0000
  H   H5        1.0  0.46796  0.31147  0.48363  1.0000
  H   H6        1.0  0.03205  0.81147  0.01638  1.0000
  H   H7        1.0  0.53203  0.68852  0.51637  1.0000
  H   H8        1.0  0.96796  0.18852  0.98363  1.0000
  H   H9        1.0  0.38878  0.15214  0.42933  1.0000
  H   H10       1.0  0.11122  0.65213  0.07068  1.0000
  H   H11       1.0  0.61121  0.84786  0.57068  1.0000
  H   H12       1.0  0.88878  0.34786  0.92932  1.0000
  H   H13       1.0  0.54174  0.04219  0.29903  1.0000
  H   H14       1.0  0.95826  0.54219  0.20098  1.0000
  H   H15       1.0  0.45826  0.95781  0.70097  1.0000
  H   H16       1.0  0.04174  0.45781  0.79902  1.0000
  H   H17       1.0  0.79893  0.03498  0.12306  1.0000
  H   H18       1.0  0.70107  0.53497  0.37694  1.0000
  H   H19       1.0  0.20108  0.96502  0.87694  1.0000
  H   H20       1.0  0.29893  0.46502  0.62306  1.0000
  H   H21       1.0  0.92369  0.91689  0.20525  1.0000
  H   H22       1.0  0.57632  0.41689  0.29475  1.0000
  H   H23       1.0  0.07632  0.08311  0.79475  1.0000
  H   H24       1.0  0.42368  0.58312  0.70525  1.0000
  H   H25       1.0  0.71189  0.89510  0.18906  1.0000
  H   H26       1.0  0.78811  0.39509  0.31094  1.0000
  H   H27       1.0  0.28812  0.10490  0.81094  1.0000
  H   H28       1.0  0.21188  0.60490  0.68906  1.0000
  H   H29       1.0  0.05186  0.09451  0.34127  1.0000
  H   H30       1.0  0.44815  0.59451  0.15873  1.0000
  H   H31       1.0  0.94814  0.90550  0.65872  1.0000
  H   H32       1.0  0.55185  0.40550  0.84127  1.0000
  H   H33       1.0  0.05826  0.37359  0.51738  1.0000
  H   H34       1.0  0.44175  0.87359  0.98262  1.0000
  H   H35       1.0  0.94174  0.62641  0.48262  1.0000
  H   H36       1.0  0.55826  0.12641  0.01738  1.0000
  H   H37       1.0  0.06215  0.24177  0.62234  1.0000
  H   H38       1.0  0.43785  0.74177  0.87766  1.0000
  H   H39       1.0  0.93785  0.75823  0.37766  1.0000
  H   H40       1.0  0.56215  0.25824  0.12234  1.0000
  H   H41       1.0  0.17289  0.22294  0.50280  1.0000
  H   H42       1.0  0.32711  0.72294  0.99720  1.0000
  H   H43       1.0  0.82710  0.77707  0.49720  1.0000
  H   H44       1.0  0.67289  0.27707  0.00280  1.0000
  C   C1        1.0  0.76448  0.55541  0.70483  1.0000
  C   C2        1.0  0.73552  0.05541  0.79517  1.0000
  C   C3        1.0  0.23552  0.44458  0.29517  1.0000
  C   C4        1.0  0.26448  0.94459  0.20483  1.0000
  C   C5        1.0  0.64345  0.16747  0.44003  1.0000
  C   C6        1.0  0.85656  0.66747  0.05998  1.0000
  C   C7        1.0  0.35655  0.83253  0.55998  1.0000
  C   C8        1.0  0.14344  0.33253  0.94002  1.0000
  C   C9        1.0  0.48831  0.19956  0.48362  1.0000
  C   C10       1.0  0.01169  0.69956  0.01638  1.0000
  C   C11       1.0  0.51169  0.80044  0.51638  1.0000
  C   C12       1.0  0.98831  0.30044  0.98362  1.0000
  C   C13       1.0  0.65137  0.08481  0.34374  1.0000
  C   C14       1.0  0.84863  0.58482  0.15625  1.0000
  C   C15       1.0  0.34864  0.91518  0.65626  1.0000
  C   C16       1.0  0.15137  0.41518  0.84374  1.0000
  C   C17       1.0  0.79835  0.05698  0.30514  1.0000
  C   C18       1.0  0.70166  0.55698  0.19486  1.0000
  C   C19       1.0  0.20166  0.94302  0.69486  1.0000
  C   C20       1.0  0.29833  0.44301  0.80513  1.0000
  C   C21       1.0  0.80898  0.97051  0.20075  1.0000
  C   C22       1.0  0.69102  0.47051  0.29925  1.0000
  C   C23       1.0  0.19102  0.02949  0.79926  1.0000
  C   C24       1.0  0.30898  0.52949  0.70074  1.0000
  C   C25       1.0  0.93427  0.11357  0.36733  1.0000
  C   C26       1.0  0.56573  0.61358  0.13267  1.0000
  C   C27       1.0  0.06573  0.88642  0.63267  1.0000
  C   C28       1.0  0.43427  0.38643  0.86733  1.0000
  C   C29       1.0  0.91992  0.19603  0.46285  1.0000
  C   C30       1.0  0.58008  0.69603  0.03715  1.0000
  C   C31       1.0  0.08007  0.80397  0.53715  1.0000
  C   C32       1.0  0.41992  0.30397  0.96285  1.0000
  C   C33       1.0  0.06178  0.26129  0.53009  1.0000
  C   C34       1.0  0.43822  0.76129  0.96991  1.0000
  C   C35       1.0  0.93821  0.73871  0.46991  1.0000
  C   C36       1.0  0.56178  0.23872  0.03009  1.0000
  N   N1        1.0  0.76936  0.66788  0.74170  1.0000
  N   N2        1.0  0.73064  0.16786  0.75831  1.0000
  N   N3        1.0  0.23064  0.33214  0.25830  1.0000
  N   N4        1.0  0.26936  0.83213  0.24169  1.0000
  N   N5        1.0  0.77627  0.22259  0.49769  1.0000
  N   N6        1.0  0.72373  0.72260  0.00231  1.0000
  N   N7        1.0  0.22373  0.77741  0.50231  1.0000
  N   N8        1.0  0.27628  0.27741  0.99769  1.0000
