data_image0
_chemical_formula_structural       Rb4H20C24N4O14
_chemical_formula_sum              "Rb4 H20 C24 N4 O14"
_cell_length_a       5.29692
_cell_length_b       12.1958
_cell_length_c       12.9254
_cell_angle_alpha    105.235
_cell_angle_beta     101.789
_cell_angle_gamma    89.9811

_space_group_name_H-M_alt    "P 1"
_space_group_IT_number       1

loop_
  _space_group_symop_operation_xyz
  'x, y, z'

loop_
  _atom_site_type_symbol
  _atom_site_label
  _atom_site_symmetry_multiplicity
  _atom_site_fract_x
  _atom_site_fract_y
  _atom_site_fract_z
  _atom_site_occupancy
  Rb  Rb1       1.0  0.84764  0.92338  0.08675  1.0000
  Rb  Rb2       1.0  0.76049  0.57660  0.91317  1.0000
  Rb  Rb3       1.0  0.15237  0.07663  0.91325  1.0000
  Rb  Rb4       1.0  0.23950  0.42340  0.08683  1.0000
  H   H1        1.0  0.61962  0.23411  0.42190  1.0000
  H   H2        1.0  0.19715  0.26598  0.57800  1.0000
  H   H3        1.0  0.38038  0.76589  0.57810  1.0000
  H   H4        1.0  0.80285  0.73401  0.42201  1.0000
  H   H5        1.0  0.41857  0.40710  0.51296  1.0000
  H   H6        1.0  0.90544  0.09301  0.48710  1.0000
  H   H7        1.0  0.58143  0.59290  0.48704  1.0000
  H   H8        1.0  0.09457  0.90698  0.51290  1.0000
  H   H9        1.0  0.00303  0.46468  0.41172  1.0000
  H   H10       1.0  0.59148  0.03537  0.58857  1.0000
  H   H11       1.0  0.99698  0.53532  0.58828  1.0000
  H   H12       1.0  0.40852  0.96462  0.41143  1.0000
  H   H13       1.0  0.79644  0.34962  0.22751  1.0000
  H   H14       1.0  0.56918  0.15045  0.77293  1.0000
  H   H15       1.0  0.20357  0.65039  0.77249  1.0000
  H   H16       1.0  0.43082  0.84955  0.22707  1.0000
  H   H17       1.0  0.34513  0.72042  0.04788  1.0000
  H   H18       1.0  0.29726  0.77962  0.95199  1.0000
  H   H19       1.0  0.65487  0.27959  0.95212  1.0000
  H   H20       1.0  0.70274  0.22039  0.04801  1.0000
  C   C1        1.0  0.08488  0.22453  0.21254  1.0000
  C   C2        1.0  0.87209  0.27560  0.78769  1.0000
  C   C3        1.0  0.91513  0.77548  0.78746  1.0000
  C   C4        1.0  0.12790  0.72440  0.21231  1.0000
  C   C5        1.0  0.32599  0.19492  0.27353  1.0000
  C   C6        1.0  0.05191  0.30520  0.72652  1.0000
  C   C7        1.0  0.67401  0.80509  0.72647  1.0000
  C   C8        1.0  0.94808  0.69481  0.27349  1.0000
  C   C9        1.0  0.43990  0.26095  0.38061  1.0000
  C   C10       1.0  0.05881  0.23912  0.61938  1.0000
  C   C11       1.0  0.56010  0.73905  0.61939  1.0000
  C   C12       1.0  0.94119  0.76088  0.38062  1.0000
  C   C13       1.0  0.32844  0.35704  0.43057  1.0000
  C   C14       1.0  0.89752  0.14306  0.56952  1.0000
  C   C15       1.0  0.67157  0.64297  0.56943  1.0000
  C   C16       1.0  0.10248  0.85694  0.43048  1.0000
  C   C17       1.0  0.09458  0.38876  0.37371  1.0000
  C   C18       1.0  0.72083  0.11130  0.62656  1.0000
  C   C19       1.0  0.90543  0.61124  0.62629  1.0000
  C   C20       1.0  0.27917  0.88870  0.37344  1.0000
  C   C21       1.0  0.97806  0.32502  0.27007  1.0000
  C   C22       1.0  0.70811  0.17504  0.73028  1.0000
  C   C23       1.0  0.02195  0.67498  0.72993  1.0000
  C   C24       1.0  0.29189  0.82496  0.26972  1.0000
  N   N1        1.0  0.45889  0.09878  0.22861  1.0000
  N   N2        1.0  0.22962  0.40126  0.77136  1.0000
  N   N3        1.0  0.54111  0.90122  0.77139  1.0000
  N   N4        1.0  0.77037  0.59874  0.22864  1.0000
  O   O1        1.0  0.96965  0.16932  0.11485  1.0000
  O   O2        1.0  0.85437  0.33084  0.88540  1.0000
  O   O3        1.0  0.03036  0.83069  0.88515  1.0000
  O   O4        1.0  0.14561  0.66917  0.11460  1.0000
  O   O5        1.0  0.37561  0.03896  0.13109  1.0000
  O   O6        1.0  0.24406  0.46100  0.86895  1.0000
  O   O7        1.0  0.62440  0.96104  0.86891  1.0000
  O   O8        1.0  0.75593  0.53901  0.13105  1.0000
  O   O9        1.0  0.66024  0.07298  0.28606  1.0000
  O   O10       1.0  0.37331  0.42704  0.71379  1.0000
  O   O11       1.0  0.33977  0.92703  0.71394  1.0000
  O   O12       1.0  0.62668  0.57296  0.28621  1.0000
  O   O13       1.0  0.43827  0.75010  0.99998  1.0000
  O   O14       1.0  0.56172  0.24991  0.00003  1.0000
