data_image0
_chemical_formula_structural       V2H36C60O10
_chemical_formula_sum              "V2 H36 C60 O10"
_cell_length_a       6.9957
_cell_length_b       9.71668
_cell_length_c       16.5585
_cell_angle_alpha    107.552
_cell_angle_beta     91.8289
_cell_angle_gamma    89.9512

_space_group_name_H-M_alt    "P 1"
_space_group_IT_number       1

loop_
  _space_group_symop_operation_xyz
  'x, y, z'

loop_
  _atom_site_type_symbol
  _atom_site_label
  _atom_site_symmetry_multiplicity
  _atom_site_fract_x
  _atom_site_fract_y
  _atom_site_fract_z
  _atom_site_occupancy
  V   V1        1.0  0.54025  0.01904  0.00087  1.0000
  V   V2        1.0  0.04047  0.98180  0.00089  1.0000
  H   H1        1.0  0.15213  0.36346  0.94118  1.0000
  H   H2        1.0  0.35252  0.42732  0.06127  1.0000
  H   H3        1.0  0.85143  0.63358  0.05897  1.0000
  H   H4        1.0  0.65172  0.57563  0.93877  1.0000
  H   H5        1.0  0.22819  0.50768  0.67889  1.0000
  H   H6        1.0  0.26460  0.83898  0.32354  1.0000
  H   H7        1.0  0.76518  0.48690  0.31975  1.0000
  H   H8        1.0  0.72739  0.16491  0.67486  1.0000
  H   H9        1.0  0.13607  0.61958  0.94658  1.0000
  H   H10       1.0  0.37060  0.67869  0.05709  1.0000
  H   H11       1.0  0.86875  0.37713  0.05320  1.0000
  H   H12       1.0  0.63389  0.32421  0.94253  1.0000
  H   H13       1.0  0.17783  0.69246  0.81722  1.0000
  H   H14       1.0  0.32443  0.88322  0.18620  1.0000
  H   H15       1.0  0.82344  0.30315  0.18160  1.0000
  H   H16       1.0  0.67490  0.11987  0.81235  1.0000
  H   H17       1.0  0.27539  0.25377  0.59677  1.0000
  H   H18       1.0  0.21316  0.66902  0.40430  1.0000
  H   H19       1.0  0.71452  0.73971  0.40190  1.0000
  H   H20       1.0  0.77781  0.33612  0.59431  1.0000
  H   H21       1.0  0.40377  0.67951  0.64369  1.0000
  H   H22       1.0  0.09172  0.04642  0.35710  1.0000
  H   H23       1.0  0.59126  0.31602  0.35755  1.0000
  H   H24       1.0  0.90260  0.95952  0.64400  1.0000
  H   H25       1.0  0.40372  0.74899  0.51087  1.0000
  H   H26       1.0  0.09012  0.25234  0.49015  1.0000
  H   H27       1.0  0.58630  0.24418  0.48956  1.0000
  H   H28       1.0  0.90057  0.75502  0.51026  1.0000
  H   H29       1.0  0.32841  0.85699  0.77907  1.0000
  H   H30       1.0  0.16961  0.08474  0.22222  1.0000
  H   H31       1.0  0.67152  0.14080  0.22232  1.0000
  H   H32       1.0  0.82984  0.91900  0.77901  1.0000
  H   H33       1.0  0.32823  0.00029  0.51377  1.0000
  H   H34       1.0  0.16291  0.50085  0.48716  1.0000
  H   H35       1.0  0.66068  0.99225  0.48564  1.0000
  H   H36       1.0  0.82773  0.50596  0.51224  1.0000
  C   C1        1.0  0.20930  0.28552  0.80665  1.0000
  C   C2        1.0  0.28935  0.48603  0.19521  1.0000
  C   C3        1.0  0.78966  0.71073  0.19309  1.0000
  C   C4        1.0  0.71026  0.51732  0.80442  1.0000
  C   C5        1.0  0.22738  0.32739  0.73058  1.0000
  C   C6        1.0  0.26723  0.60576  0.27111  1.0000
  C   C7        1.0  0.76809  0.66780  0.26862  1.0000
  C   C8        1.0  0.72847  0.39810  0.72793  1.0000
  C   C9        1.0  0.17254  0.39456  0.88400  1.0000
  C   C10       1.0  0.32971  0.51656  0.11845  1.0000
  C   C11       1.0  0.82911  0.60211  0.11585  1.0000
  C   C12       1.0  0.67243  0.48645  0.88128  1.0000
  C   C13       1.0  0.21484  0.47653  0.73649  1.0000
  C   C14       1.0  0.28071  0.74919  0.26585  1.0000
  C   C15       1.0  0.78115  0.51855  0.26245  1.0000
  C   C16       1.0  0.71446  0.25454  0.73285  1.0000
  C   C17       1.0  0.16314  0.53700  0.88705  1.0000
  C   C18       1.0  0.34013  0.65625  0.11602  1.0000
  C   C19       1.0  0.83913  0.45949  0.11252  1.0000
  C   C20       1.0  0.66197  0.34668  0.88342  1.0000
  C   C21       1.0  0.18655  0.57874  0.81279  1.0000
  C   C22       1.0  0.31382  0.77387  0.19020  1.0000
  C   C23       1.0  0.81334  0.41696  0.18634  1.0000
  C   C24       1.0  0.68512  0.22945  0.80870  1.0000
  C   C25       1.0  0.28292  0.03473  0.72600  1.0000
  C   C26       1.0  0.21230  0.31731  0.27505  1.0000
  C   C27       1.0  0.71321  0.96114  0.27414  1.0000
  C   C28       1.0  0.78439  0.68692  0.72500  1.0000
  C   C29       1.0  0.28749  0.07629  0.64936  1.0000
  C   C30       1.0  0.20518  0.43752  0.35169  1.0000
  C   C31       1.0  0.70581  0.91836  0.35033  1.0000
  C   C32       1.0  0.78898  0.56742  0.64792  1.0000
  C   C33       1.0  0.23985  0.14045  0.80242  1.0000
  C   C34       1.0  0.25849  0.34490  0.19902  1.0000
  C   C35       1.0  0.75915  0.85620  0.19773  1.0000
  C   C36       1.0  0.74123  0.65849  0.80106  1.0000
  C   C37       1.0  0.26181  0.22148  0.65403  1.0000
  C   C38       1.0  0.22964  0.57806  0.34720  1.0000
  C   C39       1.0  0.73083  0.77291  0.34510  1.0000
  C   C40       1.0  0.76378  0.42661  0.65186  1.0000
  C   C41       1.0  0.36717  0.78946  0.64567  1.0000
  C   C42       1.0  0.12783  0.15448  0.35532  1.0000
  C   C43       1.0  0.62745  0.20584  0.35523  1.0000
  C   C44       1.0  0.86662  0.85128  0.64546  1.0000
  C   C45       1.0  0.36738  0.82938  0.56999  1.0000
  C   C46       1.0  0.12622  0.27204  0.43102  1.0000
  C   C47       1.0  0.62427  0.16457  0.43040  1.0000
  C   C48       1.0  0.86601  0.73448  0.56934  1.0000
  C   C49       1.0  0.32524  0.88894  0.72136  1.0000
  C   C50       1.0  0.17096  0.17620  0.27976  1.0000
  C   C51       1.0  0.67193  0.10747  0.27951  1.0000
  C   C52       1.0  0.82614  0.82834  0.72097  1.0000
  C   C53       1.0  0.32696  0.96862  0.57165  1.0000
  C   C54       1.0  0.16539  0.40968  0.42933  1.0000
  C   C55       1.0  0.66419  0.02501  0.42817  1.0000
  C   C56       1.0  0.82689  0.59650  0.57044  1.0000
  C   C57       1.0  0.24345  0.09761  0.88185  1.0000
  C   C58       1.0  0.26492  0.22022  0.12013  1.0000
  C   C59       1.0  0.76511  0.90104  0.11923  1.0000
  C   C60       1.0  0.74410  0.78214  0.88091  1.0000
  O   O1        1.0  0.40828  0.08799  0.91497  1.0000
  O   O2        1.0  0.10401  0.16213  0.08840  1.0000
  O   O3        1.0  0.60403  0.92691  0.08773  1.0000
  O   O4        1.0  0.90863  0.82565  0.91438  1.0000
  O   O5        1.0  0.08481  0.06999  0.91052  1.0000
  O   O6        1.0  0.42787  0.17717  0.09028  1.0000
  O   O7        1.0  0.92804  0.91401  0.08957  1.0000
  O   O8        1.0  0.58524  0.83883  0.90968  1.0000
  O   O9        1.0  0.75692  0.08333  0.00090  1.0000
  O   O10       1.0  0.25726  0.91725  0.00039  1.0000
