data_image0
_chemical_formula_structural       Tm2H14C18N6O16
_chemical_formula_sum              "Tm2 H14 C18 N6 O16"
_cell_length_a       6.04682
_cell_length_b       12.8191
_cell_length_c       13.2044
_cell_angle_alpha    126.322
_cell_angle_beta     91.9205
_cell_angle_gamma    88.1929

_space_group_name_H-M_alt    "P 1"
_space_group_IT_number       1

loop_
  _space_group_symop_operation_xyz
  'x, y, z'

loop_
  _atom_site_type_symbol
  _atom_site_label
  _atom_site_symmetry_multiplicity
  _atom_site_fract_x
  _atom_site_fract_y
  _atom_site_fract_z
  _atom_site_occupancy
  Tm  Tm1       1.0  0.23742  0.34319  0.15931  1.0000
  Tm  Tm2       1.0  0.76258  0.65681  0.84069  1.0000
  H   H1        1.0  0.31762  0.44206  0.80699  1.0000
  H   H2        1.0  0.68239  0.55794  0.19300  1.0000
  H   H3        1.0  0.88512  0.11804  0.91468  1.0000
  H   H4        1.0  0.11488  0.88196  0.08531  1.0000
  H   H5        1.0  0.64768  0.25142  0.05027  1.0000
  H   H6        1.0  0.35232  0.74858  0.94973  1.0000
  H   H7        1.0  0.50780  0.12500  0.93690  1.0000
  H   H8        1.0  0.49221  0.87500  0.06310  1.0000
  H   H9        1.0  0.24098  0.62236  0.33450  1.0000
  H   H10       1.0  0.75902  0.37763  0.66550  1.0000
  H   H11       1.0  0.06674  0.60427  0.23304  1.0000
  H   H12       1.0  0.93326  0.39572  0.76696  1.0000
  H   H13       1.0  0.38225  0.42212  0.46175  1.0000
  H   H14       1.0  0.61774  0.57788  0.53825  1.0000
  C   C1        1.0  0.40015  0.46865  0.89354  1.0000
  C   C2        1.0  0.59986  0.53134  0.10645  1.0000
  C   C3        1.0  0.31626  0.42911  0.96296  1.0000
  C   C4        1.0  0.68375  0.57088  0.03703  1.0000
  C   C5        1.0  0.10799  0.35048  0.92364  1.0000
  C   C6        1.0  0.89201  0.64952  0.07636  1.0000
  C   C7        1.0  0.16771  0.04933  0.08462  1.0000
  C   C8        1.0  0.83229  0.95066  0.91536  1.0000
  C   C9        1.0  0.93351  0.06539  0.95340  1.0000
  C   C10       1.0  0.06651  0.93461  0.04660  1.0000
  C   C11       1.0  0.36671  0.10433  0.17240  1.0000
  C   C12       1.0  0.63330  0.89567  0.82760  1.0000
  C   C13       1.0  0.87567  0.46827  0.39987  1.0000
  C   C14       1.0  0.12431  0.53173  0.60013  1.0000
  C   C15       1.0  0.21232  0.45815  0.47954  1.0000
  C   C16       1.0  0.78766  0.54186  0.52048  1.0000
  C   C17       1.0  0.74043  0.42234  0.28311  1.0000
  C   C18       1.0  0.25956  0.57766  0.71690  1.0000
  N   N1        1.0  0.58259  0.53970  0.93044  1.0000
  N   N2        1.0  0.41742  0.46030  0.06955  1.0000
  N   N3        1.0  0.09754  0.11520  0.03938  1.0000
  N   N4        1.0  0.90246  0.88480  0.96061  1.0000
  N   N5        1.0  0.08804  0.42805  0.38037  1.0000
  N   N6        1.0  0.91195  0.57195  0.61963  1.0000
  O   O1        1.0  0.06168  0.31189  0.99005  1.0000
  O   O2        1.0  0.93832  0.68812  0.00996  1.0000
  O   O3        1.0  0.99327  0.32891  0.83218  1.0000
  O   O4        1.0  0.00673  0.67109  0.16782  1.0000
  O   O5        1.0  0.39457  0.22526  0.22833  1.0000
  O   O6        1.0  0.60542  0.77474  0.77167  1.0000
  O   O7        1.0  0.49964  0.21924  0.01166  1.0000
  O   O8        1.0  0.50036  0.78075  0.98834  1.0000
  O   O9        1.0  0.12274  0.56597  0.27829  1.0000
  O   O10       1.0  0.87726  0.43402  0.72170  1.0000
  O   O11       1.0  0.48977  0.02813  0.17983  1.0000
  O   O12       1.0  0.51022  0.97188  0.82018  1.0000
  O   O13       1.0  0.53891  0.45793  0.29458  1.0000
  O   O14       1.0  0.46107  0.54207  0.70542  1.0000
  O   O15       1.0  0.84121  0.34797  0.18012  1.0000
  O   O16       1.0  0.15879  0.65203  0.81989  1.0000
