data_image0
_chemical_formula_structural       Rb8H48C48N8O32
_chemical_formula_sum              "Rb8 H48 C48 N8 O32"
_cell_length_a       7.26564
_cell_length_b       11.0633
_cell_length_c       19.724
_cell_angle_alpha    90
_cell_angle_beta     90
_cell_angle_gamma    90

_space_group_name_H-M_alt    "P 1"
_space_group_IT_number       1

loop_
  _space_group_symop_operation_xyz
  'x, y, z'

loop_
  _atom_site_type_symbol
  _atom_site_label
  _atom_site_symmetry_multiplicity
  _atom_site_fract_x
  _atom_site_fract_y
  _atom_site_fract_z
  _atom_site_occupancy
  Rb  Rb1       1.0  0.90959  0.15775  0.48160  1.0000
  Rb  Rb2       1.0  0.40959  0.34225  0.51840  1.0000
  Rb  Rb3       1.0  0.09041  0.65775  0.01840  1.0000
  Rb  Rb4       1.0  0.59041  0.84225  0.98160  1.0000
  Rb  Rb5       1.0  0.09041  0.84225  0.51840  1.0000
  Rb  Rb6       1.0  0.59042  0.65775  0.48160  1.0000
  Rb  Rb7       1.0  0.90959  0.34225  0.98160  1.0000
  Rb  Rb8       1.0  0.40958  0.15775  0.01840  1.0000
  H   H1        1.0  0.48138  0.94323  0.65391  1.0000
  H   H2        1.0  0.98138  0.55677  0.34610  1.0000
  H   H3        1.0  0.51863  0.44323  0.84610  1.0000
  H   H4        1.0  0.01862  0.05677  0.15390  1.0000
  H   H5        1.0  0.51862  0.05677  0.34610  1.0000
  H   H6        1.0  0.01861  0.44323  0.65390  1.0000
  H   H7        1.0  0.48138  0.55678  0.15391  1.0000
  H   H8        1.0  0.98138  0.94322  0.84610  1.0000
  H   H9        1.0  0.48531  0.95215  0.78026  1.0000
  H   H10       1.0  0.98531  0.54786  0.21974  1.0000
  H   H11       1.0  0.51470  0.45214  0.71975  1.0000
  H   H12       1.0  0.01470  0.04785  0.28025  1.0000
  H   H13       1.0  0.51470  0.04785  0.21975  1.0000
  H   H14       1.0  0.01471  0.45215  0.78025  1.0000
  H   H15       1.0  0.48529  0.54785  0.28026  1.0000
  H   H16       1.0  0.98529  0.95215  0.71974  1.0000
  H   H17       1.0  0.72397  0.30829  0.77299  1.0000
  H   H18       1.0  0.22397  0.19171  0.22702  1.0000
  H   H19       1.0  0.27603  0.80829  0.72702  1.0000
  H   H20       1.0  0.77604  0.69171  0.27298  1.0000
  H   H21       1.0  0.27603  0.69171  0.22702  1.0000
  H   H22       1.0  0.77605  0.80829  0.77298  1.0000
  H   H23       1.0  0.72396  0.19171  0.27299  1.0000
  H   H24       1.0  0.22396  0.30829  0.72701  1.0000
  H   H25       1.0  0.71927  0.30226  0.64640  1.0000
  H   H26       1.0  0.21928  0.19774  0.35360  1.0000
  H   H27       1.0  0.28071  0.80226  0.85360  1.0000
  H   H28       1.0  0.78073  0.69774  0.14640  1.0000
  H   H29       1.0  0.28071  0.69775  0.35360  1.0000
  H   H30       1.0  0.78072  0.80226  0.64640  1.0000
  H   H31       1.0  0.71928  0.19775  0.14640  1.0000
  H   H32       1.0  0.21928  0.30226  0.85360  1.0000
  H   H33       1.0  0.84869  0.48609  0.54172  1.0000
  H   H34       1.0  0.34869  0.01391  0.45828  1.0000
  H   H35       1.0  0.15131  0.98609  0.95828  1.0000
  H   H36       1.0  0.65131  0.51391  0.04172  1.0000
  H   H37       1.0  0.15131  0.51391  0.45828  1.0000
  H   H38       1.0  0.65131  0.98609  0.54173  1.0000
  H   H39       1.0  0.84869  0.01391  0.04172  1.0000
  H   H40       1.0  0.34869  0.48609  0.95828  1.0000
  H   H41       1.0  0.88749  0.41349  0.47547  1.0000
  H   H42       1.0  0.38749  0.08651  0.52453  1.0000
  H   H43       1.0  0.11251  0.91349  0.02453  1.0000
  H   H44       1.0  0.61251  0.58651  0.97547  1.0000
  H   H45       1.0  0.11251  0.58651  0.52453  1.0000
  H   H46       1.0  0.61251  0.91349  0.47547  1.0000
  H   H47       1.0  0.88749  0.08651  0.97547  1.0000
  H   H48       1.0  0.38749  0.41349  0.02453  1.0000
  C   C1        1.0  0.59446  0.12390  0.64065  1.0000
  C   C2        1.0  0.09447  0.37610  0.35935  1.0000
  C   C3        1.0  0.40553  0.62390  0.85935  1.0000
  C   C4        1.0  0.90553  0.87610  0.14064  1.0000
  C   C5        1.0  0.40553  0.87611  0.35935  1.0000
  C   C6        1.0  0.90554  0.62390  0.64064  1.0000
  C   C7        1.0  0.59447  0.37611  0.14065  1.0000
  C   C8        1.0  0.09447  0.12389  0.85935  1.0000
  C   C9        1.0  0.53351  0.02294  0.68028  1.0000
  C   C10       1.0  0.03351  0.47706  0.31972  1.0000
  C   C11       1.0  0.46649  0.52294  0.81972  1.0000
  C   C12       1.0  0.96649  0.97706  0.18027  1.0000
  C   C13       1.0  0.46649  0.97706  0.31973  1.0000
  C   C14       1.0  0.96649  0.52294  0.68027  1.0000
  C   C15       1.0  0.53351  0.47706  0.18028  1.0000
  C   C16       1.0  0.03351  0.02294  0.81972  1.0000
  C   C17       1.0  0.53592  0.02719  0.74995  1.0000
  C   C18       1.0  0.03593  0.47281  0.25006  1.0000
  C   C19       1.0  0.46408  0.52718  0.75006  1.0000
  C   C20       1.0  0.96408  0.97281  0.24994  1.0000
  C   C21       1.0  0.46408  0.97282  0.25006  1.0000
  C   C22       1.0  0.96409  0.52719  0.74994  1.0000
  C   C23       1.0  0.53592  0.47281  0.24994  1.0000
  C   C24       1.0  0.03592  0.02718  0.75006  1.0000
  C   C25       1.0  0.60073  0.13159  0.78322  1.0000
  C   C26       1.0  0.10073  0.36841  0.21678  1.0000
  C   C27       1.0  0.39927  0.63159  0.71678  1.0000
  C   C28       1.0  0.89927  0.86841  0.28321  1.0000
  C   C29       1.0  0.39927  0.86841  0.21679  1.0000
  C   C30       1.0  0.89928  0.63159  0.78321  1.0000
  C   C31       1.0  0.60073  0.36841  0.28322  1.0000
  C   C32       1.0  0.10073  0.13159  0.71678  1.0000
  C   C33       1.0  0.66864  0.23061  0.74596  1.0000
  C   C34       1.0  0.16864  0.26939  0.25404  1.0000
  C   C35       1.0  0.33136  0.73060  0.75405  1.0000
  C   C36       1.0  0.83137  0.76939  0.24595  1.0000
  C   C37       1.0  0.33136  0.76939  0.25405  1.0000
  C   C38       1.0  0.83137  0.73061  0.74595  1.0000
  C   C39       1.0  0.66864  0.26939  0.24596  1.0000
  C   C40       1.0  0.16864  0.23061  0.75404  1.0000
  C   C41       1.0  0.66557  0.22697  0.67622  1.0000
  C   C42       1.0  0.16557  0.27303  0.32378  1.0000
  C   C43       1.0  0.33442  0.72696  0.82378  1.0000
  C   C44       1.0  0.83443  0.77303  0.17621  1.0000
  C   C45       1.0  0.33443  0.77303  0.32379  1.0000
  C   C46       1.0  0.83444  0.72697  0.67621  1.0000
  C   C47       1.0  0.66558  0.27304  0.17622  1.0000
  C   C48       1.0  0.16558  0.22697  0.82378  1.0000
  N   N1        1.0  0.59153  0.13756  0.85455  1.0000
  N   N2        1.0  0.09153  0.36244  0.14545  1.0000
  N   N3        1.0  0.40847  0.63756  0.64545  1.0000
  N   N4        1.0  0.90847  0.86244  0.35455  1.0000
  N   N5        1.0  0.40847  0.86244  0.14545  1.0000
  N   N6        1.0  0.90847  0.63756  0.85455  1.0000
  N   N7        1.0  0.59153  0.36244  0.35455  1.0000
  N   N8        1.0  0.09153  0.13756  0.64545  1.0000
  O   O1        1.0  0.58637  0.12279  0.57484  1.0000
  O   O2        1.0  0.08637  0.37721  0.42516  1.0000
  O   O3        1.0  0.41363  0.62279  0.92516  1.0000
  O   O4        1.0  0.91362  0.87721  0.07484  1.0000
  O   O5        1.0  0.41363  0.87721  0.42516  1.0000
  O   O6        1.0  0.91362  0.62280  0.57484  1.0000
  O   O7        1.0  0.58637  0.37721  0.07484  1.0000
  O   O8        1.0  0.08638  0.12279  0.92516  1.0000
  O   O9        1.0  0.53122  0.04753  0.88695  1.0000
  O   O10       1.0  0.03121  0.45247  0.11305  1.0000
  O   O11       1.0  0.46878  0.54753  0.61306  1.0000
  O   O12       1.0  0.96878  0.95247  0.38694  1.0000
  O   O13       1.0  0.46879  0.95247  0.11306  1.0000
  O   O14       1.0  0.96878  0.54753  0.88694  1.0000
  O   O15       1.0  0.53121  0.45247  0.38695  1.0000
  O   O16       1.0  0.03122  0.04753  0.61305  1.0000
  O   O17       1.0  0.63885  0.23350  0.88464  1.0000
  O   O18       1.0  0.13885  0.26651  0.11537  1.0000
  O   O19       1.0  0.36115  0.73349  0.61537  1.0000
  O   O20       1.0  0.86114  0.76651  0.38463  1.0000
  O   O21       1.0  0.36115  0.76651  0.11537  1.0000
  O   O22       1.0  0.86116  0.73349  0.88463  1.0000
  O   O23       1.0  0.63885  0.26651  0.38464  1.0000
  O   O24       1.0  0.13885  0.23349  0.61537  1.0000
  O   O25       1.0  0.79822  0.41944  0.51325  1.0000
  O   O26       1.0  0.29823  0.08056  0.48675  1.0000
  O   O27       1.0  0.20178  0.91944  0.98675  1.0000
  O   O28       1.0  0.70178  0.58056  0.01325  1.0000
  O   O29       1.0  0.20178  0.58056  0.48675  1.0000
  O   O30       1.0  0.70178  0.91944  0.51325  1.0000
  O   O31       1.0  0.79823  0.08056  0.01325  1.0000
  O   O32       1.0  0.29822  0.41944  0.98675  1.0000
