data_image0
_chemical_formula_structural       Cs2H22C24N4O14
_chemical_formula_sum              "Cs2 H22 C24 N4 O14"
_cell_length_a       4.94335
_cell_length_b       11.4273
_cell_length_c       13.9121
_cell_angle_alpha    91.0583
_cell_angle_beta     103.07
_cell_angle_gamma    85.4882

_space_group_name_H-M_alt    "P 1"
_space_group_IT_number       1

loop_
  _space_group_symop_operation_xyz
  'x, y, z'

loop_
  _atom_site_type_symbol
  _atom_site_label
  _atom_site_symmetry_multiplicity
  _atom_site_fract_x
  _atom_site_fract_y
  _atom_site_fract_z
  _atom_site_occupancy
  Cs  Cs1       1.0  0.78336  0.95591  0.86328  1.0000
  Cs  Cs2       1.0  0.21664  0.04409  0.13672  1.0000
  H   H1        1.0  0.32210  0.59024  0.28218  1.0000
  H   H2        1.0  0.67792  0.40976  0.71783  1.0000
  H   H3        1.0  0.44946  0.76595  0.20661  1.0000
  H   H4        1.0  0.55056  0.23405  0.79339  1.0000
  H   H5        1.0  0.96920  0.54655  0.05491  1.0000
  H   H6        1.0  0.03080  0.45345  0.94509  1.0000
  H   H7        1.0  0.84121  0.36845  0.12926  1.0000
  H   H8        1.0  0.15879  0.63155  0.87074  1.0000
  H   H9        1.0  0.68398  0.60451  0.68566  1.0000
  H   H10       1.0  0.31602  0.39549  0.31434  1.0000
  H   H11       1.0  0.19455  0.55377  0.53550  1.0000
  H   H12       1.0  0.80543  0.44622  0.46450  1.0000
  H   H13       1.0  0.24669  0.69456  0.40718  1.0000
  H   H14       1.0  0.75330  0.30544  0.59281  1.0000
  H   H15       1.0  0.60847  0.93092  0.48462  1.0000
  H   H16       1.0  0.39153  0.06908  0.51538  1.0000
  H   H17       1.0  0.54775  0.79000  0.61097  1.0000
  H   H18       1.0  0.45225  0.21000  0.38903  1.0000
  H   H19       1.0  0.67093  0.24481  0.23132  1.0000
  H   H20       1.0  0.32907  0.75519  0.76868  1.0000
  H   H21       1.0  0.79929  0.11858  0.27420  1.0000
  H   H22       1.0  0.20070  0.88143  0.72580  1.0000
  C   C1        1.0  0.57185  0.46585  0.21178  1.0000
  C   C2        1.0  0.42815  0.53415  0.78822  1.0000
  C   C3        1.0  0.46425  0.58124  0.23259  1.0000
  C   C4        1.0  0.53576  0.41877  0.76741  1.0000
  C   C5        1.0  0.53359  0.67904  0.19008  1.0000
  C   C6        1.0  0.46643  0.32096  0.80992  1.0000
  C   C7        1.0  0.71439  0.66611  0.12470  1.0000
  C   C8        1.0  0.28563  0.33389  0.87530  1.0000
  C   C9        1.0  0.82520  0.55338  0.10360  1.0000
  C   C10       1.0  0.17481  0.44662  0.89640  1.0000
  C   C11       1.0  0.75478  0.45542  0.14536  1.0000
  C   C12       1.0  0.24521  0.54458  0.85464  1.0000
  C   C13       1.0  0.86406  0.66058  0.57998  1.0000
  C   C14       1.0  0.13592  0.33942  0.42002  1.0000
  C   C15       1.0  0.06524  0.63591  0.52257  1.0000
  C   C16       1.0  0.93475  0.36408  0.47742  1.0000
  C   C17       1.0  0.09487  0.71383  0.45195  1.0000
  C   C18       1.0  0.90511  0.28616  0.54805  1.0000
  C   C19       1.0  0.92867  0.82051  0.43897  1.0000
  C   C20       1.0  0.07132  0.17949  0.56102  1.0000
  C   C21       1.0  0.73409  0.84804  0.49715  1.0000
  C   C22       1.0  0.26590  0.15196  0.50285  1.0000
  C   C23       1.0  0.70193  0.76975  0.56709  1.0000
  C   C24       1.0  0.29806  0.23025  0.43291  1.0000
  N   N1        1.0  0.78518  0.76515  0.07934  1.0000
  N   N2        1.0  0.21484  0.23485  0.92066  1.0000
  N   N3        1.0  0.96017  0.90353  0.36826  1.0000
  N   N4        1.0  0.03982  0.09647  0.63174  1.0000
  O   O1        1.0  0.50630  0.37303  0.25209  1.0000
  O   O2        1.0  0.49370  0.62697  0.74791  1.0000
  O   O3        1.0  0.68263  0.86686  0.09651  1.0000
  O   O4        1.0  0.31738  0.13314  0.90350  1.0000
  O   O5        1.0  0.95060  0.75221  0.02222  1.0000
  O   O6        1.0  0.04941  0.24779  0.97778  1.0000
  O   O7        1.0  0.83296  0.57956  0.64224  1.0000
  O   O8        1.0  0.16703  0.42044  0.35776  1.0000
  O   O9        1.0  0.13415  0.88077  0.31613  1.0000
  O   O10       1.0  0.86584  0.11924  0.68387  1.0000
  O   O11       1.0  0.81132  0.99948  0.36122  1.0000
  O   O12       1.0  0.18867  0.00052  0.63877  1.0000
  O   O13       1.0  0.75180  0.16629  0.21376  1.0000
  O   O14       1.0  0.24820  0.83371  0.78624  1.0000
