data_image0
_chemical_formula_structural       Rb2H38C48N8O24
_chemical_formula_sum              "Rb2 H38 C48 N8 O24"
_cell_length_a       11.3008
_cell_length_b       11.4777
_cell_length_c       12.143
_cell_angle_alpha    96.7431
_cell_angle_beta     110.652
_cell_angle_gamma    114.226

_space_group_name_H-M_alt    "P 1"
_space_group_IT_number       1

loop_
  _space_group_symop_operation_xyz
  'x, y, z'

loop_
  _atom_site_type_symbol
  _atom_site_label
  _atom_site_symmetry_multiplicity
  _atom_site_fract_x
  _atom_site_fract_y
  _atom_site_fract_z
  _atom_site_occupancy
  Rb  Rb1       1.0  0.99922  0.07166  0.16455  1.0000
  Rb  Rb2       1.0  0.00078  0.92834  0.83546  1.0000
  H   H1        1.0  0.66685  0.30866  0.51467  1.0000
  H   H2        1.0  0.33315  0.69133  0.48533  1.0000
  H   H3        1.0  0.41423  0.19037  0.34362  1.0000
  H   H4        1.0  0.58577  0.80962  0.65638  1.0000
  H   H5        1.0  0.57073  0.08853  0.09021  1.0000
  H   H6        1.0  0.42927  0.91147  0.90979  1.0000
  H   H7        1.0  0.82059  0.20540  0.25979  1.0000
  H   H8        1.0  0.17941  0.79459  0.74021  1.0000
  H   H9        1.0  0.66796  0.57965  0.75903  1.0000
  H   H10       1.0  0.33204  0.42035  0.24097  1.0000
  H   H11       1.0  0.48855  0.41271  0.55498  1.0000
  H   H12       1.0  0.51144  0.58728  0.44502  1.0000
  H   H13       1.0  0.14095  0.39025  0.64088  1.0000
  H   H14       1.0  0.85905  0.60975  0.35912  1.0000
  H   H15       1.0  0.31893  0.55418  0.84561  1.0000
  H   H16       1.0  0.68107  0.44582  0.15439  1.0000
  H   H17       1.0  0.24324  0.19444  0.81038  1.0000
  H   H18       1.0  0.75676  0.80556  0.18962  1.0000
  H   H19       1.0  0.11173  0.06304  0.58742  1.0000
  H   H20       1.0  0.88827  0.93696  0.41258  1.0000
  H   H21       1.0  0.50381  0.07792  0.59793  1.0000
  H   H22       1.0  0.49619  0.92208  0.40207  1.0000
  H   H23       1.0  0.63475  0.20648  0.82334  1.0000
  H   H24       1.0  0.36525  0.79352  0.17666  1.0000
  H   H25       1.0  0.70955  0.50590  0.95093  1.0000
  H   H26       1.0  0.29045  0.49410  0.04907  1.0000
  H   H27       1.0  0.79876  0.35841  0.04058  1.0000
  H   H28       1.0  0.20124  0.64159  0.95942  1.0000
  H   H29       1.0  0.21583  0.70263  0.27610  1.0000
  H   H30       1.0  0.78417  0.29737  0.72390  1.0000
  H   H31       1.0  0.13021  0.85142  0.18284  1.0000
  H   H32       1.0  0.86979  0.14858  0.81716  1.0000
  H   H33       1.0  0.96023  0.30799  0.46886  1.0000
  H   H34       1.0  0.03977  0.69201  0.53114  1.0000
  H   H35       1.0  0.46427  0.29430  0.99294  1.0000
  H   H36       1.0  0.53573  0.70570  0.00705  1.0000
  H   H37       1.0  0.75787  0.72632  0.97071  1.0000
  H   H38       1.0  0.24213  0.27368  0.02929  1.0000
  C   C1        1.0  0.75753  0.26049  0.39818  1.0000
  C   C2        1.0  0.24247  0.73951  0.60182  1.0000
  C   C3        1.0  0.64309  0.25826  0.42169  1.0000
  C   C4        1.0  0.35691  0.74174  0.57831  1.0000
  C   C5        1.0  0.50385  0.19351  0.32718  1.0000
  C   C6        1.0  0.49615  0.80649  0.67282  1.0000
  C   C7        1.0  0.47836  0.13073  0.20836  1.0000
  C   C8        1.0  0.52164  0.86927  0.79164  1.0000
  C   C9        1.0  0.59187  0.13502  0.18322  1.0000
  C   C10       1.0  0.40813  0.86498  0.81678  1.0000
  C   C11       1.0  0.73083  0.19964  0.27784  1.0000
  C   C12       1.0  0.26917  0.80036  0.72216  1.0000
  C   C13       1.0  0.50696  0.57985  0.81880  1.0000
  C   C14       1.0  0.49304  0.42015  0.18120  1.0000
  C   C15       1.0  0.55297  0.53771  0.73403  1.0000
  C   C16       1.0  0.44703  0.46229  0.26597  1.0000
  C   C17       1.0  0.45339  0.44533  0.61940  1.0000
  C   C18       1.0  0.54661  0.55467  0.38060  1.0000
  C   C19       1.0  0.30427  0.39314  0.58425  1.0000
  C   C20       1.0  0.69573  0.60686  0.41576  1.0000
  C   C21       1.0  0.25590  0.43263  0.66651  1.0000
  C   C22       1.0  0.74410  0.56737  0.33349  1.0000
  C   C23       1.0  0.35543  0.52359  0.78149  1.0000
  C   C24       1.0  0.64457  0.47641  0.21851  1.0000
  C   C25       1.0  0.44706  0.20628  0.83159  1.0000
  C   C26       1.0  0.55294  0.79372  0.16841  1.0000
  C   C27       1.0  0.29876  0.16589  0.76422  1.0000
  C   C28       1.0  0.70124  0.83411  0.23578  1.0000
  C   C29       1.0  0.22579  0.09407  0.63962  1.0000
  C   C30       1.0  0.77421  0.90593  0.36038  1.0000
  C   C31       1.0  0.30074  0.06304  0.58082  1.0000
  C   C32       1.0  0.69926  0.93696  0.41918  1.0000
  C   C33       1.0  0.44842  0.10352  0.64586  1.0000
  C   C34       1.0  0.55158  0.89648  0.35414  1.0000
  C   C35       1.0  0.52039  0.17418  0.77025  1.0000
  C   C36       1.0  0.47962  0.82582  0.22975  1.0000
  C   C37       1.0  0.91491  0.68894  0.06049  1.0000
  C   C38       1.0  0.08509  0.31106  0.93951  1.0000
  C   C39       1.0  0.82111  0.54904  0.02003  1.0000
  C   C40       1.0  0.17889  0.45096  0.97997  1.0000
  C   C41       1.0  0.87023  0.46610  0.07007  1.0000
  C   C42       1.0  0.12977  0.53390  0.92993  1.0000
  C   C43       1.0  0.01251  0.52246  0.16187  1.0000
  C   C44       1.0  0.98749  0.47754  0.83813  1.0000
  C   C45       1.0  0.10679  0.66118  0.20299  1.0000
  C   C46       1.0  0.89320  0.33882  0.79701  1.0000
  C   C47       1.0  0.05888  0.74348  0.15085  1.0000
  C   C48       1.0  0.94112  0.25652  0.84915  1.0000
  N   N1        1.0  0.33444  0.06175  0.11056  1.0000
  N   N2        1.0  0.66556  0.93825  0.88944  1.0000
  N   N3        1.0  0.20393  0.29806  0.46624  1.0000
  N   N4        1.0  0.79607  0.70194  0.53376  1.0000
  N   N5        1.0  0.22694  0.99118  0.45080  1.0000
  N   N6        1.0  0.77306  0.00882  0.54920  1.0000
  N   N7        1.0  0.06293  0.43635  0.21389  1.0000
  N   N8        1.0  0.93707  0.56365  0.78611  1.0000
  O   O1        1.0  0.89088  0.32247  0.49350  1.0000
  O   O2        1.0  0.10912  0.67753  0.50650  1.0000
  O   O3        1.0  0.23296  0.05911  0.13265  1.0000
  O   O4        1.0  0.76704  0.94089  0.86735  1.0000
  O   O5        1.0  0.31211  0.00516  0.00495  1.0000
  O   O6        1.0  0.68789  0.99484  0.99505  1.0000
  O   O7        1.0  0.60048  0.66794  0.92821  1.0000
  O   O8        1.0  0.39952  0.33206  0.07179  1.0000
  O   O9        1.0  0.24937  0.25736  0.39817  1.0000
  O   O10       1.0  0.75063  0.74264  0.60183  1.0000
  O   O11       1.0  0.06902  0.25307  0.43041  1.0000
  O   O12       1.0  0.93098  0.74693  0.56959  1.0000
  O   O13       1.0  0.52324  0.27489  0.95158  1.0000
  O   O14       1.0  0.47676  0.72511  0.04842  1.0000
  O   O15       1.0  0.09632  0.95890  0.39147  1.0000
  O   O16       1.0  0.90368  0.04110  0.60853  1.0000
  O   O17       1.0  0.29672  0.96490  0.40129  1.0000
  O   O18       1.0  0.70328  0.03510  0.59871  1.0000
  O   O19       1.0  0.87119  0.77403  0.01682  1.0000
  O   O20       1.0  0.12881  0.22597  0.98318  1.0000
  O   O21       1.0  0.97978  0.31189  0.16924  1.0000
  O   O22       1.0  0.02022  0.68811  0.83076  1.0000
  O   O23       1.0  0.18740  0.48728  0.30020  1.0000
  O   O24       1.0  0.81260  0.51272  0.69979  1.0000
