data_image0
_chemical_formula_structural       Sn2H16C24N4Cl4
_chemical_formula_sum              "Sn2 H16 C24 N4 Cl4"
_cell_length_a       8.17737
_cell_length_b       9.25295
_cell_length_c       9.25312
_cell_angle_alpha    65.5038
_cell_angle_beta     77.7536
_cell_angle_gamma    77.7551

_space_group_name_H-M_alt    "P 1"
_space_group_IT_number       1

loop_
  _space_group_symop_operation_xyz
  'x, y, z'

loop_
  _atom_site_type_symbol
  _atom_site_label
  _atom_site_symmetry_multiplicity
  _atom_site_fract_x
  _atom_site_fract_y
  _atom_site_fract_z
  _atom_site_occupancy
  Sn  Sn1       1.0  0.75002  0.04945  0.95055  1.0000
  Sn  Sn2       1.0  0.25006  0.95058  0.04946  1.0000
  H   H1        1.0  0.07409  0.98433  0.68892  1.0000
  H   H2        1.0  0.42589  0.31108  0.01567  1.0000
  H   H3        1.0  0.92591  0.01566  0.31107  1.0000
  H   H4        1.0  0.57410  0.68892  0.98433  1.0000
  H   H5        1.0  0.20218  0.11589  0.40021  1.0000
  H   H6        1.0  0.29781  0.59980  0.88410  1.0000
  H   H7        1.0  0.79781  0.88411  0.59979  1.0000
  H   H8        1.0  0.70218  0.40020  0.11589  1.0000
  H   H9        1.0  0.07538  0.39378  0.23630  1.0000
  H   H10       1.0  0.42463  0.76370  0.60621  1.0000
  H   H11       1.0  0.92462  0.60622  0.76370  1.0000
  H   H12       1.0  0.57537  0.23630  0.39378  1.0000
  H   H13       1.0  0.86983  0.63796  0.22649  1.0000
  H   H14       1.0  0.63018  0.77351  0.36203  1.0000
  H   H15       1.0  0.13017  0.36204  0.77351  1.0000
  H   H16       1.0  0.36982  0.22649  0.63797  1.0000
  C   C1        1.0  0.02288  0.10500  0.61263  1.0000
  C   C2        1.0  0.47711  0.38737  0.89499  1.0000
  C   C3        1.0  0.97712  0.89499  0.38737  1.0000
  C   C4        1.0  0.52288  0.61263  0.10500  1.0000
  C   C5        1.0  0.09352  0.17917  0.45186  1.0000
  C   C6        1.0  0.40647  0.54814  0.82082  1.0000
  C   C7        1.0  0.90647  0.82082  0.54813  1.0000
  C   C8        1.0  0.59352  0.45186  0.17918  1.0000
  C   C9        1.0  0.02434  0.33256  0.36168  1.0000
  C   C10       1.0  0.47566  0.63832  0.66744  1.0000
  C   C11       1.0  0.97565  0.66744  0.63832  1.0000
  C   C12       1.0  0.52434  0.36168  0.33256  1.0000
  C   C13       1.0  0.88709  0.41302  0.43356  1.0000
  C   C14       1.0  0.61291  0.56645  0.58697  1.0000
  C   C15       1.0  0.11290  0.58697  0.56644  1.0000
  C   C16       1.0  0.38709  0.43356  0.41303  1.0000
  C   C17       1.0  0.82116  0.32798  0.59572  1.0000
  C   C18       1.0  0.67884  0.40428  0.67202  1.0000
  C   C19       1.0  0.17884  0.67202  0.40428  1.0000
  C   C20       1.0  0.32117  0.59572  0.32798  1.0000
  C   C21       1.0  0.81519  0.57504  0.35030  1.0000
  C   C22       1.0  0.68481  0.64969  0.42495  1.0000
  C   C23       1.0  0.18481  0.42495  0.64970  1.0000
  C   C24       1.0  0.31519  0.35031  0.57505  1.0000
  N   N1        1.0  0.88959  0.17614  0.68160  1.0000
  N   N2        1.0  0.61040  0.31840  0.82385  1.0000
  N   N3        1.0  0.11041  0.82385  0.31840  1.0000
  N   N4        1.0  0.38960  0.68160  0.17615  1.0000
  Cl  Cl1       1.0  0.43932  0.02615  0.22101  1.0000
  Cl  Cl2       1.0  0.06069  0.77903  0.97385  1.0000
  Cl  Cl3       1.0  0.56069  0.97385  0.77900  1.0000
  Cl  Cl4       1.0  0.93930  0.22098  0.02615  1.0000
