data_image0
_chemical_formula_structural       Cu2H44C38S4Br2O4
_chemical_formula_sum              "Cu2 H44 C38 S4 Br2 O4"
_cell_length_a       8.94756
_cell_length_b       11.1678
_cell_length_c       11.01
_cell_angle_alpha    104.447
_cell_angle_beta     96.8751
_cell_angle_gamma    95.0236

_space_group_name_H-M_alt    "P 1"
_space_group_IT_number       1

loop_
  _space_group_symop_operation_xyz
  'x, y, z'

loop_
  _atom_site_type_symbol
  _atom_site_label
  _atom_site_symmetry_multiplicity
  _atom_site_fract_x
  _atom_site_fract_y
  _atom_site_fract_z
  _atom_site_occupancy
  Cu  Cu1       1.0  0.37837  0.96902  0.05815  1.0000
  Cu  Cu2       1.0  0.62160  0.03097  0.94187  1.0000
  H   H1        1.0  0.11667  0.64788  0.36843  1.0000
  H   H2        1.0  0.88334  0.35212  0.63157  1.0000
  H   H3        1.0  0.23368  0.55946  0.26853  1.0000
  H   H4        1.0  0.76632  0.44054  0.73145  1.0000
  H   H5        1.0  0.30195  0.59053  0.50639  1.0000
  H   H6        1.0  0.69806  0.40947  0.49360  1.0000
  H   H7        1.0  0.12957  0.49384  0.50243  1.0000
  H   H8        1.0  0.87044  0.50616  0.49756  1.0000
  H   H9        1.0  0.29888  0.48900  0.65990  1.0000
  H   H10       1.0  0.70112  0.51099  0.34009  1.0000
  H   H11       1.0  0.42456  0.39673  0.81741  1.0000
  H   H12       1.0  0.57544  0.60327  0.18258  1.0000
  H   H13       1.0  0.56774  0.21467  0.75066  1.0000
  H   H14       1.0  0.43226  0.78533  0.24934  1.0000
  H   H15       1.0  0.57873  0.12669  0.52134  1.0000
  H   H16       1.0  0.42128  0.87331  0.47866  1.0000
  H   H17       1.0  0.57165  0.19237  0.30502  1.0000
  H   H18       1.0  0.42835  0.80761  0.69497  1.0000
  H   H19       1.0  0.40361  0.25300  0.25887  1.0000
  H   H20       1.0  0.59639  0.74699  0.74113  1.0000
  H   H21       1.0  0.11460  0.95909  0.25649  1.0000
  H   H22       1.0  0.88539  0.04092  0.74352  1.0000
  H   H23       1.0  0.16166  0.09633  0.38334  1.0000
  H   H24       1.0  0.83832  0.90367  0.61668  1.0000
  H   H25       1.0  0.14889  0.11801  0.11141  1.0000
  H   H26       1.0  0.85112  0.88199  0.88860  1.0000
  H   H27       1.0  0.11036  0.22978  0.24450  1.0000
  H   H28       1.0  0.88964  0.77023  0.75551  1.0000
  H   H29       1.0  0.86125  0.09141  0.23761  1.0000
  H   H30       1.0  0.13875  0.90859  0.76239  1.0000
  H   H31       1.0  0.90819  0.98258  0.10691  1.0000
  H   H32       1.0  0.09182  0.01743  0.89309  1.0000
  H   H33       1.0  0.64760  0.27052  0.15137  1.0000
  H   H34       1.0  0.35240  0.72948  0.84863  1.0000
  H   H35       1.0  0.83047  0.30085  0.24951  1.0000
  H   H36       1.0  0.16953  0.69916  0.75049  1.0000
  H   H37       1.0  0.60286  0.37028  0.97588  1.0000
  H   H38       1.0  0.39714  0.62972  0.02412  1.0000
  H   H39       1.0  0.65159  0.56622  0.90709  1.0000
  H   H40       1.0  0.34840  0.43379  0.09290  1.0000
  H   H41       1.0  0.88260  0.71485  0.00941  1.0000
  H   H42       1.0  0.11740  0.28515  0.99058  1.0000
  H   H43       1.0  0.05959  0.67253  0.17754  1.0000
  H   H44       1.0  0.94041  0.32747  0.82245  1.0000
  C   C1        1.0  0.15050  0.55409  0.33352  1.0000
  C   C2        1.0  0.84951  0.44591  0.66647  1.0000
  C   C3        1.0  0.21858  0.51373  0.44648  1.0000
  C   C4        1.0  0.78143  0.48627  0.55351  1.0000
  C   C5        1.0  0.36497  0.35974  0.49840  1.0000
  C   C6        1.0  0.63504  0.64025  0.50160  1.0000
  C   C7        1.0  0.36058  0.41021  0.62789  1.0000
  C   C8        1.0  0.63943  0.58979  0.37211  1.0000
  C   C9        1.0  0.43355  0.35824  0.71783  1.0000
  C   C10       1.0  0.56645  0.64176  0.28217  1.0000
  C   C11       1.0  0.51353  0.25680  0.68046  1.0000
  C   C12       1.0  0.48647  0.74319  0.31954  1.0000
  C   C13       1.0  0.51902  0.20774  0.55191  1.0000
  C   C14       1.0  0.48099  0.79225  0.44809  1.0000
  C   C15       1.0  0.44597  0.25729  0.45902  1.0000
  C   C16       1.0  0.55403  0.74270  0.54098  1.0000
  C   C17       1.0  0.45378  0.20033  0.32165  1.0000
  C   C18       1.0  0.54622  0.79966  0.67835  1.0000
  C   C19       1.0  0.16878  0.05616  0.28254  1.0000
  C   C20       1.0  0.83120  0.94385  0.71747  1.0000
  C   C21       1.0  0.09336  0.12958  0.19704  1.0000
  C   C22       1.0  0.90664  0.87042  0.80297  1.0000
  C   C23       1.0  0.92524  0.08222  0.15716  1.0000
  C   C24       1.0  0.07476  0.91778  0.84283  1.0000
  C   C25       1.0  0.76997  0.29412  0.15496  1.0000
  C   C26       1.0  0.23004  0.70588  0.84503  1.0000
  C   C27       1.0  0.80135  0.41143  0.11566  1.0000
  C   C28       1.0  0.19865  0.58857  0.88434  1.0000
  C   C29       1.0  0.70291  0.43736  0.01939  1.0000
  C   C30       1.0  0.29709  0.56264  0.98061  1.0000
  C   C31       1.0  0.73034  0.54609  0.98081  1.0000
  C   C32       1.0  0.26966  0.45391  0.01918  1.0000
  C   C33       1.0  0.85858  0.63010  0.03917  1.0000
  C   C34       1.0  0.14142  0.36990  0.96082  1.0000
  C   C35       1.0  0.95852  0.60683  0.13564  1.0000
  C   C36       1.0  0.04148  0.39317  0.86435  1.0000
  C   C37       1.0  0.93011  0.49774  0.17414  1.0000
  C   C38       1.0  0.06989  0.50226  0.82585  1.0000
  S   S1        1.0  0.36616  0.03814  0.26773  1.0000
  S   S2        1.0  0.63382  0.96185  0.73229  1.0000
  S   S3        1.0  0.83306  0.15935  0.04650  1.0000
  S   S4        1.0  0.16693  0.84065  0.95350  1.0000
  Br  Br1       1.0  0.59824  0.85093  0.03724  1.0000
  Br  Br2       1.0  0.40174  0.14910  0.96288  1.0000
  O   O1        1.0  0.02026  0.46757  0.26958  1.0000
  O   O2        1.0  0.97973  0.53243  0.73042  1.0000
  O   O3        1.0  0.29303  0.40535  0.40507  1.0000
  O   O4        1.0  0.70698  0.59464  0.59493  1.0000
