data_image0
_chemical_formula_structural       Mn2H36C40N8O8
_chemical_formula_sum              "Mn2 H36 C40 N8 O8"
_cell_length_a       9.27
_cell_length_b       9.29683
_cell_length_c       10.2308
_cell_angle_alpha    90.0001
_cell_angle_beta     89.9998
_cell_angle_gamma    115.338

_space_group_name_H-M_alt    "P 1"
_space_group_IT_number       1

loop_
  _space_group_symop_operation_xyz
  'x, y, z'

loop_
  _atom_site_type_symbol
  _atom_site_label
  _atom_site_symmetry_multiplicity
  _atom_site_fract_x
  _atom_site_fract_y
  _atom_site_fract_z
  _atom_site_occupancy
  Mn  Mn1       1.0  0.50000  0.50000  0.50000  1.0000
  Mn  Mn2       1.0  1.00000  1.00000  1.00000  1.0000
  H   H1        1.0  0.14926  0.87274  0.23637  1.0000
  H   H2        1.0  0.35072  0.62728  0.73635  1.0000
  H   H3        1.0  0.85074  0.12726  0.76363  1.0000
  H   H4        1.0  0.64929  0.37272  0.26364  1.0000
  H   H5        1.0  0.20837  0.56851  0.41390  1.0000
  H   H6        1.0  0.29158  0.93148  0.91387  1.0000
  H   H7        1.0  0.79164  0.43149  0.58610  1.0000
  H   H8        1.0  0.70842  0.06852  0.08612  1.0000
  H   H9        1.0  0.41872  0.04293  0.25505  1.0000
  H   H10       1.0  0.08125  0.45707  0.75503  1.0000
  H   H11       1.0  0.58129  0.95707  0.74496  1.0000
  H   H12       1.0  0.91875  0.54293  0.24496  1.0000
  H   H13       1.0  0.67766  0.07309  0.34864  1.0000
  H   H14       1.0  0.82229  0.42689  0.84863  1.0000
  H   H15       1.0  0.32234  0.92692  0.65136  1.0000
  H   H16       1.0  0.17771  0.57311  0.15137  1.0000
  H   H17       1.0  0.69697  0.84667  0.45949  1.0000
  H   H18       1.0  0.80300  0.65331  0.95948  1.0000
  H   H19       1.0  0.30303  0.15333  0.54051  1.0000
  H   H20       1.0  0.19700  0.34669  0.04052  1.0000
  H   H21       1.0  0.11337  0.23742  0.76491  1.0000
  H   H22       1.0  0.38660  0.26261  0.26492  1.0000
  H   H23       1.0  0.88663  0.76257  0.23509  1.0000
  H   H24       1.0  0.61339  0.73739  0.73508  1.0000
  H   H25       1.0  0.62303  0.49782  0.80577  1.0000
  H   H26       1.0  0.87697  0.00224  0.30577  1.0000
  H   H27       1.0  0.37696  0.50218  0.19423  1.0000
  H   H28       1.0  0.12303  0.99776  0.69423  1.0000
  H   H29       1.0  0.60572  0.31593  0.99441  1.0000
  H   H30       1.0  0.89428  0.18413  0.49438  1.0000
  H   H31       1.0  0.39427  0.68407  0.00559  1.0000
  H   H32       1.0  0.10572  0.81586  0.50562  1.0000
  H   H33       1.0  0.34222  0.10932  0.06089  1.0000
  H   H34       1.0  0.15776  0.39069  0.56091  1.0000
  H   H35       1.0  0.65778  0.89067  0.93911  1.0000
  H   H36       1.0  0.84224  0.60931  0.43909  1.0000
  C   C1        1.0  0.31227  0.68072  0.39871  1.0000
  C   C2        1.0  0.18770  0.81927  0.89871  1.0000
  C   C3        1.0  0.68774  0.31928  0.60129  1.0000
  C   C4        1.0  0.81230  0.18073  0.10129  1.0000
  C   C5        1.0  0.29405  0.80274  0.33011  1.0000
  C   C6        1.0  0.20594  0.69726  0.83009  1.0000
  C   C7        1.0  0.70596  0.19726  0.66990  1.0000
  C   C8        1.0  0.79407  0.30274  0.16991  1.0000
  C   C9        1.0  0.42759  0.94645  0.30894  1.0000
  C   C10       1.0  0.07239  0.55356  0.80894  1.0000
  C   C11       1.0  0.57242  0.05355  0.69107  1.0000
  C   C12       1.0  0.92761  0.44645  0.19106  1.0000
  C   C13       1.0  0.57199  0.96156  0.35964  1.0000
  C   C14       1.0  0.92798  0.53842  0.85963  1.0000
  C   C15       1.0  0.42802  0.03844  0.64037  1.0000
  C   C16       1.0  0.07202  0.46158  0.14037  1.0000
  C   C17       1.0  0.58264  0.83538  0.42395  1.0000
  C   C18       1.0  0.91733  0.66461  0.92397  1.0000
  C   C19       1.0  0.41736  0.16462  0.57605  1.0000
  C   C20       1.0  0.08267  0.33539  0.07603  1.0000
  C   C21       1.0  0.22496  0.25848  0.81346  1.0000
  C   C22       1.0  0.27499  0.24153  0.31346  1.0000
  C   C23       1.0  0.77503  0.74152  0.18654  1.0000
  C   C24       1.0  0.72500  0.75847  0.68654  1.0000
  C   C25       1.0  0.37024  0.38202  0.77011  1.0000
  C   C26       1.0  0.12974  0.11800  0.27013  1.0000
  C   C27       1.0  0.62975  0.61797  0.22989  1.0000
  C   C28       1.0  0.87026  0.88199  0.72987  1.0000
  C   C29       1.0  0.51017  0.40364  0.83703  1.0000
  C   C30       1.0  0.98981  0.09642  0.33701  1.0000
  C   C31       1.0  0.48982  0.59636  0.16297  1.0000
  C   C32       1.0  0.01019  0.90358  0.66298  1.0000
  C   C33       1.0  0.50031  0.30315  0.93994  1.0000
  C   C34       1.0  0.99968  0.19689  0.43994  1.0000
  C   C35       1.0  0.49969  0.69685  0.06006  1.0000
  C   C36       1.0  0.00031  0.80311  0.56005  1.0000
  C   C37       1.0  0.35348  0.18518  0.97727  1.0000
  C   C38       1.0  0.14648  0.31482  0.47728  1.0000
  C   C39       1.0  0.64651  0.81481  0.02273  1.0000
  C   C40       1.0  0.85352  0.68517  0.52272  1.0000
  N   N1        1.0  0.45566  0.69259  0.44204  1.0000
  N   N2        1.0  0.04432  0.80741  0.94202  1.0000
  N   N3        1.0  0.54435  0.30742  0.55796  1.0000
  N   N4        1.0  0.95568  0.19259  0.05797  1.0000
  N   N5        1.0  0.21489  0.16189  0.91642  1.0000
  N   N6        1.0  0.28505  0.33810  0.41642  1.0000
  N   N7        1.0  0.78511  0.83811  0.08358  1.0000
  N   N8        1.0  0.71494  0.66190  0.58358  1.0000
  O   O1        1.0  0.14737  0.77656  0.28513  1.0000
  O   O2        1.0  0.35262  0.72347  0.78513  1.0000
  O   O3        1.0  0.85264  0.22344  0.71487  1.0000
  O   O4        1.0  0.64738  0.27653  0.21487  1.0000
  O   O5        1.0  0.37473  0.47957  0.67114  1.0000
  O   O6        1.0  0.12530  0.02048  0.17117  1.0000
  O   O7        1.0  0.62526  0.52042  0.32886  1.0000
  O   O8        1.0  0.87470  0.97952  0.82883  1.0000
