data_image0
_chemical_formula_structural       Mn2H34C14Br4N2O8
_chemical_formula_sum              "Mn2 H34 C14 Br4 N2 O8"
_cell_length_a       8.28662
_cell_length_b       8.16221
_cell_length_c       9.33859
_cell_angle_alpha    91.0359
_cell_angle_beta     89.9997
_cell_angle_gamma    89.9994

_space_group_name_H-M_alt    "P 1"
_space_group_IT_number       1

loop_
  _space_group_symop_operation_xyz
  'x, y, z'

loop_
  _atom_site_type_symbol
  _atom_site_label
  _atom_site_symmetry_multiplicity
  _atom_site_fract_x
  _atom_site_fract_y
  _atom_site_fract_z
  _atom_site_occupancy
  Mn  Mn1       1.0  0.17769  0.00181  0.33473  1.0000
  Mn  Mn2       1.0  0.67768  0.99819  0.66528  1.0000
  H   H1        1.0  0.99555  0.08894  0.85945  1.0000
  H   H2        1.0  0.49555  0.91105  0.14055  1.0000
  H   H3        1.0  0.00878  0.42667  0.72948  1.0000
  H   H4        1.0  0.50880  0.57332  0.27051  1.0000
  H   H5        1.0  0.89092  0.35757  0.87379  1.0000
  H   H6        1.0  0.39094  0.64242  0.12621  1.0000
  H   H7        1.0  0.15372  0.55310  0.92819  1.0000
  H   H8        1.0  0.65374  0.44690  0.07180  1.0000
  H   H9        1.0  0.12320  0.38168  0.03942  1.0000
  H   H10       1.0  0.62322  0.61834  0.96058  1.0000
  H   H11       1.0  0.39568  0.32705  0.94773  1.0000
  H   H12       1.0  0.89569  0.67296  0.05227  1.0000
  H   H13       1.0  0.33848  0.38874  0.77175  1.0000
  H   H14       1.0  0.83850  0.61126  0.22825  1.0000
  H   H15       1.0  0.24529  0.08998  0.92506  1.0000
  H   H16       1.0  0.74529  0.91003  0.07495  1.0000
  H   H17       1.0  0.30590  0.10717  0.75468  1.0000
  H   H18       1.0  0.80590  0.89283  0.24533  1.0000
  H   H19       1.0  0.98458  0.78385  0.50853  1.0000
  H   H20       1.0  0.48458  0.21615  0.49147  1.0000
  H   H21       1.0  0.14956  0.59124  0.29588  1.0000
  H   H22       1.0  0.64954  0.40877  0.70411  1.0000
  H   H23       1.0  0.03147  0.52330  0.44469  1.0000
  H   H24       1.0  0.53146  0.47671  0.55530  1.0000
  H   H25       1.0  0.22796  0.60943  0.47283  1.0000
  H   H26       1.0  0.72795  0.39057  0.52716  1.0000
  H   H27       1.0  0.89597  0.10905  0.42142  1.0000
  H   H28       1.0  0.39597  0.89095  0.57858  1.0000
  H   H29       1.0  0.94334  0.34692  0.27932  1.0000
  H   H30       1.0  0.44335  0.65308  0.72069  1.0000
  H   H31       1.0  0.74639  0.25656  0.25250  1.0000
  H   H32       1.0  0.24639  0.74344  0.74750  1.0000
  H   H33       1.0  0.90440  0.21587  0.12733  1.0000
  H   H34       1.0  0.40440  0.78414  0.87268  1.0000
  C   C1        1.0  0.03758  0.12735  0.63720  1.0000
  C   C2        1.0  0.53757  0.87263  0.36280  1.0000
  C   C3        1.0  0.06278  0.17582  0.79318  1.0000
  C   C4        1.0  0.56278  0.82417  0.20683  1.0000
  C   C5        1.0  0.01236  0.35425  0.82750  1.0000
  C   C6        1.0  0.51237  0.64574  0.17250  1.0000
  C   C7        1.0  0.14422  0.41904  0.92840  1.0000
  C   C8        1.0  0.64423  0.58096  0.07159  1.0000
  C   C9        1.0  0.29570  0.33525  0.87170  1.0000
  C   C10       1.0  0.79571  0.66476  0.12829  1.0000
  C   C11       1.0  0.11751  0.61611  0.40799  1.0000
  C   C12       1.0  0.61750  0.38390  0.59200  1.0000
  C   C13       1.0  0.87736  0.23791  0.24083  1.0000
  C   C14       1.0  0.37736  0.76210  0.75918  1.0000
  Br  Br1       1.0  0.15361  0.89232  0.07455  1.0000
  Br  Br2       1.0  0.65361  0.10768  0.92546  1.0000
  Br  Br3       1.0  0.35348  0.25614  0.28149  1.0000
  Br  Br4       1.0  0.85347  0.74385  0.71851  1.0000
  N   N1        1.0  0.23834  0.16475  0.83524  1.0000
  N   N2        1.0  0.73835  0.83525  0.16476  1.0000
  O   O1        1.0  0.15831  0.09164  0.56102  1.0000
  O   O2        1.0  0.65830  0.90836  0.43898  1.0000
  O   O3        1.0  0.89087  0.13016  0.59273  1.0000
  O   O4        1.0  0.39086  0.86982  0.40727  1.0000
  O   O5        1.0  0.04504  0.77620  0.41648  1.0000
  O   O6        1.0  0.54504  0.22380  0.58353  1.0000
  O   O7        1.0  0.92657  0.09500  0.31701  1.0000
  O   O8        1.0  0.42656  0.90500  0.68299  1.0000
