data_image0
_chemical_formula_structural       CuMo4H30C42N6O13
_chemical_formula_sum              "Cu1 Mo4 H30 C42 N6 O13"
_cell_length_a       8.14544
_cell_length_b       9.30135
_cell_length_c       13.8524
_cell_angle_alpha    78.593
_cell_angle_beta     83.144
_cell_angle_gamma    77.5663

_space_group_name_H-M_alt    "P 1"
_space_group_IT_number       1

loop_
  _space_group_symop_operation_xyz
  'x, y, z'

loop_
  _atom_site_type_symbol
  _atom_site_label
  _atom_site_symmetry_multiplicity
  _atom_site_fract_x
  _atom_site_fract_y
  _atom_site_fract_z
  _atom_site_occupancy
  Cu  Cu1       1.0  0.00000  1.00000  0.00000  1.0000
  Mo  Mo1       1.0  0.19985  0.38504  0.94789  1.0000
  Mo  Mo2       1.0  0.80015  0.61496  0.05210  1.0000
  Mo  Mo3       1.0  0.33591  0.68276  0.07345  1.0000
  Mo  Mo4       1.0  0.66409  0.31724  0.92655  1.0000
  H   H1        1.0  0.37937  0.07387  0.05240  1.0000
  H   H2        1.0  0.62064  0.92613  0.94760  1.0000
  H   H3        1.0  0.43176  0.90052  0.20836  1.0000
  H   H4        1.0  0.56824  0.09948  0.79164  1.0000
  H   H5        1.0  0.17671  0.26054  0.36082  1.0000
  H   H6        1.0  0.82329  0.73946  0.63918  1.0000
  H   H7        1.0  0.13089  0.41911  0.19611  1.0000
  H   H8        1.0  0.86911  0.58089  0.80389  1.0000
  H   H9        1.0  0.54525  0.81548  0.33003  1.0000
  H   H10       1.0  0.45475  0.18452  0.66997  1.0000
  H   H11       1.0  0.45661  0.70084  0.64420  1.0000
  H   H12       1.0  0.54338  0.29916  0.35580  1.0000
  H   H13       1.0  0.15031  0.09118  0.48546  1.0000
  H   H14       1.0  0.84969  0.90882  0.51454  1.0000
  H   H15       1.0  0.86405  0.30732  0.63866  1.0000
  H   H16       1.0  0.13594  0.69268  0.36134  1.0000
  H   H17       1.0  0.64010  0.52295  0.64654  1.0000
  H   H18       1.0  0.35990  0.47706  0.35346  1.0000
  H   H19       1.0  0.71007  0.63022  0.32622  1.0000
  H   H20       1.0  0.28992  0.36978  0.67378  1.0000
  H   H21       1.0  0.93604  0.41403  0.33345  1.0000
  H   H22       1.0  0.06396  0.58597  0.66655  1.0000
  H   H23       1.0  0.00480  0.20171  0.79928  1.0000
  H   H24       1.0  0.99520  0.79829  0.20072  1.0000
  H   H25       1.0  0.12863  0.16885  0.63014  1.0000
  H   H26       1.0  0.87137  0.83115  0.36986  1.0000
  H   H27       1.0  0.24708  0.69236  0.74275  1.0000
  H   H28       1.0  0.75292  0.30764  0.25725  1.0000
  H   H29       1.0  0.11713  0.74466  0.90323  1.0000
  H   H30       1.0  0.88287  0.25533  0.09677  1.0000
  C   C1        1.0  0.33791  0.11198  0.12232  1.0000
  C   C2        1.0  0.66210  0.88803  0.87768  1.0000
  C   C3        1.0  0.36734  0.01520  0.21090  1.0000
  C   C4        1.0  0.63266  0.98480  0.78910  1.0000
  C   C5        1.0  0.31076  0.06447  0.30098  1.0000
  C   C6        1.0  0.68924  0.93553  0.69902  1.0000
  C   C7        1.0  0.22436  0.21361  0.29445  1.0000
  C   C8        1.0  0.77564  0.78638  0.70555  1.0000
  C   C9        1.0  0.19868  0.30366  0.20223  1.0000
  C   C10       1.0  0.80132  0.69634  0.79776  1.0000
  C   C11       1.0  0.34451  0.96420  0.39651  1.0000
  C   C12       1.0  0.65549  0.03580  0.60349  1.0000
  C   C13       1.0  0.47310  0.83656  0.39870  1.0000
  C   C14       1.0  0.52690  0.16344  0.60130  1.0000
  C   C15       1.0  0.51494  0.73818  0.48660  1.0000
  C   C16       1.0  0.48506  0.26181  0.51340  1.0000
  C   C17       1.0  0.42421  0.77221  0.57418  1.0000
  C   C18       1.0  0.57579  0.22780  0.42581  1.0000
  C   C19       1.0  0.29443  0.89866  0.57487  1.0000
  C   C20       1.0  0.70557  0.10135  0.42512  1.0000
  C   C21       1.0  0.25402  0.99451  0.48557  1.0000
  C   C22       1.0  0.74598  0.00549  0.51443  1.0000
  C   C23       1.0  0.83008  0.38252  0.56989  1.0000
  C   C24       1.0  0.16991  0.61748  0.43011  1.0000
  C   C25       1.0  0.70043  0.50684  0.57403  1.0000
  C   C26       1.0  0.29957  0.49316  0.42597  1.0000
  C   C27       1.0  0.65193  0.60440  0.48669  1.0000
  C   C28       1.0  0.34806  0.39560  0.51331  1.0000
  C   C29       1.0  0.73974  0.56621  0.39883  1.0000
  C   C30       1.0  0.26026  0.43378  0.60117  1.0000
  C   C31       1.0  0.86902  0.44072  0.40257  1.0000
  C   C32       1.0  0.13097  0.55928  0.59743  1.0000
  C   C33       1.0  0.06025  0.09095  0.78285  1.0000
  C   C34       1.0  0.93975  0.90905  0.21715  1.0000
  C   C35       1.0  0.13016  0.07113  0.68858  1.0000
  C   C36       1.0  0.86984  0.92887  0.31142  1.0000
  C   C37       1.0  0.20619  0.92720  0.67066  1.0000
  C   C38       1.0  0.79381  0.07280  0.32934  1.0000
  C   C39       1.0  0.19886  0.80842  0.75013  1.0000
  C   C40       1.0  0.80115  0.19158  0.24987  1.0000
  C   C41       1.0  0.12469  0.83618  0.84155  1.0000
  C   C42       1.0  0.87531  0.16382  0.15845  1.0000
  N   N1        1.0  0.25466  0.25498  0.11671  1.0000
  N   N2        1.0  0.74534  0.74502  0.88329  1.0000
  N   N3        1.0  0.91695  0.34793  0.48616  1.0000
  N   N4        1.0  0.08305  0.65207  0.51384  1.0000
  N   N5        1.0  0.05994  0.97529  0.85889  1.0000
  N   N6        1.0  0.94006  0.02471  0.14111  1.0000
  O   O1        1.0  0.12490  0.22461  0.94853  1.0000
  O   O2        1.0  0.87511  0.77538  0.05147  1.0000
  O   O3        1.0  1.00000  0.50000  1.00000  1.0000
  O   O4        1.0  0.19968  0.47228  0.82619  1.0000
  O   O5        1.0  0.80033  0.52772  0.17380  1.0000
  O   O6        1.0  0.30579  0.55278  0.00132  1.0000
  O   O7        1.0  0.69421  0.44722  0.99868  1.0000
  O   O8        1.0  0.44464  0.29349  0.93682  1.0000
  O   O9        1.0  0.55536  0.70651  0.06318  1.0000
  O   O10       1.0  0.27454  0.62286  0.19585  1.0000
  O   O11       1.0  0.72546  0.37714  0.80415  1.0000
  O   O12       1.0  0.21346  0.86185  0.03353  1.0000
  O   O13       1.0  0.78655  0.13815  0.96647  1.0000
