data_image0
_chemical_formula_structural       Tb4H28C32S4O28
_chemical_formula_sum              "Tb4 H28 C32 S4 O28"
_cell_length_a       7.71414
_cell_length_b       9.82017
_cell_length_c       14.2862
_cell_angle_alpha    90
_cell_angle_beta     90.0001
_cell_angle_gamma    102.353

_space_group_name_H-M_alt    "P 1"
_space_group_IT_number       1

loop_
  _space_group_symop_operation_xyz
  'x, y, z'

loop_
  _atom_site_type_symbol
  _atom_site_label
  _atom_site_symmetry_multiplicity
  _atom_site_fract_x
  _atom_site_fract_y
  _atom_site_fract_z
  _atom_site_occupancy
  Tb  Tb1       1.0  0.59927  0.09560  0.11361  1.0000
  Tb  Tb2       1.0  0.90073  0.90441  0.61361  1.0000
  Tb  Tb3       1.0  0.40072  0.90441  0.88639  1.0000
  Tb  Tb4       1.0  0.09928  0.09559  0.38639  1.0000
  H   H1        1.0  0.64373  0.49474  0.12778  1.0000
  H   H2        1.0  0.85627  0.50526  0.62778  1.0000
  H   H3        1.0  0.35627  0.50526  0.87222  1.0000
  H   H4        1.0  0.14373  0.49474  0.37222  1.0000
  H   H5        1.0  0.83016  0.73682  0.19678  1.0000
  H   H6        1.0  0.66983  0.26318  0.69678  1.0000
  H   H7        1.0  0.16985  0.26318  0.80321  1.0000
  H   H8        1.0  0.33015  0.73682  0.30322  1.0000
  H   H9        1.0  0.99454  0.79265  0.00902  1.0000
  H   H10       1.0  0.50545  0.20735  0.50902  1.0000
  H   H11       1.0  0.00544  0.20735  0.99098  1.0000
  H   H12       1.0  0.49456  0.79265  0.49099  1.0000
  H   H13       1.0  0.81569  0.74973  0.92594  1.0000
  H   H14       1.0  0.68429  0.25026  0.42594  1.0000
  H   H15       1.0  0.18429  0.25026  0.07406  1.0000
  H   H16       1.0  0.31572  0.74974  0.57407  1.0000
  H   H17       1.0  0.78922  0.68397  0.04109  1.0000
  H   H18       1.0  0.71076  0.31604  0.54108  1.0000
  H   H19       1.0  0.21076  0.31603  0.95892  1.0000
  H   H20       1.0  0.28925  0.68397  0.45892  1.0000
  H   H21       1.0  0.52587  0.00705  0.32037  1.0000
  H   H22       1.0  0.97413  0.99295  0.82037  1.0000
  H   H23       1.0  0.47413  0.99296  0.67964  1.0000
  H   H24       1.0  0.02586  0.00704  0.17963  1.0000
  H   H25       1.0  0.72071  0.10770  0.30887  1.0000
  H   H26       1.0  0.77929  0.89231  0.80887  1.0000
  H   H27       1.0  0.27929  0.89231  0.69113  1.0000
  H   H28       1.0  0.22071  0.10769  0.19112  1.0000
  C   C1        1.0  0.43324  0.30629  0.25977  1.0000
  C   C2        1.0  0.06677  0.69371  0.75977  1.0000
  C   C3        1.0  0.56675  0.69371  0.74023  1.0000
  C   C4        1.0  0.93324  0.30628  0.24023  1.0000
  C   C5        1.0  0.55345  0.44344  0.26978  1.0000
  C   C6        1.0  0.94656  0.55656  0.76978  1.0000
  C   C7        1.0  0.44656  0.55656  0.73022  1.0000
  C   C8        1.0  0.05345  0.44344  0.23022  1.0000
  C   C9        1.0  0.64735  0.52756  0.20065  1.0000
  C   C10       1.0  0.85266  0.47243  0.70065  1.0000
  C   C11       1.0  0.35266  0.47243  0.79935  1.0000
  C   C12       1.0  0.14735  0.52757  0.29935  1.0000
  C   C13       1.0  0.74607  0.65404  0.23668  1.0000
  C   C14       1.0  0.75393  0.34595  0.73668  1.0000
  C   C15       1.0  0.25394  0.34595  0.76332  1.0000
  C   C16       1.0  0.24607  0.65405  0.26332  1.0000
  C   C17       1.0  0.72837  0.66404  0.33296  1.0000
  C   C18       1.0  0.77164  0.33596  0.83296  1.0000
  C   C19       1.0  0.27164  0.33596  0.66704  1.0000
  C   C20       1.0  0.22837  0.66404  0.16704  1.0000
  C   C21       1.0  0.82034  0.77911  0.39374  1.0000
  C   C22       1.0  0.67965  0.22089  0.89374  1.0000
  C   C23       1.0  0.17966  0.22089  0.60626  1.0000
  C   C24       1.0  0.32033  0.77911  0.10626  1.0000
  C   C25       1.0  0.77812  0.89638  0.03105  1.0000
  C   C26       1.0  0.72188  0.10362  0.53105  1.0000
  C   C27       1.0  0.22186  0.10362  0.96895  1.0000
  C   C28       1.0  0.27814  0.89639  0.46896  1.0000
  C   C29       1.0  0.85088  0.77517  0.99892  1.0000
  C   C30       1.0  0.64911  0.22483  0.49892  1.0000
  C   C31       1.0  0.14911  0.22483  0.00108  1.0000
  C   C32       1.0  0.35090  0.77517  0.50109  1.0000
  S   S1        1.0  0.58747  0.52009  0.37868  1.0000
  S   S2        1.0  0.91255  0.47990  0.87868  1.0000
  S   S3        1.0  0.41254  0.47990  0.62132  1.0000
  S   S4        1.0  0.08747  0.52010  0.12132  1.0000
  O   O1        1.0  0.42985  0.24113  0.18116  1.0000
  O   O2        1.0  0.07015  0.75886  0.68116  1.0000
  O   O3        1.0  0.57014  0.75887  0.81884  1.0000
  O   O4        1.0  0.92986  0.24113  0.31884  1.0000
  O   O5        1.0  0.33759  0.25946  0.32965  1.0000
  O   O6        1.0  0.16242  0.74053  0.82964  1.0000
  O   O7        1.0  0.66241  0.74054  0.67036  1.0000
  O   O8        1.0  0.83759  0.25946  0.17035  1.0000
  O   O9        1.0  0.92072  0.88097  0.35256  1.0000
  O   O10       1.0  0.57927  0.11903  0.85256  1.0000
  O   O11       1.0  0.07928  0.11903  0.64743  1.0000
  O   O12       1.0  0.42072  0.88098  0.14743  1.0000
  O   O13       1.0  0.79294  0.76712  0.48201  1.0000
  O   O14       1.0  0.70705  0.23289  0.98202  1.0000
  O   O15       1.0  0.20706  0.23289  0.51798  1.0000
  O   O16       1.0  0.29293  0.76711  0.01799  1.0000
  O   O17       1.0  0.83911  0.96732  0.10324  1.0000
  O   O18       1.0  0.66090  0.03269  0.60325  1.0000
  O   O19       1.0  0.16088  0.03268  0.89676  1.0000
  O   O20       1.0  0.33912  0.96732  0.39676  1.0000
  O   O21       1.0  0.64684  0.92879  0.98755  1.0000
  O   O22       1.0  0.85316  0.07122  0.48756  1.0000
  O   O23       1.0  0.35314  0.07122  0.01244  1.0000
  O   O24       1.0  0.14686  0.92879  0.51245  1.0000
  O   O25       1.0  0.62145  0.04685  0.27584  1.0000
  O   O26       1.0  0.87854  0.95315  0.77584  1.0000
  O   O27       1.0  0.37854  0.95316  0.72416  1.0000
  O   O28       1.0  0.12146  0.04684  0.22415  1.0000
