data_image0
_chemical_formula_structural       Sm4H28C32S4O28
_chemical_formula_sum              "Sm4 H28 C32 S4 O28"
_cell_length_a       7.97832
_cell_length_b       9.93881
_cell_length_c       14.3463
_cell_angle_alpha    90.0005
_cell_angle_beta     90.0006
_cell_angle_gamma    103.135

_space_group_name_H-M_alt    "P 1"
_space_group_IT_number       1

loop_
  _space_group_symop_operation_xyz
  'x, y, z'

loop_
  _atom_site_type_symbol
  _atom_site_label
  _atom_site_symmetry_multiplicity
  _atom_site_fract_x
  _atom_site_fract_y
  _atom_site_fract_z
  _atom_site_occupancy
  Sm  Sm1       1.0  0.60031  0.59784  0.11645  1.0000
  Sm  Sm2       1.0  0.89969  0.40216  0.61645  1.0000
  Sm  Sm3       1.0  0.39969  0.40216  0.88355  1.0000
  Sm  Sm4       1.0  0.10031  0.59784  0.38355  1.0000
  H   H1        1.0  0.50853  0.49266  0.31923  1.0000
  H   H2        1.0  0.99147  0.50734  0.81923  1.0000
  H   H3        1.0  0.49146  0.50734  0.68077  1.0000
  H   H4        1.0  0.00853  0.49266  0.18077  1.0000
  H   H5        1.0  0.70408  0.48641  0.30276  1.0000
  H   H6        1.0  0.79591  0.51359  0.80276  1.0000
  H   H7        1.0  0.29591  0.51359  0.69725  1.0000
  H   H8        1.0  0.20409  0.48641  0.19724  1.0000
  H   H9        1.0  0.31883  0.24334  0.30063  1.0000
  H   H10       1.0  0.18117  0.75665  0.80063  1.0000
  H   H11       1.0  0.68117  0.75666  0.69937  1.0000
  H   H12       1.0  0.81884  0.24334  0.19937  1.0000
  H   H13       1.0  0.15336  0.99707  0.36709  1.0000
  H   H14       1.0  0.34665  0.00293  0.86709  1.0000
  H   H15       1.0  0.84664  0.00293  0.63291  1.0000
  H   H16       1.0  0.65335  0.99707  0.13291  1.0000
  H   H17       1.0  0.97221  0.29200  0.00910  1.0000
  H   H18       1.0  0.52779  0.70800  0.50910  1.0000
  H   H19       1.0  0.02779  0.70800  0.99090  1.0000
  H   H20       1.0  0.47221  0.29200  0.49089  1.0000
  H   H21       1.0  0.81470  0.27615  0.91753  1.0000
  H   H22       1.0  0.68530  0.72385  0.41753  1.0000
  H   H23       1.0  0.18530  0.72385  0.08247  1.0000
  H   H24       1.0  0.31471  0.27615  0.58247  1.0000
  H   H25       1.0  0.76723  0.17550  0.01965  1.0000
  H   H26       1.0  0.73277  0.82450  0.51965  1.0000
  H   H27       1.0  0.23276  0.82450  0.98035  1.0000
  H   H28       1.0  0.26723  0.17550  0.48035  1.0000
  C   C1        1.0  0.28239  0.29461  0.10631  1.0000
  C   C2        1.0  0.21761  0.70539  0.60630  1.0000
  C   C3        1.0  0.71761  0.70539  0.89369  1.0000
  C   C4        1.0  0.78239  0.29461  0.39369  1.0000
  C   C5        1.0  0.20876  0.17495  0.16586  1.0000
  C   C6        1.0  0.29125  0.82504  0.66585  1.0000
  C   C7        1.0  0.79125  0.82504  0.83414  1.0000
  C   C8        1.0  0.70875  0.17495  0.33415  1.0000
  C   C9        1.0  0.23617  0.16153  0.26063  1.0000
  C   C10       1.0  0.26384  0.83847  0.76063  1.0000
  C   C11       1.0  0.76383  0.83847  0.73937  1.0000
  C   C12       1.0  0.73617  0.16152  0.23937  1.0000
  C   C13       1.0  0.14884  0.03209  0.29546  1.0000
  C   C14       1.0  0.35117  0.96791  0.79546  1.0000
  C   C15       1.0  0.85116  0.96791  0.70454  1.0000
  C   C16       1.0  0.64883  0.03209  0.20454  1.0000
  C   C17       1.0  0.05410  0.94923  0.22716  1.0000
  C   C18       1.0  0.44592  0.05077  0.72716  1.0000
  C   C19       1.0  0.94591  0.05077  0.77284  1.0000
  C   C20       1.0  0.55409  0.94923  0.27284  1.0000
  C   C21       1.0  0.94368  0.80913  0.23849  1.0000
  C   C22       1.0  0.55631  0.19088  0.73849  1.0000
  C   C23       1.0  0.05633  0.19087  0.76152  1.0000
  C   C24       1.0  0.44367  0.80912  0.26152  1.0000
  C   C25       1.0  0.75719  0.38489  0.03679  1.0000
  C   C26       1.0  0.74281  0.61511  0.53679  1.0000
  C   C27       1.0  0.24281  0.61511  0.96321  1.0000
  C   C28       1.0  0.25719  0.38490  0.46320  1.0000
  C   C29       1.0  0.83526  0.27710  0.99307  1.0000
  C   C30       1.0  0.66473  0.72290  0.49307  1.0000
  C   C31       1.0  0.16473  0.72289  0.00693  1.0000
  C   C32       1.0  0.33526  0.27711  0.50692  1.0000
  S   S1        1.0  0.07526  0.02920  0.12013  1.0000
  S   S2        1.0  0.42474  0.97080  0.62013  1.0000
  S   S3        1.0  0.92474  0.97079  0.87987  1.0000
  S   S4        1.0  0.57525  0.02920  0.37987  1.0000
  O   O1        1.0  0.35704  0.40649  0.14814  1.0000
  O   O2        1.0  0.14296  0.59350  0.64815  1.0000
  O   O3        1.0  0.64297  0.59351  0.85186  1.0000
  O   O4        1.0  0.85703  0.40649  0.35186  1.0000
  O   O5        1.0  0.26548  0.28010  0.01852  1.0000
  O   O6        1.0  0.23452  0.71990  0.51851  1.0000
  O   O7        1.0  0.73452  0.71990  0.98149  1.0000
  O   O8        1.0  0.76548  0.28010  0.48149  1.0000
  O   O9        1.0  0.95438  0.74734  0.31572  1.0000
  O   O10       1.0  0.54562  0.25266  0.81571  1.0000
  O   O11       1.0  0.04561  0.25267  0.68428  1.0000
  O   O12       1.0  0.45438  0.74733  0.18428  1.0000
  O   O13       1.0  0.84581  0.75911  0.17140  1.0000
  O   O14       1.0  0.65420  0.24089  0.67139  1.0000
  O   O15       1.0  0.15418  0.24088  0.82859  1.0000
  O   O16       1.0  0.34581  0.75912  0.32859  1.0000
  O   O17       1.0  0.82507  0.45662  0.10682  1.0000
  O   O18       1.0  0.67493  0.54339  0.60682  1.0000
  O   O19       1.0  0.17493  0.54339  0.89318  1.0000
  O   O20       1.0  0.32506  0.45662  0.39318  1.0000
  O   O21       1.0  0.61482  0.40506  0.00424  1.0000
  O   O22       1.0  0.88518  0.59494  0.50424  1.0000
  O   O23       1.0  0.38518  0.59494  0.99576  1.0000
  O   O24       1.0  0.11481  0.40505  0.49576  1.0000
  O   O25       1.0  0.60974  0.52637  0.27861  1.0000
  O   O26       1.0  0.89025  0.47363  0.77861  1.0000
  O   O27       1.0  0.39025  0.47363  0.72139  1.0000
  O   O28       1.0  0.10974  0.52637  0.22139  1.0000
