data_image0
_chemical_formula_structural       Ag4H40C36N8O24
_chemical_formula_sum              "Ag4 H40 C36 N8 O24"
_cell_length_a       8.50309
_cell_length_b       10.9164
_cell_length_c       12.6759
_cell_angle_alpha    90.1574
_cell_angle_beta     70.4196
_cell_angle_gamma    90.4698

_space_group_name_H-M_alt    "P 1"
_space_group_IT_number       1

loop_
  _space_group_symop_operation_xyz
  'x, y, z'

loop_
  _atom_site_type_symbol
  _atom_site_label
  _atom_site_symmetry_multiplicity
  _atom_site_fract_x
  _atom_site_fract_y
  _atom_site_fract_z
  _atom_site_occupancy
  Ag  Ag1       1.0  0.15276  0.24987  0.69407  1.0000
  Ag  Ag2       1.0  0.84724  0.75013  0.30593  1.0000
  Ag  Ag3       1.0  1.00000  0.50000  0.00000  1.0000
  Ag  Ag4       1.0  1.00000  1.00000  0.00000  1.0000
  H   H1        1.0  0.69497  0.09336  0.61797  1.0000
  H   H2        1.0  0.68711  0.40633  0.61795  1.0000
  H   H3        1.0  0.30503  0.90664  0.38203  1.0000
  H   H4        1.0  0.31288  0.59367  0.38205  1.0000
  H   H5        1.0  0.87830  0.02124  0.62548  1.0000
  H   H6        1.0  0.49646  0.47871  0.62541  1.0000
  H   H7        1.0  0.12170  0.97876  0.37452  1.0000
  H   H8        1.0  0.50353  0.52129  0.37459  1.0000
  H   H9        1.0  0.90998  0.14639  0.44548  1.0000
  H   H10       1.0  0.64405  0.35345  0.44551  1.0000
  H   H11       1.0  0.09002  0.85362  0.55452  1.0000
  H   H12       1.0  0.35595  0.64655  0.55449  1.0000
  H   H13       1.0  0.88610  0.28016  0.52931  1.0000
  H   H14       1.0  0.58435  0.21968  0.52937  1.0000
  H   H15       1.0  0.11390  0.71984  0.47070  1.0000
  H   H16       1.0  0.41565  0.78033  0.47063  1.0000
  H   H17       1.0  0.56981  0.05403  0.03303  1.0000
  H   H18       1.0  0.39681  0.44631  0.03295  1.0000
  H   H19       1.0  0.43019  0.94597  0.96697  1.0000
  H   H20       1.0  0.60319  0.55369  0.96705  1.0000
  H   H21       1.0  0.88546  0.34056  0.83540  1.0000
  H   H22       1.0  0.27933  0.15960  0.83523  1.0000
  H   H23       1.0  0.11453  0.65944  0.16460  1.0000
  H   H24       1.0  0.72066  0.84040  0.16478  1.0000
  H   H25       1.0  0.58791  0.15786  0.20359  1.0000
  H   H26       1.0  0.20847  0.34228  0.20353  1.0000
  H   H27       1.0  0.41209  0.84213  0.79641  1.0000
  H   H28       1.0  0.79153  0.65772  0.79647  1.0000
  H   H29       1.0  0.76907  0.34512  0.18158  1.0000
  H   H30       1.0  0.04959  0.15491  0.18141  1.0000
  H   H31       1.0  0.23093  0.65488  0.81842  1.0000
  H   H32       1.0  0.95041  0.84509  0.81859  1.0000
  H   H33       1.0  0.15164  0.34360  0.42679  1.0000
  H   H34       1.0  0.42110  0.15621  0.42707  1.0000
  H   H35       1.0  0.84836  0.65641  0.57321  1.0000
  H   H36       1.0  0.57890  0.84379  0.57294  1.0000
  H   H37       1.0  0.19812  0.20763  0.34293  1.0000
  H   H38       1.0  0.45890  0.29218  0.34320  1.0000
  H   H39       1.0  0.80188  0.79237  0.65707  1.0000
  H   H40       1.0  0.54110  0.70782  0.65680  1.0000
  C   C1        1.0  0.72871  0.18800  0.92026  1.0000
  C   C2        1.0  0.35084  0.31224  0.92020  1.0000
  C   C3        1.0  0.27129  0.81200  0.07974  1.0000
  C   C4        1.0  0.64916  0.68775  0.07980  1.0000
  C   C5        1.0  0.82091  0.10994  0.62113  1.0000
  C   C6        1.0  0.55797  0.38993  0.62114  1.0000
  C   C7        1.0  0.17909  0.89007  0.37887  1.0000
  C   C8        1.0  0.44203  0.61007  0.37886  1.0000
  C   C9        1.0  0.72335  0.12053  0.81903  1.0000
  C   C10       1.0  0.45745  0.37969  0.81900  1.0000
  C   C11       1.0  0.27665  0.87946  0.18097  1.0000
  C   C12       1.0  0.54255  0.62031  0.18100  1.0000
  C   C13       1.0  0.92571  0.18380  0.52231  1.0000
  C   C14       1.0  0.55166  0.31603  0.52241  1.0000
  C   C15       1.0  0.07429  0.81620  0.47769  1.0000
  C   C16       1.0  0.44834  0.68397  0.47759  1.0000
  C   C17       1.0  0.64347  0.13743  0.02551  1.0000
  C   C18       1.0  0.33080  0.36283  0.02544  1.0000
  C   C19       1.0  0.35653  0.86257  0.97450  1.0000
  C   C20       1.0  0.66920  0.63716  0.97456  1.0000
  C   C21       1.0  0.82027  0.29612  0.91514  1.0000
  C   C22       1.0  0.26458  0.20404  0.91501  1.0000
  C   C23       1.0  0.17973  0.70388  0.08486  1.0000
  C   C24       1.0  0.73542  0.79596  0.08499  1.0000
  C   C25       1.0  0.65292  0.19527  0.12088  1.0000
  C   C26       1.0  0.22613  0.30492  0.12078  1.0000
  C   C27       1.0  0.34708  0.80473  0.87912  1.0000
  C   C28       1.0  0.77387  0.69508  0.87922  1.0000
  C   C29       1.0  0.75158  0.30009  0.10933  1.0000
  C   C30       1.0  0.13918  0.20002  0.10918  1.0000
  C   C31       1.0  0.24842  0.69991  0.89067  1.0000
  C   C32       1.0  0.86082  0.79998  0.89082  1.0000
  C   C33       1.0  0.20055  0.24963  0.42177  1.0000
  C   C34       1.0  0.37737  0.25019  0.42192  1.0000
  C   C35       1.0  0.79945  0.75037  0.57823  1.0000
  C   C36       1.0  0.62263  0.74981  0.57808  1.0000
  N   N1        1.0  0.83411  0.34961  0.00790  1.0000
  N   N2        1.0  0.15805  0.15050  0.00774  1.0000
  N   N3        1.0  0.16589  0.65039  0.99210  1.0000
  N   N4        1.0  0.84195  0.84950  0.99226  1.0000
  N   N5        1.0  0.23070  0.98821  0.69444  1.0000
  N   N6        1.0  0.07497  0.51168  0.69444  1.0000
  N   N7        1.0  0.76930  0.01179  0.30556  1.0000
  N   N8        1.0  0.92503  0.48832  0.30556  1.0000
  O   O1        1.0  0.80720  0.17840  0.72292  1.0000
  O   O2        1.0  0.46982  0.32164  0.72295  1.0000
  O   O3        1.0  0.19280  0.82160  0.27708  1.0000
  O   O4        1.0  0.53018  0.67836  0.27705  1.0000
  O   O5        1.0  0.65167  0.02164  0.82368  1.0000
  O   O6        1.0  0.52434  0.47863  0.82360  1.0000
  O   O7        1.0  0.34834  0.97836  0.17631  1.0000
  O   O8        1.0  0.47566  0.52136  0.17640  1.0000
  O   O9        1.0  0.09756  0.17835  0.51468  1.0000
  O   O10       1.0  0.38736  0.32143  0.51491  1.0000
  O   O11       1.0  0.90244  0.82165  0.48532  1.0000
  O   O12       1.0  0.61264  0.67857  0.48509  1.0000
  O   O13       1.0  0.09866  0.04980  0.75252  1.0000
  O   O14       1.0  0.14843  0.44994  0.75276  1.0000
  O   O15       1.0  0.90134  0.95020  0.24748  1.0000
  O   O16       1.0  0.85157  0.55006  0.24724  1.0000
  O   O17       1.0  0.21837  0.87419  0.68946  1.0000
  O   O18       1.0  0.09268  0.62568  0.68938  1.0000
  O   O19       1.0  0.78163  0.12581  0.31054  1.0000
  O   O20       1.0  0.90732  0.37432  0.31062  1.0000
  O   O21       1.0  0.36442  0.04563  0.64655  1.0000
  O   O22       1.0  0.98916  0.45444  0.64640  1.0000
  O   O23       1.0  0.63558  0.95437  0.35345  1.0000
  O   O24       1.0  0.01084  0.54556  0.35360  1.0000
