data_image0
_chemical_formula_structural       Dy2H62C54N4O12
_chemical_formula_sum              "Dy2 H62 C54 N4 O12"
_cell_length_a       7.9516
_cell_length_b       8.46018
_cell_length_c       19.5976
_cell_angle_alpha    90
_cell_angle_beta     98.2556
_cell_angle_gamma    90

_space_group_name_H-M_alt    "P 1"
_space_group_IT_number       1

loop_
  _space_group_symop_operation_xyz
  'x, y, z'

loop_
  _atom_site_type_symbol
  _atom_site_label
  _atom_site_symmetry_multiplicity
  _atom_site_fract_x
  _atom_site_fract_y
  _atom_site_fract_z
  _atom_site_occupancy
  Dy  Dy1       1.0  0.50000  0.66364  0.75000  1.0000
  Dy  Dy2       1.0  0.50000  0.33636  0.25000  1.0000
  H   H1        1.0  0.47972  0.87988  0.59478  1.0000
  H   H2        1.0  0.52027  0.87988  0.90523  1.0000
  H   H3        1.0  0.52025  0.12012  0.40523  1.0000
  H   H4        1.0  0.47972  0.12012  0.09477  1.0000
  H   H5        1.0  0.09116  0.76245  0.63759  1.0000
  H   H6        1.0  0.90883  0.76246  0.86241  1.0000
  H   H7        1.0  0.90882  0.23756  0.36242  1.0000
  H   H8        1.0  0.09116  0.23756  0.13759  1.0000
  H   H9        1.0  0.50000  0.23249  0.75000  1.0000
  H   H10       1.0  0.50001  0.76752  0.25000  1.0000
  H   H11       1.0  0.52605  0.33644  0.55087  1.0000
  H   H12       1.0  0.47396  0.33645  0.94913  1.0000
  H   H13       1.0  0.47397  0.66357  0.44913  1.0000
  H   H14       1.0  0.52605  0.66355  0.05087  1.0000
  H   H15       1.0  0.91779  0.33994  0.67194  1.0000
  H   H16       1.0  0.08223  0.33994  0.82807  1.0000
  H   H17       1.0  0.08222  0.66006  0.32807  1.0000
  H   H18       1.0  0.91779  0.66005  0.17193  1.0000
  H   H19       1.0  0.81730  0.27366  0.58898  1.0000
  H   H20       1.0  0.18273  0.27367  0.91103  1.0000
  H   H21       1.0  0.18273  0.72633  0.41103  1.0000
  H   H22       1.0  0.81728  0.72632  0.08897  1.0000
  H   H23       1.0  0.78286  0.17179  0.66514  1.0000
  H   H24       1.0  0.21715  0.17179  0.83487  1.0000
  H   H25       1.0  0.21716  0.82820  0.33487  1.0000
  H   H26       1.0  0.78286  0.82820  0.16513  1.0000
  H   H27       1.0  0.88663  0.66299  0.71245  1.0000
  H   H28       1.0  0.11337  0.66301  0.78756  1.0000
  H   H29       1.0  0.11336  0.33699  0.28756  1.0000
  H   H30       1.0  0.88663  0.33700  0.21244  1.0000
  H   H31       1.0  0.90541  0.08219  0.81799  1.0000
  H   H32       1.0  0.09459  0.08218  0.68200  1.0000
  H   H33       1.0  0.09460  0.91782  0.18200  1.0000
  H   H34       1.0  0.90542  0.91782  0.31800  1.0000
  H   H35       1.0  0.77219  0.13501  0.87925  1.0000
  H   H36       1.0  0.22779  0.13501  0.62075  1.0000
  H   H37       1.0  0.22783  0.86501  0.12075  1.0000
  H   H38       1.0  0.77218  0.86501  0.37925  1.0000
  H   H39       1.0  0.77151  0.25452  0.80442  1.0000
  H   H40       1.0  0.22847  0.25453  0.69557  1.0000
  H   H41       1.0  0.22849  0.74547  0.19557  1.0000
  H   H42       1.0  0.77151  0.74548  0.30443  1.0000
  H   H43       1.0  0.14442  0.89655  0.53743  1.0000
  H   H44       1.0  0.85557  0.89655  0.96257  1.0000
  H   H45       1.0  0.85555  0.10346  0.46258  1.0000
  H   H46       1.0  0.14443  0.10346  0.03742  1.0000
  H   H47       1.0  0.14211  0.57764  0.53521  1.0000
  H   H48       1.0  0.85790  0.57767  0.96480  1.0000
  H   H49       1.0  0.85790  0.42234  0.46479  1.0000
  H   H50       1.0  0.14211  0.42236  0.03520  1.0000
  H   H51       1.0  0.14161  0.37096  0.54909  1.0000
  H   H52       1.0  0.85839  0.37099  0.95090  1.0000
  H   H53       1.0  0.85840  0.62902  0.45090  1.0000
  H   H54       1.0  0.14161  0.62904  0.04909  1.0000
  H   H55       1.0  0.27130  0.45015  0.49072  1.0000
  H   H56       1.0  0.72873  0.45017  0.00929  1.0000
  H   H57       1.0  0.72872  0.54983  0.50928  1.0000
  H   H58       1.0  0.27128  0.54984  0.99072  1.0000
  H   H59       1.0  0.66278  0.98490  0.51179  1.0000
  H   H60       1.0  0.33720  0.98491  0.98821  1.0000
  H   H61       1.0  0.33719  0.01509  0.48822  1.0000
  H   H62       1.0  0.66279  0.01510  0.01178  1.0000
  C   C1        1.0  0.64153  0.02903  0.78760  1.0000
  C   C2        1.0  0.35847  0.02904  0.71240  1.0000
  C   C3        1.0  0.35847  0.97097  0.21240  1.0000
  C   C4        1.0  0.64154  0.97097  0.28760  1.0000
  C   C5        1.0  0.61622  0.85701  0.60182  1.0000
  C   C6        1.0  0.38377  0.85703  0.89818  1.0000
  C   C7        1.0  0.38375  0.14297  0.39818  1.0000
  C   C8        1.0  0.61623  0.14297  0.10182  1.0000
  C   C9        1.0  0.65123  0.39209  0.65220  1.0000
  C   C10       1.0  0.34878  0.39209  0.84781  1.0000
  C   C11       1.0  0.34878  0.60789  0.34780  1.0000
  C   C12       1.0  0.65123  0.60789  0.15220  1.0000
  C   C13       1.0  0.36396  0.48858  0.59954  1.0000
  C   C14       1.0  0.63604  0.48861  0.90046  1.0000
  C   C15       1.0  0.63604  0.51140  0.40046  1.0000
  C   C16       1.0  0.36396  0.51141  0.09954  1.0000
  C   C17       1.0  0.95627  0.79097  0.62545  1.0000
  C   C18       1.0  0.04373  0.79098  0.87455  1.0000
  C   C19       1.0  0.04371  0.20902  0.37455  1.0000
  C   C20       1.0  0.95627  0.20903  0.12545  1.0000
  C   C21       1.0  0.50000  0.10411  0.75000  1.0000
  C   C22       1.0  0.50001  0.89589  0.25000  1.0000
  C   C23       1.0  0.51587  0.40344  0.59759  1.0000
  C   C24       1.0  0.48415  0.40346  0.90242  1.0000
  C   C25       1.0  0.48415  0.59655  0.40241  1.0000
  C   C26       1.0  0.51586  0.59654  0.09758  1.0000
  C   C27       1.0  0.80159  0.28934  0.64328  1.0000
  C   C28       1.0  0.19844  0.28934  0.85673  1.0000
  C   C29       1.0  0.19843  0.71066  0.35672  1.0000
  C   C30       1.0  0.80158  0.71065  0.14328  1.0000
  C   C31       1.0  0.84308  0.73726  0.66797  1.0000
  C   C32       1.0  0.15692  0.73727  0.83204  1.0000
  C   C33       1.0  0.15691  0.26273  0.33204  1.0000
  C   C34       1.0  0.84308  0.26275  0.16796  1.0000
  C   C35       1.0  0.78109  0.13267  0.82369  1.0000
  C   C36       1.0  0.21890  0.13267  0.67631  1.0000
  C   C37       1.0  0.21892  0.86733  0.17631  1.0000
  C   C38       1.0  0.78108  0.86734  0.32369  1.0000
  C   C39       1.0  0.01617  0.94525  0.52519  1.0000
  C   C40       1.0  0.98382  0.94525  0.97481  1.0000
  C   C41       1.0  0.98381  0.05475  0.47482  1.0000
  C   C42       1.0  0.01618  0.05476  0.02519  1.0000
  C   C43       1.0  0.89518  0.88488  0.56799  1.0000
  C   C44       1.0  0.10482  0.88489  0.93202  1.0000
  C   C45       1.0  0.10481  0.11512  0.43202  1.0000
  C   C46       1.0  0.89518  0.11513  0.06798  1.0000
  C   C47       1.0  0.22264  0.47185  0.53952  1.0000
  C   C48       1.0  0.77737  0.47188  0.96048  1.0000
  C   C49       1.0  0.77736  0.52813  0.46047  1.0000
  C   C50       1.0  0.22264  0.52814  0.03952  1.0000
  C   C51       1.0  0.71936  0.91581  0.55618  1.0000
  C   C52       1.0  0.28063  0.91582  0.94382  1.0000
  C   C53       1.0  0.28062  0.08418  0.44383  1.0000
  C   C54       1.0  0.71936  0.08420  0.05618  1.0000
  N   N1        1.0  0.67577  0.76937  0.65732  1.0000
  N   N2        1.0  0.32422  0.76938  0.84268  1.0000
  N   N3        1.0  0.32421  0.23062  0.34268  1.0000
  N   N4        1.0  0.67577  0.23062  0.15732  1.0000
  O   O1        1.0  0.65621  0.46042  0.71082  1.0000
  O   O2        1.0  0.34381  0.46042  0.78919  1.0000
  O   O3        1.0  0.34379  0.53956  0.28919  1.0000
  O   O4        1.0  0.65621  0.53958  0.21081  1.0000
  O   O5        1.0  0.66061  0.87916  0.79499  1.0000
  O   O6        1.0  0.33940  0.87917  0.70500  1.0000
  O   O7        1.0  0.33940  0.12084  0.20500  1.0000
  O   O8        1.0  0.66060  0.12084  0.29500  1.0000
  O   O9        1.0  0.33456  0.57745  0.64919  1.0000
  O   O10       1.0  0.66544  0.57748  0.85082  1.0000
  O   O11       1.0  0.66544  0.42253  0.35081  1.0000
  O   O12       1.0  0.33456  0.42254  0.14918  1.0000
