data_image0
_chemical_formula_structural       Mn6H60C48N24
_chemical_formula_sum              "Mn6 H60 C48 N24"
_cell_length_a       15.0809
_cell_length_b       15.1756
_cell_length_c       15.0807
_cell_angle_alpha    109.598
_cell_angle_beta     109.358
_cell_angle_gamma    109.599

_space_group_name_H-M_alt    "P 1"
_space_group_IT_number       1

loop_
  _space_group_symop_operation_xyz
  'x, y, z'

loop_
  _atom_site_type_symbol
  _atom_site_label
  _atom_site_symmetry_multiplicity
  _atom_site_fract_x
  _atom_site_fract_y
  _atom_site_fract_z
  _atom_site_occupancy
  Mn  Mn1       1.0  0.50071  0.75040  0.25015  1.0000
  Mn  Mn2       1.0  0.25041  0.75067  0.50073  1.0000
  Mn  Mn3       1.0  0.74959  0.50039  0.25062  1.0000
  Mn  Mn4       1.0  0.25024  0.50027  0.74981  1.0000
  Mn  Mn5       1.0  0.49941  0.25001  0.74952  1.0000
  Mn  Mn6       1.0  0.74972  0.25017  0.49947  1.0000
  H   H1        1.0  0.76245  0.87372  0.34932  1.0000
  H   H2        1.0  0.41262  0.65165  0.52528  1.0000
  H   H3        1.0  0.88687  0.47448  0.12506  1.0000
  H   H4        1.0  0.41279  0.52457  0.65053  1.0000
  H   H5        1.0  0.76208  0.34915  0.87474  1.0000
  H   H6        1.0  0.88717  0.12588  0.47489  1.0000
  H   H7        1.0  0.52535  0.41249  0.65018  1.0000
  H   H8        1.0  0.12467  0.88668  0.47470  1.0000
  H   H9        1.0  0.34966  0.76184  0.87524  1.0000
  H   H10       1.0  0.87510  0.76171  0.34981  1.0000
  H   H11       1.0  0.47492  0.88664  0.12479  1.0000
  H   H12       1.0  0.65024  0.41209  0.52542  1.0000
  H   H13       1.0  0.47500  0.12571  0.88716  1.0000
  H   H14       1.0  0.87488  0.34927  0.76186  1.0000
  H   H15       1.0  0.65082  0.52469  0.41339  1.0000
  H   H16       1.0  0.12514  0.47423  0.88729  1.0000
  H   H17       1.0  0.52537  0.65154  0.41226  1.0000
  H   H18       1.0  0.34975  0.87396  0.76267  1.0000
  H   H19       1.0  0.23830  0.58725  0.11309  1.0000
  H   H20       1.0  0.58708  0.11131  0.23745  1.0000
  H   H21       1.0  0.11302  0.23896  0.58778  1.0000
  H   H22       1.0  0.58747  0.23878  0.11304  1.0000
  H   H23       1.0  0.23728  0.11136  0.58686  1.0000
  H   H24       1.0  0.11268  0.58706  0.23791  1.0000
  H   H25       1.0  0.52470  0.45368  0.20922  1.0000
  H   H26       1.0  0.31642  0.79038  0.24374  1.0000
  H   H27       1.0  0.07268  0.75604  0.54733  1.0000
  H   H28       1.0  0.31617  0.24466  0.79075  1.0000
  H   H29       1.0  0.52535  0.20916  0.45273  1.0000
  H   H30       1.0  0.07250  0.54626  0.75623  1.0000
  H   H31       1.0  0.24378  0.31667  0.79092  1.0000
  H   H32       1.0  0.54711  0.07302  0.75624  1.0000
  H   H33       1.0  0.20924  0.52615  0.45281  1.0000
  H   H34       1.0  0.45264  0.52604  0.20930  1.0000
  H   H35       1.0  0.75641  0.07297  0.54727  1.0000
  H   H36       1.0  0.79076  0.31665  0.24355  1.0000
  H   H37       1.0  0.75605  0.54619  0.07263  1.0000
  H   H38       1.0  0.45272  0.20913  0.52507  1.0000
  H   H39       1.0  0.79071  0.24463  0.31590  1.0000
  H   H40       1.0  0.54722  0.75597  0.07234  1.0000
  H   H41       1.0  0.24383  0.79039  0.31613  1.0000
  H   H42       1.0  0.20912  0.45380  0.52486  1.0000
  H   H43       1.0  0.47469  0.68348  0.92731  1.0000
  H   H44       1.0  0.68411  0.92870  0.47491  1.0000
  H   H45       1.0  0.92752  0.47383  0.68372  1.0000
  H   H46       1.0  0.68357  0.47380  0.92766  1.0000
  H   H47       1.0  0.47469  0.92874  0.68392  1.0000
  H   H48       1.0  0.92769  0.68356  0.47503  1.0000
  H   H49       1.0  0.47555  0.47637  0.09977  1.0000
  H   H50       1.0  0.37641  0.89973  0.37628  1.0000
  H   H51       1.0  0.00021  0.62427  0.52448  1.0000
  H   H52       1.0  0.37648  0.37673  0.90028  1.0000
  H   H53       1.0  0.47565  0.10024  0.47559  1.0000
  H   H54       1.0  0.00013  0.52317  0.62378  1.0000
  H   H55       1.0  0.52409  0.00054  0.62367  1.0000
  H   H56       1.0  0.09970  0.47661  0.47571  1.0000
  H   H57       1.0  0.62382  0.00050  0.52416  1.0000
  H   H58       1.0  0.90028  0.37670  0.37612  1.0000
  H   H59       1.0  0.62349  0.52298  0.00015  1.0000
  H   H60       1.0  0.52429  0.62421  0.99979  1.0000
  C   C1        1.0  0.61676  0.61685  0.24628  1.0000
  C   C2        1.0  0.37092  0.75421  0.37079  1.0000
  C   C3        1.0  0.99999  0.62920  0.38328  1.0000
  C   C4        1.0  0.37061  0.37078  0.75363  1.0000
  C   C5        1.0  0.61674  0.24625  0.61666  1.0000
  C   C6        1.0  0.99998  0.38301  0.62916  1.0000
  C   C7        1.0  0.38302  0.00016  0.62920  1.0000
  C   C8        1.0  0.24626  0.61699  0.61694  1.0000
  C   C9        1.0  0.62946  0.00009  0.38314  1.0000
  C   C10       1.0  0.75367  0.37072  0.37057  1.0000
  C   C11       1.0  0.62899  0.38289  0.00008  1.0000
  C   C12       1.0  0.38326  0.62916  0.99994  1.0000
  C   C13       1.0  0.73347  0.78824  0.32040  1.0000
  C   C14       1.0  0.41308  0.68072  0.46870  1.0000
  C   C15       1.0  0.94400  0.53114  0.21103  1.0000
  C   C16       1.0  0.41291  0.46807  0.67951  1.0000
  C   C17       1.0  0.73316  0.32013  0.78882  1.0000
  C   C18       1.0  0.94421  0.21156  0.53148  1.0000
  C   C19       1.0  0.46858  0.41258  0.67937  1.0000
  C   C20       1.0  0.21063  0.94372  0.53136  1.0000
  C   C21       1.0  0.32055  0.73291  0.78930  1.0000
  C   C22       1.0  0.78914  0.73279  0.32060  1.0000
  C   C23       1.0  0.53158  0.94366  0.21077  1.0000
  C   C24       1.0  0.67943  0.41235  0.46867  1.0000
  C   C25       1.0  0.53144  0.21141  0.94422  1.0000
  C   C26       1.0  0.78896  0.32022  0.73300  1.0000
  C   C27       1.0  0.67973  0.46813  0.41332  1.0000
  C   C28       1.0  0.21111  0.53099  0.94430  1.0000
  C   C29       1.0  0.46882  0.68066  0.41280  1.0000
  C   C30       1.0  0.32061  0.78843  0.73366  1.0000
  C   C31       1.0  0.26706  0.58695  0.05596  1.0000
  C   C32       1.0  0.58705  0.05485  0.26649  1.0000
  C   C33       1.0  0.05589  0.26747  0.58725  1.0000
  C   C34       1.0  0.58700  0.26734  0.05594  1.0000
  C   C35       1.0  0.26634  0.05490  0.58681  1.0000
  C   C36       1.0  0.05570  0.58688  0.26685  1.0000
  C   C37       1.0  0.51224  0.51309  0.18866  1.0000
  C   C38       1.0  0.32426  0.81121  0.32411  1.0000
  C   C39       1.0  0.00014  0.67588  0.48766  1.0000
  C   C40       1.0  0.32409  0.32457  0.81140  1.0000
  C   C41       1.0  0.51243  0.18867  0.51235  1.0000
  C   C42       1.0  0.99999  0.48669  0.67580  1.0000
  C   C43       1.0  0.48740  0.00066  0.67587  1.0000
  C   C44       1.0  0.18858  0.51323  0.51241  1.0000
  C   C45       1.0  0.67605  0.00059  0.48753  1.0000
  C   C46       1.0  0.81137  0.32457  0.32389  1.0000
  C   C47       1.0  0.67562  0.48661  0.00012  1.0000
  C   C48       1.0  0.48747  0.67582  0.99981  1.0000
  N   N1        1.0  0.62438  0.71475  0.27342  1.0000
  N   N2        1.0  0.35104  0.72718  0.44189  1.0000
  N   N3        1.0  0.90892  0.55818  0.28484  1.0000
  N   N4        1.0  0.35085  0.44139  0.72641  1.0000
  N   N5        1.0  0.62418  0.27347  0.71507  1.0000
  N   N6        1.0  0.90897  0.28483  0.55821  1.0000
  N   N7        1.0  0.44160  0.35092  0.72619  1.0000
  N   N8        1.0  0.28460  0.90924  0.55845  1.0000
  N   N9        1.0  0.27363  0.62444  0.71531  1.0000
  N   N10       1.0  0.71514  0.62430  0.27383  1.0000
  N   N11       1.0  0.55870  0.90915  0.28469  1.0000
  N   N12       1.0  0.72614  0.35060  0.44142  1.0000
  N   N13       1.0  0.55821  0.28470  0.90905  1.0000
  N   N14       1.0  0.71513  0.27357  0.62404  1.0000
  N   N15       1.0  0.72661  0.44156  0.35115  1.0000
  N   N16       1.0  0.28477  0.55792  0.90898  1.0000
  N   N17       1.0  0.44190  0.72707  0.35075  1.0000
  N   N18       1.0  0.27367  0.71496  0.62462  1.0000
  N   N19       1.0  0.37599  0.64921  0.09101  1.0000
  N   N20       1.0  0.64911  0.09041  0.37556  1.0000
  N   N21       1.0  0.09100  0.37595  0.64915  1.0000
  N   N22       1.0  0.64882  0.37580  0.09109  1.0000
  N   N23       1.0  0.37541  0.09046  0.64881  1.0000
  N   N24       1.0  0.09095  0.64904  0.37580  1.0000
