data_image0
_chemical_formula_structural       Zn4P4H40C36N4O20
_chemical_formula_sum              "Zn4 P4 H40 C36 N4 O20"
_cell_length_a       8.5617
_cell_length_b       9.86823
_cell_length_c       12.485
_cell_angle_alpha    90
_cell_angle_beta     90
_cell_angle_gamma    90

_space_group_name_H-M_alt    "P 1"
_space_group_IT_number       1

loop_
  _space_group_symop_operation_xyz
  'x, y, z'

loop_
  _atom_site_type_symbol
  _atom_site_label
  _atom_site_symmetry_multiplicity
  _atom_site_fract_x
  _atom_site_fract_y
  _atom_site_fract_z
  _atom_site_occupancy
  Zn  Zn1       1.0  0.22167  0.92350  0.87891  1.0000
  Zn  Zn2       1.0  0.72167  0.07650  0.12109  1.0000
  Zn  Zn3       1.0  0.22167  0.42350  0.12109  1.0000
  Zn  Zn4       1.0  0.72167  0.57650  0.87891  1.0000
  P   P1        1.0  0.07535  0.14567  0.02476  1.0000
  P   P2        1.0  0.57535  0.85433  0.97524  1.0000
  P   P3        1.0  0.07535  0.64567  0.97524  1.0000
  P   P4        1.0  0.57535  0.35433  0.02476  1.0000
  H   H1        1.0  0.12413  0.87936  0.08672  1.0000
  H   H2        1.0  0.62413  0.12064  0.91328  1.0000
  H   H3        1.0  0.12413  0.37936  0.91328  1.0000
  H   H4        1.0  0.62413  0.62064  0.08672  1.0000
  H   H5        1.0  0.05209  0.93595  0.20422  1.0000
  H   H6        1.0  0.55209  0.06405  0.79578  1.0000
  H   H7        1.0  0.05209  0.43595  0.79578  1.0000
  H   H8        1.0  0.55209  0.56405  0.20422  1.0000
  H   H9        1.0  0.32049  0.07602  0.10531  1.0000
  H   H10       1.0  0.82049  0.92398  0.89469  1.0000
  H   H11       1.0  0.32049  0.57602  0.89469  1.0000
  H   H12       1.0  0.82049  0.42398  0.10531  1.0000
  H   H13       1.0  0.18633  0.13560  0.20491  1.0000
  H   H14       1.0  0.68633  0.86440  0.79509  1.0000
  H   H15       1.0  0.18633  0.63560  0.79509  1.0000
  H   H16       1.0  0.68633  0.36440  0.20491  1.0000
  H   H17       1.0  0.38922  0.87518  0.17476  1.0000
  H   H18       1.0  0.88922  0.12482  0.82524  1.0000
  H   H19       1.0  0.38922  0.37518  0.82524  1.0000
  H   H20       1.0  0.88922  0.62482  0.17476  1.0000
  H   H21       1.0  0.25127  0.74334  0.19611  1.0000
  H   H22       1.0  0.75127  0.25666  0.80389  1.0000
  H   H23       1.0  0.25127  0.24334  0.80389  1.0000
  H   H24       1.0  0.75127  0.75666  0.19611  1.0000
  H   H25       1.0  0.44437  0.04334  0.32354  1.0000
  H   H26       1.0  0.94437  0.95666  0.67646  1.0000
  H   H27       1.0  0.44436  0.54334  0.67646  1.0000
  H   H28       1.0  0.94437  0.45666  0.32354  1.0000
  H   H29       1.0  0.45416  0.07511  0.52133  1.0000
  H   H30       1.0  0.95416  0.92489  0.47867  1.0000
  H   H31       1.0  0.45416  0.57511  0.47867  1.0000
  H   H32       1.0  0.95416  0.42489  0.52133  1.0000
  H   H33       1.0  0.14400  0.73789  0.56498  1.0000
  H   H34       1.0  0.64401  0.26211  0.43502  1.0000
  H   H35       1.0  0.14400  0.23789  0.43502  1.0000
  H   H36       1.0  0.64400  0.76211  0.56498  1.0000
  H   H37       1.0  0.13048  0.70577  0.36784  1.0000
  H   H38       1.0  0.63048  0.29423  0.63216  1.0000
  H   H39       1.0  0.13048  0.20576  0.63216  1.0000
  H   H40       1.0  0.63048  0.79424  0.36784  1.0000
  C   C1        1.0  0.19836  0.07434  0.13201  1.0000
  C   C2        1.0  0.69836  0.92566  0.86799  1.0000
  C   C3        1.0  0.19836  0.57434  0.86799  1.0000
  C   C4        1.0  0.69836  0.42566  0.13201  1.0000
  C   C5        1.0  0.27834  0.84956  0.21373  1.0000
  C   C6        1.0  0.77834  0.15044  0.78627  1.0000
  C   C7        1.0  0.27834  0.34956  0.78627  1.0000
  C   C8        1.0  0.77834  0.65044  0.21373  1.0000
  C   C9        1.0  0.28462  0.87327  0.33229  1.0000
  C   C10       1.0  0.78462  0.12672  0.66771  1.0000
  C   C11       1.0  0.28461  0.37327  0.66771  1.0000
  C   C12       1.0  0.78462  0.62673  0.33229  1.0000
  C   C13       1.0  0.37651  0.97708  0.37589  1.0000
  C   C14       1.0  0.87651  0.02292  0.62411  1.0000
  C   C15       1.0  0.37651  0.47708  0.62411  1.0000
  C   C16       1.0  0.87651  0.52292  0.37589  1.0000
  C   C17       1.0  0.38378  0.99481  0.48638  1.0000
  C   C18       1.0  0.88378  0.00519  0.51361  1.0000
  C   C19       1.0  0.38378  0.49481  0.51362  1.0000
  C   C20       1.0  0.88378  0.50519  0.48638  1.0000
  C   C21       1.0  0.29999  0.90928  0.55483  1.0000
  C   C22       1.0  0.79999  0.09072  0.44517  1.0000
  C   C23       1.0  0.29999  0.40928  0.44517  1.0000
  C   C24       1.0  0.79999  0.59072  0.55483  1.0000
  C   C25       1.0  0.20879  0.80468  0.51161  1.0000
  C   C26       1.0  0.70880  0.19532  0.48839  1.0000
  C   C27       1.0  0.20879  0.30468  0.48839  1.0000
  C   C28       1.0  0.70879  0.69532  0.51161  1.0000
  C   C29       1.0  0.20139  0.78728  0.40119  1.0000
  C   C30       1.0  0.70139  0.21272  0.59882  1.0000
  C   C31       1.0  0.20138  0.28728  0.59881  1.0000
  C   C32       1.0  0.70139  0.71272  0.40119  1.0000
  C   C33       1.0  0.30595  0.93399  0.67254  1.0000
  C   C34       1.0  0.80595  0.06601  0.32746  1.0000
  C   C35       1.0  0.30595  0.43399  0.32747  1.0000
  C   C36       1.0  0.80595  0.56601  0.67254  1.0000
  N   N1        1.0  0.15357  0.93142  0.15750  1.0000
  N   N2        1.0  0.65357  0.06858  0.84250  1.0000
  N   N3        1.0  0.15357  0.43142  0.84250  1.0000
  N   N4        1.0  0.65357  0.56858  0.15750  1.0000
  O   O1        1.0  0.14308  0.10352  0.91550  1.0000
  O   O2        1.0  0.64308  0.89648  0.08450  1.0000
  O   O3        1.0  0.14308  0.60352  0.08450  1.0000
  O   O4        1.0  0.64308  0.39648  0.91550  1.0000
  O   O5        1.0  0.91237  0.08696  0.03868  1.0000
  O   O6        1.0  0.41237  0.91304  0.96132  1.0000
  O   O7        1.0  0.91237  0.58696  0.96132  1.0000
  O   O8        1.0  0.41237  0.41304  0.03868  1.0000
  O   O9        1.0  0.08178  0.30110  0.03628  1.0000
  O   O10       1.0  0.58178  0.69891  0.96372  1.0000
  O   O11       1.0  0.08178  0.80109  0.96372  1.0000
  O   O12       1.0  0.58178  0.19890  0.03628  1.0000
  O   O13       1.0  0.39690  0.02162  0.71094  1.0000
  O   O14       1.0  0.89691  0.97838  0.28906  1.0000
  O   O15       1.0  0.39691  0.52162  0.28906  1.0000
  O   O16       1.0  0.89691  0.47838  0.71094  1.0000
  O   O17       1.0  0.20946  0.86331  0.73056  1.0000
  O   O18       1.0  0.70947  0.13669  0.26944  1.0000
  O   O19       1.0  0.20947  0.36331  0.26944  1.0000
  O   O20       1.0  0.70946  0.63669  0.73056  1.0000
