data_image0
_chemical_formula_structural       Co2H8C16O8
_chemical_formula_sum              "Co2 H8 C16 O8"
_cell_length_a       4.61222
_cell_length_b       5.8126
_cell_length_c       13.6934
_cell_angle_alpha    88.3131
_cell_angle_beta     90.6225
_cell_angle_gamma    109.043

_space_group_name_H-M_alt    "P 1"
_space_group_IT_number       1

loop_
  _space_group_symop_operation_xyz
  'x, y, z'

loop_
  _atom_site_type_symbol
  _atom_site_label
  _atom_site_symmetry_multiplicity
  _atom_site_fract_x
  _atom_site_fract_y
  _atom_site_fract_z
  _atom_site_occupancy
  Co  Co1       1.0  0.77034  0.74646  0.44651  1.0000
  Co  Co2       1.0  0.22976  0.25347  0.55349  1.0000
  H   H1        1.0  0.00217  0.56561  0.18073  1.0000
  H   H2        1.0  0.50136  0.92921  0.18698  1.0000
  H   H3        1.0  0.99786  0.43446  0.81939  1.0000
  H   H4        1.0  0.49858  0.07082  0.81291  1.0000
  H   H5        1.0  0.13546  0.41485  0.02338  1.0000
  H   H6        1.0  0.37652  0.09286  0.02658  1.0000
  H   H7        1.0  0.86425  0.58531  0.97667  1.0000
  H   H8        1.0  0.62314  0.90726  0.97336  1.0000
  C   C1        1.0  0.10501  0.45150  0.35927  1.0000
  C   C2        1.0  0.38668  0.02723  0.36340  1.0000
  C   C3        1.0  0.89512  0.54845  0.64077  1.0000
  C   C4        1.0  0.61341  0.97267  0.63655  1.0000
  C   C5        1.0  0.17912  0.33527  0.27108  1.0000
  C   C6        1.0  0.31981  0.15243  0.27297  1.0000
  C   C7        1.0  0.82100  0.66471  0.72895  1.0000
  C   C8        1.0  0.68027  0.84755  0.72701  1.0000
  C   C9        1.0  0.11266  0.42624  0.18058  1.0000
  C   C10       1.0  0.39123  0.06888  0.18421  1.0000
  C   C11       1.0  0.88735  0.57385  0.81948  1.0000
  C   C12       1.0  0.60874  0.93116  0.81574  1.0000
  C   C13       1.0  0.18516  0.34129  0.09322  1.0000
  C   C14       1.0  0.32311  0.16083  0.09506  1.0000
  C   C15       1.0  0.81471  0.65880  0.90681  1.0000
  C   C16       1.0  0.67670  0.83928  0.90492  1.0000
  O   O1        1.0  0.88487  0.53614  0.35028  1.0000
  O   O2        1.0  0.60908  0.94532  0.35742  1.0000
  O   O3        1.0  0.11520  0.46369  0.64979  1.0000
  O   O4        1.0  0.39097  0.05453  0.64251  1.0000
  O   O5        1.0  0.27135  0.47648  0.43722  1.0000
  O   O6        1.0  0.21468  0.99380  0.43943  1.0000
  O   O7        1.0  0.72891  0.52350  0.56281  1.0000
  O   O8        1.0  0.78541  0.00610  0.56053  1.0000
