data_image0
_chemical_formula_structural       Co4H12C32Cl4O16
_chemical_formula_sum              "Co4 H12 C32 Cl4 O16"
_cell_length_a       4.82494
_cell_length_b       12.8861
_cell_length_c       13.818
_cell_angle_alpha    102.589
_cell_angle_beta     89.9994
_cell_angle_gamma    90.0004

_space_group_name_H-M_alt    "P 1"
_space_group_IT_number       1

loop_
  _space_group_symop_operation_xyz
  'x, y, z'

loop_
  _atom_site_type_symbol
  _atom_site_label
  _atom_site_symmetry_multiplicity
  _atom_site_fract_x
  _atom_site_fract_y
  _atom_site_fract_z
  _atom_site_occupancy
  Co  Co1       1.0  0.21835  0.39325  0.43849  1.0000
  Co  Co2       1.0  0.71836  0.10676  0.56151  1.0000
  Co  Co3       1.0  0.78164  0.60676  0.56151  1.0000
  Co  Co4       1.0  0.28165  0.89324  0.43849  1.0000
  H   H1        1.0  0.42192  0.22630  0.02695  1.0000
  H   H2        1.0  0.92190  0.27369  0.97304  1.0000
  H   H3        1.0  0.57808  0.77369  0.97305  1.0000
  H   H4        1.0  0.07809  0.72631  0.02696  1.0000
  H   H5        1.0  0.17949  0.05934  0.03998  1.0000
  H   H6        1.0  0.67945  0.44065  0.96002  1.0000
  H   H7        1.0  0.82052  0.94065  0.96002  1.0000
  H   H8        1.0  0.32053  0.55935  0.03998  1.0000
  H   H9        1.0  0.20217  0.99638  0.19898  1.0000
  H   H10       1.0  0.70215  0.50361  0.80102  1.0000
  H   H11       1.0  0.79784  0.00361  0.80101  1.0000
  H   H12       1.0  0.29784  0.49639  0.19899  1.0000
  C   C1        1.0  0.74131  0.29065  0.35199  1.0000
  C   C2        1.0  0.24132  0.20935  0.64801  1.0000
  C   C3        1.0  0.25868  0.70935  0.64801  1.0000
  C   C4        1.0  0.75869  0.79065  0.35199  1.0000
  C   C5        1.0  0.58833  0.22168  0.26691  1.0000
  C   C6        1.0  0.08833  0.27832  0.73309  1.0000
  C   C7        1.0  0.41166  0.77832  0.73309  1.0000
  C   C8        1.0  0.91168  0.72169  0.26691  1.0000
  C   C9        1.0  0.57415  0.25524  0.17716  1.0000
  C   C10       1.0  0.07414  0.24476  0.82284  1.0000
  C   C11       1.0  0.42586  0.74476  0.82284  1.0000
  C   C12       1.0  0.92587  0.75525  0.17716  1.0000
  C   C13       1.0  0.42839  0.19796  0.09564  1.0000
  C   C14       1.0  0.92838  0.30204  0.90435  1.0000
  C   C15       1.0  0.57161  0.80204  0.90435  1.0000
  C   C16       1.0  0.07162  0.69796  0.09565  1.0000
  C   C17       1.0  0.29341  0.10448  0.10349  1.0000
  C   C18       1.0  0.79339  0.39552  0.89651  1.0000
  C   C19       1.0  0.70660  0.89552  0.89651  1.0000
  C   C20       1.0  0.20661  0.60448  0.10350  1.0000
  C   C21       1.0  0.30670  0.06895  0.19147  1.0000
  C   C22       1.0  0.80669  0.43105  0.80853  1.0000
  C   C23       1.0  0.69331  0.93105  0.80853  1.0000
  C   C24       1.0  0.19331  0.56895  0.19147  1.0000
  C   C25       1.0  0.45479  0.12623  0.27293  1.0000
  C   C26       1.0  0.95478  0.37376  0.72707  1.0000
  C   C27       1.0  0.54521  0.87377  0.72707  1.0000
  C   C28       1.0  0.04523  0.62624  0.27293  1.0000
  C   C29       1.0  0.47118  0.08286  0.36435  1.0000
  C   C30       1.0  0.97118  0.41714  0.63565  1.0000
  C   C31       1.0  0.52882  0.91713  0.63565  1.0000
  C   C32       1.0  0.02882  0.58287  0.36436  1.0000
  Cl  Cl1       1.0  0.74237  0.37126  0.16595  1.0000
  Cl  Cl2       1.0  0.24237  0.12874  0.83405  1.0000
  Cl  Cl3       1.0  0.25762  0.62874  0.83405  1.0000
  Cl  Cl4       1.0  0.75763  0.87126  0.16595  1.0000
  O   O1        1.0  0.00380  0.28358  0.34940  1.0000
  O   O2        1.0  0.50381  0.21643  0.65059  1.0000
  O   O3        1.0  0.99618  0.71643  0.65060  1.0000
  O   O4        1.0  0.49620  0.78358  0.34940  1.0000
  O   O5        1.0  0.61299  0.35842  0.41777  1.0000
  O   O6        1.0  0.11301  0.14158  0.58223  1.0000
  O   O7        1.0  0.38699  0.64158  0.58224  1.0000
  O   O8        1.0  0.88700  0.85842  0.41777  1.0000
  O   O9        1.0  0.65148  0.12360  0.42921  1.0000
  O   O10       1.0  0.15147  0.37640  0.57079  1.0000
  O   O11       1.0  0.34853  0.87640  0.57079  1.0000
  O   O12       1.0  0.84853  0.62360  0.42921  1.0000
  O   O13       1.0  0.30721  0.00714  0.37011  1.0000
  O   O14       1.0  0.80720  0.49286  0.62990  1.0000
  O   O15       1.0  0.69280  0.99286  0.62989  1.0000
  O   O16       1.0  0.19281  0.50715  0.37011  1.0000
