data_image0
_chemical_formula_structural       SnH26C18N2Cl2
_chemical_formula_sum              "Sn1 H26 C18 N2 Cl2"
_cell_length_a       9.17302
_cell_length_b       9.26399
_cell_length_c       9.49953
_cell_angle_alpha    86.3747
_cell_angle_beta     60.1819
_cell_angle_gamma    80.572

_space_group_name_H-M_alt    "P 1"
_space_group_IT_number       1

loop_
  _space_group_symop_operation_xyz
  'x, y, z'

loop_
  _atom_site_type_symbol
  _atom_site_label
  _atom_site_symmetry_multiplicity
  _atom_site_fract_x
  _atom_site_fract_y
  _atom_site_fract_z
  _atom_site_occupancy
  Sn  Sn1       1.0  0.31596  0.07599  0.58917  1.0000
  H   H1        1.0  0.43040  0.72597  0.50616  1.0000
  H   H2        1.0  0.64034  0.51226  0.49212  1.0000
  H   H3        1.0  0.85242  0.80522  0.65679  1.0000
  H   H4        1.0  0.63679  0.00567  0.65685  1.0000
  H   H5        1.0  0.26320  0.43275  0.58400  1.0000
  H   H6        1.0  0.07007  0.64807  0.56982  1.0000
  H   H7        1.0  0.75455  0.34304  0.57559  1.0000
  H   H8        1.0  0.96187  0.14259  0.59076  1.0000
  H   H9        1.0  0.24267  0.96922  0.87636  1.0000
  H   H10       1.0  0.27725  0.15360  0.87553  1.0000
  H   H11       1.0  0.98158  0.24816  0.94621  1.0000
  H   H12       1.0  0.95417  0.08006  0.89063  1.0000
  H   H13       1.0  0.96590  0.95739  0.12360  1.0000
  H   H14       1.0  0.79790  0.10554  0.18420  1.0000
  H   H15       1.0  0.93832  0.10498  0.34943  1.0000
  H   H16       1.0  0.96780  0.26438  0.23078  1.0000
  H   H17       1.0  0.13753  0.11619  0.17326  1.0000
  H   H18       1.0  0.54396  0.97056  0.29250  1.0000
  H   H19       1.0  0.33512  0.97929  0.32157  1.0000
  H   H20       1.0  0.52930  0.24242  0.24405  1.0000
  H   H21       1.0  0.32448  0.25134  0.26856  1.0000
  H   H22       1.0  0.64615  0.06944  0.00424  1.0000
  H   H23       1.0  0.43986  0.07816  0.03278  1.0000
  H   H24       1.0  0.58772  0.25161  0.81861  1.0000
  H   H25       1.0  0.64120  0.33670  0.94621  1.0000
  H   H26       1.0  0.42643  0.35521  0.99131  1.0000
  C   C1        1.0  0.52850  0.73775  0.53602  1.0000
  C   C2        1.0  0.64602  0.61904  0.52967  1.0000
  C   C3        1.0  0.76712  0.63896  0.57342  1.0000
  C   C4        1.0  0.76310  0.78083  0.62076  1.0000
  C   C5        1.0  0.64228  0.89384  0.62250  1.0000
  C   C6        1.0  0.14751  0.41953  0.58325  1.0000
  C   C7        1.0  0.03862  0.53859  0.57494  1.0000
  C   C8        1.0  0.89156  0.51541  0.57375  1.0000
  C   C9        1.0  0.86513  0.37010  0.57679  1.0000
  C   C10       1.0  0.97969  0.25690  0.58561  1.0000
  C   C11       1.0  0.20672  0.08306  0.85133  1.0000
  C   C12       1.0  0.01426  0.12835  0.94801  1.0000
  C   C13       1.0  0.93729  0.07792  0.12447  1.0000
  C   C14       1.0  0.99918  0.14423  0.22453  1.0000
  C   C15       1.0  0.42218  0.04244  0.32977  1.0000
  C   C16       1.0  0.44682  0.17892  0.22803  1.0000
  C   C17       1.0  0.52323  0.14183  0.04757  1.0000
  C   C18       1.0  0.54643  0.27850  0.94503  1.0000
  N   N1        1.0  0.52637  0.87315  0.58138  1.0000
  N   N2        1.0  0.11819  0.28079  0.58977  1.0000
  Cl  Cl1       1.0  0.52733  0.25139  0.54304  1.0000
  Cl  Cl2       1.0  0.11012  0.88966  0.63456  1.0000
