data_image0
_chemical_formula_structural       Sn2H44C48N4Cl4
_chemical_formula_sum              "Sn2 H44 C48 N4 Cl4"
_cell_length_a       9.869
_cell_length_b       9.9024
_cell_length_c       13.295
_cell_angle_alpha    71.7767
_cell_angle_beta     71.7129
_cell_angle_gamma    73.5043

_space_group_name_H-M_alt    "P 1"
_space_group_IT_number       1

loop_
  _space_group_symop_operation_xyz
  'x, y, z'

loop_
  _atom_site_type_symbol
  _atom_site_label
  _atom_site_symmetry_multiplicity
  _atom_site_fract_x
  _atom_site_fract_y
  _atom_site_fract_z
  _atom_site_occupancy
  Sn  Sn1       1.0  0.72358  0.27651  0.75004  1.0000
  Sn  Sn2       1.0  0.27642  0.72349  0.24996  1.0000
  H   H1        1.0  0.44957  0.41697  0.64384  1.0000
  H   H2        1.0  0.58330  0.55013  0.85634  1.0000
  H   H3        1.0  0.55043  0.58303  0.35617  1.0000
  H   H4        1.0  0.41670  0.44987  0.14366  1.0000
  H   H5        1.0  0.23441  0.62394  0.63995  1.0000
  H   H6        1.0  0.37637  0.76527  0.85989  1.0000
  H   H7        1.0  0.76559  0.37606  0.36005  1.0000
  H   H8        1.0  0.62363  0.23473  0.14011  1.0000
  H   H9        1.0  0.12201  0.83117  0.92176  1.0000
  H   H10       1.0  0.16884  0.87781  0.57818  1.0000
  H   H11       1.0  0.87799  0.16883  0.07824  1.0000
  H   H12       1.0  0.83116  0.12219  0.42182  1.0000
  H   H13       1.0  0.91093  0.04301  0.91438  1.0000
  H   H14       1.0  0.95717  0.08909  0.58561  1.0000
  H   H15       1.0  0.08906  0.95699  0.08562  1.0000
  H   H16       1.0  0.04283  0.91091  0.41439  1.0000
  H   H17       1.0  0.91988  0.35921  0.56315  1.0000
  H   H18       1.0  0.64151  0.08011  0.93670  1.0000
  H   H19       1.0  0.08012  0.64079  0.43685  1.0000
  H   H20       1.0  0.35849  0.91989  0.06330  1.0000
  H   H21       1.0  0.97037  0.37790  0.67613  1.0000
  H   H22       1.0  0.62260  0.02997  0.82368  1.0000
  H   H23       1.0  0.02963  0.62210  0.32387  1.0000
  H   H24       1.0  0.37739  0.97003  0.17632  1.0000
  H   H25       1.0  0.72732  0.55419  0.48349  1.0000
  H   H26       1.0  0.44624  0.27243  0.01647  1.0000
  H   H27       1.0  0.27268  0.44581  0.51651  1.0000
  H   H28       1.0  0.55376  0.72757  0.98353  1.0000
  H   H29       1.0  0.60701  0.81479  0.44629  1.0000
  H   H30       1.0  0.18491  0.39307  0.05365  1.0000
  H   H31       1.0  0.39299  0.18521  0.55371  1.0000
  H   H32       1.0  0.81509  0.60693  0.94635  1.0000
  H   H33       1.0  0.63323  0.97608  0.54905  1.0000
  H   H34       1.0  0.02311  0.36710  0.95093  1.0000
  H   H35       1.0  0.36677  0.02392  0.45095  1.0000
  H   H36       1.0  0.97689  0.63290  0.04907  1.0000
  H   H37       1.0  0.77794  0.87293  0.68776  1.0000
  H   H38       1.0  0.12631  0.22243  0.81233  1.0000
  H   H39       1.0  0.22206  0.12707  0.31224  1.0000
  H   H40       1.0  0.87369  0.77757  0.18767  1.0000
  H   H41       1.0  0.89587  0.61012  0.72636  1.0000
  H   H42       1.0  0.38985  0.10424  0.77378  1.0000
  H   H43       1.0  0.10413  0.38988  0.27364  1.0000
  H   H44       1.0  0.61015  0.89576  0.22622  1.0000
  C   C1        1.0  0.42746  0.49667  0.69093  1.0000
  C   C2        1.0  0.50344  0.57227  0.80922  1.0000
  C   C3        1.0  0.57254  0.50333  0.30907  1.0000
  C   C4        1.0  0.49657  0.42773  0.19078  1.0000
  C   C5        1.0  0.30884  0.61231  0.68902  1.0000
  C   C6        1.0  0.38785  0.69092  0.81093  1.0000
  C   C7        1.0  0.69116  0.38768  0.31098  1.0000
  C   C8        1.0  0.61215  0.30908  0.18907  1.0000
  C   C9        1.0  0.28732  0.71260  0.74995  1.0000
  C   C10       1.0  0.71268  0.28740  0.25005  1.0000
  C   C11       1.0  0.16280  0.83713  0.74995  1.0000
  C   C12       1.0  0.83720  0.16287  0.25005  1.0000
  C   C13       1.0  0.08974  0.88575  0.84524  1.0000
  C   C14       1.0  0.11427  0.91018  0.65471  1.0000
  C   C15       1.0  0.91026  0.11425  0.15476  1.0000
  C   C16       1.0  0.88573  0.08982  0.34529  1.0000
  C   C17       1.0  0.97213  0.00250  0.84205  1.0000
  C   C18       1.0  0.99768  0.02793  0.65789  1.0000
  C   C19       1.0  0.02787  0.99750  0.15795  1.0000
  C   C20       1.0  0.00232  0.97207  0.34211  1.0000
  C   C21       1.0  0.88293  0.40588  0.63424  1.0000
  C   C22       1.0  0.59460  0.11700  0.86572  1.0000
  C   C23       1.0  0.11707  0.59412  0.36576  1.0000
  C   C24       1.0  0.40539  0.88300  0.13428  1.0000
  C   C25       1.0  0.82038  0.56381  0.60726  1.0000
  C   C26       1.0  0.43624  0.17950  0.89289  1.0000
  C   C27       1.0  0.17962  0.43618  0.39274  1.0000
  C   C28       1.0  0.56376  0.82050  0.10711  1.0000
  C   C29       1.0  0.73939  0.62469  0.52761  1.0000
  C   C30       1.0  0.37541  0.26048  0.97245  1.0000
  C   C31       1.0  0.26061  0.37531  0.47239  1.0000
  C   C32       1.0  0.62459  0.73952  0.02755  1.0000
  C   C33       1.0  0.67206  0.77132  0.50669  1.0000
  C   C34       1.0  0.22840  0.32803  0.99332  1.0000
  C   C35       1.0  0.32794  0.22867  0.49331  1.0000
  C   C36       1.0  0.77160  0.67197  0.00668  1.0000
  C   C37       1.0  0.68529  0.86121  0.56456  1.0000
  C   C38       1.0  0.13827  0.31496  0.93544  1.0000
  C   C39       1.0  0.31471  0.13879  0.43545  1.0000
  C   C40       1.0  0.86173  0.68503  0.06457  1.0000
  C   C41       1.0  0.76742  0.80298  0.64261  1.0000
  C   C42       1.0  0.19648  0.23286  0.85745  1.0000
  C   C43       1.0  0.23258  0.19702  0.35739  1.0000
  C   C44       1.0  0.80352  0.76715  0.14254  1.0000
  C   C45       1.0  0.83407  0.65586  0.66392  1.0000
  C   C46       1.0  0.34396  0.16601  0.83619  1.0000
  C   C47       1.0  0.16593  0.34414  0.33608  1.0000
  C   C48       1.0  0.65604  0.83399  0.16381  1.0000
  N   N1        1.0  0.52293  0.47687  0.75018  1.0000
  N   N2        1.0  0.47707  0.52313  0.24982  1.0000
  N   N3        1.0  0.92744  0.07289  0.74995  1.0000
  N   N4        1.0  0.07256  0.92710  0.25005  1.0000
  Cl  Cl1       1.0  0.77472  0.33098  0.91104  1.0000
  Cl  Cl2       1.0  0.66888  0.22531  0.58905  1.0000
  Cl  Cl3       1.0  0.22528  0.66901  0.08896  1.0000
  Cl  Cl4       1.0  0.33112  0.77469  0.41095  1.0000
