data_image0
_chemical_formula_structural       Zn4H34C62N6O16
_chemical_formula_sum              "Zn4 H34 C62 N6 O16"
_cell_length_a       8.51957
_cell_length_b       9.71726
_cell_length_c       16.572
_cell_angle_alpha    105.94
_cell_angle_beta     101.337
_cell_angle_gamma    90.4029

_space_group_name_H-M_alt    "P 1"
_space_group_IT_number       1

loop_
  _space_group_symop_operation_xyz
  'x, y, z'

loop_
  _atom_site_type_symbol
  _atom_site_label
  _atom_site_symmetry_multiplicity
  _atom_site_fract_x
  _atom_site_fract_y
  _atom_site_fract_z
  _atom_site_occupancy
  Zn  Zn1       1.0  0.12785  0.45474  0.15758  1.0000
  Zn  Zn2       1.0  0.87215  0.54526  0.84242  1.0000
  Zn  Zn3       1.0  0.37502  0.48138  0.87033  1.0000
  Zn  Zn4       1.0  0.62498  0.51862  0.12967  1.0000
  H   H1        1.0  0.13383  0.70634  0.29602  1.0000
  H   H2        1.0  0.86618  0.29366  0.70398  1.0000
  H   H3        1.0  0.52556  0.69999  0.50345  1.0000
  H   H4        1.0  0.47444  0.30001  0.49655  1.0000
  H   H5        1.0  0.58025  0.45565  0.41353  1.0000
  H   H6        1.0  0.41975  0.54435  0.58647  1.0000
  H   H7        1.0  0.40347  0.35277  0.26780  1.0000
  H   H8        1.0  0.59653  0.64723  0.73220  1.0000
  H   H9        1.0  0.14921  0.91700  0.34253  1.0000
  H   H10       1.0  0.85079  0.08300  0.65747  1.0000
  H   H11       1.0  0.19533  0.23933  0.58284  1.0000
  H   H12       1.0  0.80467  0.76067  0.41716  1.0000
  H   H13       1.0  0.27962  0.29520  0.70386  1.0000
  H   H14       1.0  0.72037  0.70480  0.29614  1.0000
  H   H15       1.0  0.54669  0.91468  0.67612  1.0000
  H   H16       1.0  0.45331  0.08532  0.32388  1.0000
  H   H17       1.0  0.67947  0.01199  0.82964  1.0000
  H   H18       1.0  0.32053  0.98801  0.17036  1.0000
  H   H19       1.0  0.61006  0.25709  0.91299  1.0000
  H   H20       1.0  0.38993  0.74291  0.08701  1.0000
  H   H21       1.0  0.90291  0.00669  0.32181  1.0000
  H   H22       1.0  0.09709  0.99331  0.67819  1.0000
  H   H23       1.0  0.75099  0.16189  0.24149  1.0000
  H   H24       1.0  0.24901  0.83811  0.75851  1.0000
  H   H25       1.0  0.04449  0.53020  0.40806  1.0000
  H   H26       1.0  0.95551  0.46980  0.59194  1.0000
  H   H27       1.0  0.19052  0.37859  0.49259  1.0000
  H   H28       1.0  0.80948  0.62140  0.50741  1.0000
  H   H29       1.0  0.92084  0.09245  0.83723  1.0000
  H   H30       1.0  0.07916  0.90755  0.16277  1.0000
  H   H31       1.0  0.24593  0.85527  0.97153  1.0000
  H   H32       1.0  0.75407  0.14473  0.02847  1.0000
  H   H33       1.0  0.41772  0.08119  0.04907  1.0000
  H   H34       1.0  0.58228  0.91881  0.95093  1.0000
  C   C1        1.0  0.23637  0.65823  0.32522  1.0000
  C   C2        1.0  0.76363  0.34177  0.67478  1.0000
  C   C3        1.0  0.32774  0.72537  0.40680  1.0000
  C   C4        1.0  0.67226  0.27463  0.59320  1.0000
  C   C5        1.0  0.45295  0.65040  0.43981  1.0000
  C   C6        1.0  0.54705  0.34960  0.56019  1.0000
  C   C7        1.0  0.48260  0.51595  0.39036  1.0000
  C   C8        1.0  0.51740  0.48405  0.60964  1.0000
  C   C9        1.0  0.38638  0.45742  0.30924  1.0000
  C   C10       1.0  0.61362  0.54258  0.69076  1.0000
  C   C11       1.0  0.29129  0.86997  0.45459  1.0000
  C   C12       1.0  0.70871  0.13003  0.54541  1.0000
  C   C13       1.0  0.19292  0.95364  0.41162  1.0000
  C   C14       1.0  0.80708  0.04635  0.58838  1.0000
  C   C15       1.0  0.15675  0.08928  0.45712  1.0000
  C   C16       1.0  0.84325  0.91072  0.54288  1.0000
  C   C17       1.0  0.22363  0.13551  0.54499  1.0000
  C   C18       1.0  0.77637  0.86449  0.45501  1.0000
  C   C19       1.0  0.32603  0.04802  0.58311  1.0000
  C   C20       1.0  0.67396  0.95198  0.41689  1.0000
  C   C21       1.0  0.37116  0.22957  0.72693  1.0000
  C   C22       1.0  0.62884  0.77043  0.27307  1.0000
  C   C23       1.0  0.40562  0.09824  0.67509  1.0000
  C   C24       1.0  0.59437  0.90176  0.32491  1.0000
  C   C25       1.0  0.51786  0.01854  0.71380  1.0000
  C   C26       1.0  0.48213  0.98146  0.28620  1.0000
  C   C27       1.0  0.59177  0.07396  0.79980  1.0000
  C   C28       1.0  0.40823  0.92604  0.20020  1.0000
  C   C29       1.0  0.55427  0.20807  0.84604  1.0000
  C   C30       1.0  0.44573  0.79193  0.15396  1.0000
  C   C31       1.0  0.05887  0.18114  0.41238  1.0000
  C   C32       1.0  0.94113  0.81886  0.58762  1.0000
  C   C33       1.0  0.93372  0.12175  0.34155  1.0000
  C   C34       1.0  0.06628  0.87825  0.65845  1.0000
  C   C35       1.0  0.84782  0.20808  0.29650  1.0000
  C   C36       1.0  0.15218  0.79192  0.70350  1.0000
  C   C37       1.0  0.88990  0.35539  0.31931  1.0000
  C   C38       1.0  0.11011  0.64461  0.68069  1.0000
  C   C39       1.0  0.01262  0.41563  0.39082  1.0000
  C   C40       1.0  0.98738  0.58437  0.60918  1.0000
  C   C41       1.0  0.09431  0.33015  0.43766  1.0000
  C   C42       1.0  0.90569  0.66985  0.56234  1.0000
  C   C43       1.0  0.81590  0.44854  0.26547  1.0000
  C   C44       1.0  0.18410  0.55147  0.73453  1.0000
  C   C45       1.0  0.36723  0.34459  0.04045  1.0000
  C   C46       1.0  0.63277  0.65541  0.95955  1.0000
  C   C47       1.0  0.26522  0.21303  0.98627  1.0000
  C   C48       1.0  0.73478  0.78697  0.01373  1.0000
  C   C49       1.0  0.12548  0.21630  0.92529  1.0000
  C   C50       1.0  0.87452  0.78370  0.07471  1.0000
  C   C51       1.0  0.08241  0.35270  0.90388  1.0000
  C   C52       1.0  0.91760  0.64730  0.09612  1.0000
  C   C53       1.0  0.02952  0.08967  0.88375  1.0000
  C   C54       1.0  0.97048  0.91033  0.11625  1.0000
  C   C55       1.0  0.07069  0.96039  0.90117  1.0000
  C   C56       1.0  0.92931  0.03961  0.09884  1.0000
  C   C57       1.0  0.21322  0.95716  0.95956  1.0000
  C   C58       1.0  0.78678  0.04284  0.04044  1.0000
  C   C59       1.0  0.30915  0.08266  0.00191  1.0000
  C   C60       1.0  0.69085  0.91734  0.99809  1.0000
  C   C61       1.0  0.96038  0.82735  0.86033  1.0000
  C   C62       1.0  0.03962  0.17265  0.13967  1.0000
  N   N1        1.0  0.26479  0.52842  0.27811  1.0000
  N   N2        1.0  0.73521  0.47158  0.72189  1.0000
  N   N3        1.0  0.35861  0.91691  0.53861  1.0000
  N   N4        1.0  0.64139  0.08309  0.46139  1.0000
  N   N5        1.0  0.44299  0.28367  0.80997  1.0000
  N   N6        1.0  0.55701  0.71633  0.19003  1.0000
  O   O1        1.0  0.68208  0.40115  0.21203  1.0000
  O   O2        1.0  0.31792  0.59886  0.78797  1.0000
  O   O3        1.0  0.88819  0.56709  0.27418  1.0000
  O   O4        1.0  0.11181  0.43291  0.72582  1.0000
  O   O5        1.0  0.32041  0.43203  0.10211  1.0000
  O   O6        1.0  0.67959  0.56797  0.89789  1.0000
  O   O7        1.0  0.50882  0.36016  0.02816  1.0000
  O   O8        1.0  0.49118  0.63985  0.97184  1.0000
  O   O9        1.0  0.19056  0.45440  0.92400  1.0000
  O   O10       1.0  0.80944  0.54561  0.07600  1.0000
  O   O11       1.0  0.93760  0.36139  0.86721  1.0000
  O   O12       1.0  0.06240  0.63861  0.13279  1.0000
  O   O13       1.0  0.82925  0.83017  0.81155  1.0000
  O   O14       1.0  0.17075  0.16983  0.18845  1.0000
  O   O15       1.0  0.01412  0.71499  0.88242  1.0000
  O   O16       1.0  0.98588  0.28501  0.11758  1.0000
