data_image0
_chemical_formula_structural       Mn2Hg2H24C24S8N16
_chemical_formula_sum              "Mn2 Hg2 H24 C24 S8 N16"
_cell_length_a       8.7838
_cell_length_b       8.84801
_cell_length_c       14.2054
_cell_angle_alpha    99.2982
_cell_angle_beta     98.1355
_cell_angle_gamma    106.314

_space_group_name_H-M_alt    "P 1"
_space_group_IT_number       1

loop_
  _space_group_symop_operation_xyz
  'x, y, z'

loop_
  _atom_site_type_symbol
  _atom_site_label
  _atom_site_symmetry_multiplicity
  _atom_site_fract_x
  _atom_site_fract_y
  _atom_site_fract_z
  _atom_site_occupancy
  Mn  Mn1       1.0  0.00002  0.50011  0.00009  1.0000
  Mn  Mn2       1.0  0.51164  0.00086  0.50333  1.0000
  Hg  Hg1       1.0  0.53855  0.46171  0.25225  1.0000
  Hg  Hg2       1.0  0.45932  0.53690  0.74726  1.0000
  H   H1        1.0  0.73460  0.14655  0.85517  1.0000
  H   H2        1.0  0.84055  0.26358  0.64269  1.0000
  H   H3        1.0  0.26535  0.85337  0.14481  1.0000
  H   H4        1.0  0.15415  0.73520  0.35576  1.0000
  H   H5        1.0  0.83400  0.87553  0.80516  1.0000
  H   H6        1.0  0.11567  0.17158  0.69259  1.0000
  H   H7        1.0  0.16587  0.12427  0.19501  1.0000
  H   H8        1.0  0.87948  0.82847  0.30631  1.0000
  H   H9        1.0  0.22558  0.25478  0.98554  1.0000
  H   H10       1.0  0.74075  0.77075  0.51648  1.0000
  H   H11       1.0  0.77437  0.74522  0.01443  1.0000
  H   H12       1.0  0.25653  0.22763  0.48219  1.0000
  H   H13       1.0  0.21590  0.94072  0.82160  1.0000
  H   H14       1.0  0.05995  0.79583  0.67956  1.0000
  H   H15       1.0  0.78409  0.05910  0.17842  1.0000
  H   H16       1.0  0.93855  0.20605  0.31987  1.0000
  H   H17       1.0  0.09692  0.81110  0.88728  1.0000
  H   H18       1.0  0.18668  0.91173  0.61087  1.0000
  H   H19       1.0  0.90300  0.18885  0.11279  1.0000
  H   H20       1.0  0.81063  0.09034  0.38788  1.0000
  H   H21       1.0  0.26444  0.98079  0.95076  1.0000
  H   H22       1.0  0.01961  0.73967  0.55044  1.0000
  H   H23       1.0  0.73552  0.01917  0.04925  1.0000
  H   H24       1.0  0.97878  0.26087  0.44895  1.0000
  C   C1        1.0  0.85117  0.12876  0.87529  1.0000
  C   C2        1.0  0.86113  0.14836  0.62352  1.0000
  C   C3        1.0  0.14884  0.87125  0.12460  1.0000
  C   C4        1.0  0.13430  0.85079  0.37522  1.0000
  C   C5        1.0  0.89786  0.99399  0.85052  1.0000
  C   C6        1.0  0.99749  0.10498  0.64787  1.0000
  C   C7        1.0  0.10213  0.00598  0.14943  1.0000
  C   C8        1.0  0.99779  0.89464  0.35101  1.0000
  C   C9        1.0  0.10478  0.19140  0.94326  1.0000
  C   C10       1.0  0.80271  0.89254  0.55754  1.0000
  C   C11       1.0  0.89521  0.80862  0.05665  1.0000
  C   C12       1.0  0.19411  0.10584  0.44123  1.0000
  C   C13       1.0  0.16477  0.93553  0.88752  1.0000
  C   C14       1.0  0.06298  0.84215  0.61253  1.0000
  C   C15       1.0  0.83518  0.06438  0.11249  1.0000
  C   C16       1.0  0.93478  0.15884  0.38657  1.0000
  C   C17       1.0  0.64648  0.34317  0.05528  1.0000
  C   C18       1.0  0.65345  0.32323  0.44121  1.0000
  C   C19       1.0  0.35348  0.65673  0.94445  1.0000
  C   C20       1.0  0.35328  0.67813  0.56079  1.0000
  C   C21       1.0  0.54746  0.82825  0.30338  1.0000
  C   C22       1.0  0.16292  0.45113  0.21677  1.0000
  C   C23       1.0  0.45838  0.17156  0.69877  1.0000
  C   C24       1.0  0.83643  0.54888  0.78317  1.0000
  S   S1        1.0  0.50495  0.23474  0.10334  1.0000
  S   S2        1.0  0.74836  0.48537  0.40503  1.0000
  S   S3        1.0  0.49493  0.76494  0.89623  1.0000
  S   S4        1.0  0.25032  0.51709  0.59490  1.0000
  S   S5        1.0  0.56859  0.73718  0.19842  1.0000
  S   S6        1.0  0.26559  0.42995  0.31704  1.0000
  S   S7        1.0  0.42623  0.26154  0.80077  1.0000
  S   S8        1.0  0.73328  0.57020  0.68308  1.0000
  N   N1        1.0  0.98134  0.25096  0.93337  1.0000
  N   N2        1.0  0.74049  0.01456  0.56696  1.0000
  N   N3        1.0  0.01867  0.74909  0.06647  1.0000
  N   N4        1.0  0.25485  0.98367  0.43147  1.0000
  N   N5        1.0  0.05917  0.03587  0.89437  1.0000
  N   N6        1.0  0.95845  0.94333  0.60532  1.0000
  N   N7        1.0  0.94082  0.96411  0.10557  1.0000
  N   N8        1.0  0.03779  0.05634  0.39354  1.0000
  N   N9        1.0  0.74773  0.41801  0.01960  1.0000
  N   N10       1.0  0.59199  0.20573  0.46832  1.0000
  N   N11       1.0  0.25225  0.58186  0.98014  1.0000
  N   N12       1.0  0.42280  0.79537  0.53618  1.0000
  N   N13       1.0  0.53357  0.89253  0.37984  1.0000
  N   N14       1.0  0.08538  0.46374  0.14521  1.0000
  N   N15       1.0  0.48045  0.10789  0.62450  1.0000
  N   N16       1.0  0.91443  0.53606  0.85450  1.0000
