data_image0
_chemical_formula_structural       H44Pb2C40S2N4O14
_chemical_formula_sum              "H44 Pb2 C40 S2 N4 O14"
_cell_length_a       8.19161
_cell_length_b       10.3591
_cell_length_c       14.129
_cell_angle_alpha    108.506
_cell_angle_beta     105.062
_cell_angle_gamma    95.1931

_space_group_name_H-M_alt    "P 1"
_space_group_IT_number       1

loop_
  _space_group_symop_operation_xyz
  'x, y, z'

loop_
  _atom_site_type_symbol
  _atom_site_label
  _atom_site_symmetry_multiplicity
  _atom_site_fract_x
  _atom_site_fract_y
  _atom_site_fract_z
  _atom_site_occupancy
  H   H1        1.0  0.57789  0.83710  0.76968  1.0000
  H   H2        1.0  0.42203  0.16289  0.23033  1.0000
  H   H3        1.0  0.25441  0.81021  0.34241  1.0000
  H   H4        1.0  0.74562  0.18980  0.65755  1.0000
  H   H5        1.0  0.36866  0.22470  0.71098  1.0000
  H   H6        1.0  0.63134  0.77529  0.28902  1.0000
  H   H7        1.0  0.51400  0.17216  0.80303  1.0000
  H   H8        1.0  0.48597  0.82781  0.19695  1.0000
  H   H9        1.0  0.42093  0.15566  0.94087  1.0000
  H   H10       1.0  0.57908  0.84435  0.05911  1.0000
  H   H11       1.0  0.18979  0.11745  0.01854  1.0000
  H   H12       1.0  0.81021  0.88257  0.98144  1.0000
  H   H13       1.0  0.88220  0.04312  0.90511  1.0000
  H   H14       1.0  0.11779  0.95689  0.09490  1.0000
  H   H15       1.0  0.81192  0.00808  0.71563  1.0000
  H   H16       1.0  0.18807  0.99195  0.28438  1.0000
  H   H17       1.0  0.04123  0.05448  0.64009  1.0000
  H   H18       1.0  0.95873  0.94550  0.35989  1.0000
  H   H19       1.0  0.19897  0.37687  0.08073  1.0000
  H   H20       1.0  0.80098  0.62310  0.91924  1.0000
  H   H21       1.0  0.18452  0.55400  0.10119  1.0000
  H   H22       1.0  0.81543  0.44597  0.89879  1.0000
  H   H23       1.0  0.92158  0.63421  0.11484  1.0000
  H   H24       1.0  0.07841  0.36579  0.88521  1.0000
  H   H25       1.0  0.61419  0.58040  0.10347  1.0000
  H   H26       1.0  0.38579  0.41958  0.89655  1.0000
  H   H27       1.0  0.49392  0.35377  0.10933  1.0000
  H   H28       1.0  0.50605  0.64620  0.89066  1.0000
  H   H29       1.0  0.68115  0.17979  0.12198  1.0000
  H   H30       1.0  0.31884  0.82019  0.87804  1.0000
  H   H31       1.0  0.98733  0.23238  0.12929  1.0000
  H   H32       1.0  0.01265  0.76761  0.87073  1.0000
  H   H33       1.0  0.93402  0.61583  0.32739  1.0000
  H   H34       1.0  0.06604  0.38416  0.67263  1.0000
  H   H35       1.0  0.78569  0.69069  0.39193  1.0000
  H   H36       1.0  0.21438  0.30934  0.60807  1.0000
  H   H37       1.0  0.83624  0.52495  0.39574  1.0000
  H   H38       1.0  0.16378  0.47508  0.60429  1.0000
  H   H39       1.0  0.06660  0.74329  0.68254  1.0000
  H   H40       1.0  0.93348  0.25673  0.31748  1.0000
  H   H41       1.0  0.90453  0.59617  0.58727  1.0000
  H   H42       1.0  0.09554  0.40386  0.41277  1.0000
  H   H43       1.0  0.86940  0.77340  0.61086  1.0000
  H   H44       1.0  0.13068  0.22663  0.38918  1.0000
  Pb  Pb1       1.0  0.48525  0.70589  0.50691  1.0000
  Pb  Pb2       1.0  0.51478  0.29411  0.49308  1.0000
  C   C1        1.0  0.33153  0.00507  0.54026  1.0000
  C   C2        1.0  0.66848  0.99492  0.45973  1.0000
  C   C3        1.0  0.39852  0.01595  0.65345  1.0000
  C   C4        1.0  0.60150  0.98406  0.34655  1.0000
  C   C5        1.0  0.38935  0.14016  0.74111  1.0000
  C   C6        1.0  0.61063  0.85986  0.25890  1.0000
  C   C7        1.0  0.24730  0.11026  0.78618  1.0000
  C   C8        1.0  0.75265  0.88971  0.21381  1.0000
  C   C9        1.0  0.28665  0.12521  0.89208  1.0000
  C   C10       1.0  0.71331  0.87477  0.10791  1.0000
  C   C11       1.0  0.15649  0.10211  0.93530  1.0000
  C   C12       1.0  0.84347  0.89790  0.06468  1.0000
  C   C13       1.0  0.98489  0.06045  0.87207  1.0000
  C   C14       1.0  0.01506  0.93956  0.12792  1.0000
  C   C15       1.0  0.94521  0.04198  0.76578  1.0000
  C   C16       1.0  0.05477  0.95803  0.23423  1.0000
  C   C17       1.0  0.07491  0.06782  0.72311  1.0000
  C   C18       1.0  0.92504  0.93214  0.27687  1.0000
  C   C19       1.0  0.35896  0.40473  0.28106  1.0000
  C   C20       1.0  0.64105  0.59528  0.71893  1.0000
  C   C21       1.0  0.27522  0.50893  0.24043  1.0000
  C   C22       1.0  0.72480  0.49107  0.75955  1.0000
  C   C23       1.0  0.16289  0.46848  0.12928  1.0000
  C   C24       1.0  0.83708  0.53149  0.87072  1.0000
  C   C25       1.0  0.97443  0.43639  0.12201  1.0000
  C   C26       1.0  0.02554  0.56359  0.87800  1.0000
  C   C27       1.0  0.86843  0.53415  0.11541  1.0000
  C   C28       1.0  0.13156  0.46584  0.88462  1.0000
  C   C29       1.0  0.69574  0.50408  0.10995  1.0000
  C   C30       1.0  0.30425  0.49592  0.89008  1.0000
  C   C31       1.0  0.62805  0.37715  0.11269  1.0000
  C   C32       1.0  0.37193  0.62283  0.88732  1.0000
  C   C33       1.0  0.73309  0.27925  0.11972  1.0000
  C   C34       1.0  0.26690  0.72073  0.88030  1.0000
  C   C35       1.0  0.90512  0.30863  0.12396  1.0000
  C   C36       1.0  0.09487  0.69136  0.87605  1.0000
  C   C37       1.0  0.88459  0.62605  0.39397  1.0000
  C   C38       1.0  0.11545  0.37396  0.60605  1.0000
  C   C39       1.0  0.96356  0.70456  0.60751  1.0000
  C   C40       1.0  0.03651  0.29547  0.39251  1.0000
  S   S1        1.0  0.05898  0.72173  0.51039  1.0000
  S   S2        1.0  0.94107  0.27828  0.48963  1.0000
  N   N1        1.0  0.46372  0.91252  0.66938  1.0000
  N   N2        1.0  0.53624  0.08746  0.33059  1.0000
  N   N3        1.0  0.30234  0.63172  0.30953  1.0000
  N   N4        1.0  0.69770  0.36829  0.69044  1.0000
  O   O1        1.0  0.33578  0.89226  0.46898  1.0000
  O   O2        1.0  0.66421  0.10775  0.53098  1.0000
  O   O3        1.0  0.27594  0.10669  0.52178  1.0000
  O   O4        1.0  0.72412  0.89330  0.47819  1.0000
  O   O5        1.0  0.52441  0.92385  0.77183  1.0000
  O   O6        1.0  0.47555  0.07618  0.22816  1.0000
  O   O7        1.0  0.45437  0.44749  0.37652  1.0000
  O   O8        1.0  0.54570  0.55254  0.62347  1.0000
  O   O9        1.0  0.32685  0.28148  0.21692  1.0000
  O   O10       1.0  0.67310  0.71852  0.78309  1.0000
  O   O11       1.0  0.22302  0.72670  0.27536  1.0000
  O   O12       1.0  0.77700  0.27332  0.72461  1.0000
  O   O13       1.0  0.19661  0.62905  0.51211  1.0000
  O   O14       1.0  0.80343  0.37096  0.48790  1.0000
