data_image0
_chemical_formula_structural       MnH12C6N8O4
_chemical_formula_sum              "Mn1 H12 C6 N8 O4"
_cell_length_a       5.39116
_cell_length_b       8.3972
_cell_length_c       7.54577
_cell_angle_alpha    62.4491
_cell_angle_beta     89.9449
_cell_angle_gamma    87.3919

_space_group_name_H-M_alt    "P 1"
_space_group_IT_number       1

loop_
  _space_group_symop_operation_xyz
  'x, y, z'

loop_
  _atom_site_type_symbol
  _atom_site_label
  _atom_site_symmetry_multiplicity
  _atom_site_fract_x
  _atom_site_fract_y
  _atom_site_fract_z
  _atom_site_occupancy
  Mn  Mn1       1.0  0.00000  1.00000  0.00000  1.0000
  H   H1        1.0  0.37630  0.30517  0.59984  1.0000
  H   H2        1.0  0.62370  0.69484  0.40016  1.0000
  H   H3        1.0  0.62912  0.35220  0.90738  1.0000
  H   H4        1.0  0.37088  0.64780  0.09262  1.0000
  H   H5        1.0  0.52489  0.58145  0.75237  1.0000
  H   H6        1.0  0.47510  0.41855  0.24763  1.0000
  H   H7        1.0  0.79516  0.52911  0.91038  1.0000
  H   H8        1.0  0.20484  0.47089  0.08963  1.0000
  H   H9        1.0  0.23523  0.87875  0.37231  1.0000
  H   H10       1.0  0.76477  0.12124  0.62771  1.0000
  H   H11       1.0  0.44546  0.96873  0.20856  1.0000
  H   H12       1.0  0.55457  0.03128  0.79144  1.0000
  C   C1        1.0  0.21050  0.39422  0.54973  1.0000
  C   C2        1.0  0.78950  0.60579  0.45027  1.0000
  C   C3        1.0  0.84494  0.49524  0.64986  1.0000
  C   C4        1.0  0.15506  0.50476  0.35014  1.0000
  C   C5        1.0  0.68868  0.48931  0.81413  1.0000
  C   C6        1.0  0.31132  0.51070  0.18587  1.0000
  N   N1        1.0  0.05908  0.38712  0.69764  1.0000
  N   N2        1.0  0.94091  0.61288  0.30236  1.0000
  N   N3        1.0  0.21684  0.87984  0.71192  1.0000
  N   N4        1.0  0.78316  0.12016  0.28809  1.0000
  N   N5        1.0  0.25876  0.95919  0.80467  1.0000
  N   N6        1.0  0.74124  0.04081  0.19534  1.0000
  N   N7        1.0  0.17685  0.79940  0.62358  1.0000
  N   N8        1.0  0.82315  0.20059  0.37642  1.0000
  O   O1        1.0  0.11627  0.27513  0.88550  1.0000
  O   O2        1.0  0.88373  0.72487  0.11449  1.0000
  O   O3        1.0  0.28281  0.90897  0.23255  1.0000
  O   O4        1.0  0.71717  0.09102  0.76743  1.0000
