data_image0
_chemical_formula_structural       Cu2H32C48N4O8
_chemical_formula_sum              "Cu2 H32 C48 N4 O8"
_cell_length_a       9.42228
_cell_length_b       11.1645
_cell_length_c       11.4184
_cell_angle_alpha    115.719
_cell_angle_beta     90.0308
_cell_angle_gamma    114.958

_space_group_name_H-M_alt    "P 1"
_space_group_IT_number       1

loop_
  _space_group_symop_operation_xyz
  'x, y, z'

loop_
  _atom_site_type_symbol
  _atom_site_label
  _atom_site_symmetry_multiplicity
  _atom_site_fract_x
  _atom_site_fract_y
  _atom_site_fract_z
  _atom_site_occupancy
  Cu  Cu1       1.0  1.00000  0.99999  1.00000  1.0000
  Cu  Cu2       1.0  1.00000  0.00000  0.50000  1.0000
  H   H1        1.0  0.91543  0.88281  0.19719  1.0000
  H   H2        1.0  0.03228  0.11713  0.30295  1.0000
  H   H3        1.0  0.08457  0.11719  0.80281  1.0000
  H   H4        1.0  0.96772  0.88288  0.69706  1.0000
  H   H5        1.0  0.47069  0.52190  0.80366  1.0000
  H   H6        1.0  0.94875  0.47812  0.69634  1.0000
  H   H7        1.0  0.52930  0.47810  0.19634  1.0000
  H   H8        1.0  0.05125  0.52189  0.30366  1.0000
  H   H9        1.0  0.59381  0.32906  0.69678  1.0000
  H   H10       1.0  0.26458  0.67115  0.80330  1.0000
  H   H11       1.0  0.40620  0.67094  0.30323  1.0000
  H   H12       1.0  0.73542  0.32884  0.19669  1.0000
  H   H13       1.0  0.69871  0.66788  0.20535  1.0000
  H   H14       1.0  0.03057  0.33205  0.29476  1.0000
  H   H15       1.0  0.30128  0.33211  0.79464  1.0000
  H   H16       1.0  0.96943  0.66796  0.70525  1.0000
  H   H17       1.0  0.81778  0.51428  0.90222  1.0000
  H   H18       1.0  0.30306  0.48579  0.59791  1.0000
  H   H19       1.0  0.18223  0.48572  0.09779  1.0000
  H   H20       1.0  0.69695  0.51421  0.40209  1.0000
  H   H21       1.0  0.68790  0.75587  0.82111  1.0000
  H   H22       1.0  0.93195  0.24415  0.67892  1.0000
  H   H23       1.0  0.31209  0.24413  0.17889  1.0000
  H   H24       1.0  0.06805  0.75586  0.32108  1.0000
  H   H25       1.0  0.91480  0.41803  0.02828  1.0000
  H   H26       1.0  0.49624  0.58184  0.47185  1.0000
  H   H27       1.0  0.08521  0.58196  0.97172  1.0000
  H   H28       1.0  0.50377  0.41816  0.52815  1.0000
  H   H29       1.0  0.48065  0.05750  0.62017  1.0000
  H   H30       1.0  0.42329  0.94267  0.87976  1.0000
  H   H31       1.0  0.51936  0.94251  0.37983  1.0000
  H   H32       1.0  0.57670  0.05733  0.12023  1.0000
  C   C1        1.0  0.56354  0.56940  0.00258  1.0000
  C   C2        1.0  0.99400  0.43058  0.49743  1.0000
  C   C3        1.0  0.43645  0.43060  0.99741  1.0000
  C   C4        1.0  0.00600  0.56943  0.50258  1.0000
  C   C5        1.0  0.63981  0.08246  0.77422  1.0000
  C   C6        1.0  0.55735  0.91752  0.72580  1.0000
  C   C7        1.0  0.36019  0.91754  0.22578  1.0000
  C   C8        1.0  0.44265  0.08247  0.27420  1.0000
  C   C9        1.0  0.81187  0.80219  0.11348  1.0000
  C   C10       1.0  0.00942  0.19776  0.38661  1.0000
  C   C11       1.0  0.18813  0.19781  0.88652  1.0000
  C   C12       1.0  0.99058  0.80225  0.61339  1.0000
  C   C13       1.0  0.56402  0.59925  0.89503  1.0000
  C   C14       1.0  0.96455  0.40071  0.60496  1.0000
  C   C15       1.0  0.43597  0.40074  0.10497  1.0000
  C   C16       1.0  0.03545  0.59930  0.39505  1.0000
  C   C17       1.0  0.84695  0.14312  0.96519  1.0000
  C   C18       1.0  0.70350  0.85663  0.53473  1.0000
  C   C19       1.0  0.15305  0.85688  0.03481  1.0000
  C   C20       1.0  0.29649  0.14337  0.46527  1.0000
  C   C21       1.0  0.76342  0.18625  0.89043  1.0000
  C   C22       1.0  0.57704  0.81369  0.60967  1.0000
  C   C23       1.0  0.23658  0.81375  0.10958  1.0000
  C   C24       1.0  0.42296  0.18631  0.39033  1.0000
  C   C25       1.0  0.64333  0.29117  0.75175  1.0000
  C   C26       1.0  0.35201  0.70894  0.74832  1.0000
  C   C27       1.0  0.35668  0.70884  0.24825  1.0000
  C   C28       1.0  0.64799  0.29106  0.25167  1.0000
  C   C29       1.0  0.69097  0.67713  0.11484  1.0000
  C   C30       1.0  0.01357  0.32282  0.38524  1.0000
  C   C31       1.0  0.30903  0.32288  0.88515  1.0000
  C   C32       1.0  0.98643  0.67719  0.61477  1.0000
  C   C33       1.0  0.76575  0.39367  0.86697  1.0000
  C   C34       1.0  0.37179  0.60638  0.63317  1.0000
  C   C35       1.0  0.23426  0.60633  0.13304  1.0000
  C   C36       1.0  0.62822  0.39361  0.36682  1.0000
  C   C37       1.0  0.68699  0.72916  0.90232  1.0000
  C   C38       1.0  0.95765  0.27082  0.59769  1.0000
  C   C39       1.0  0.31301  0.27084  0.09768  1.0000
  C   C40       1.0  0.04235  0.72918  0.40231  1.0000
  C   C41       1.0  0.82191  0.34072  0.93670  1.0000
  C   C42       1.0  0.48089  0.65924  0.56344  1.0000
  C   C43       1.0  0.17810  0.65928  0.06331  1.0000
  C   C44       1.0  0.51911  0.34076  0.43656  1.0000
  C   C45       1.0  0.57989  0.13736  0.70766  1.0000
  C   C46       1.0  0.44254  0.86271  0.79236  1.0000
  C   C47       1.0  0.42012  0.86264  0.29234  1.0000
  C   C48       1.0  0.55745  0.13728  0.20764  1.0000
  N   N1        1.0  0.81105  0.82895  0.00924  1.0000
  N   N2        1.0  0.98192  0.17103  0.49087  1.0000
  N   N3        1.0  0.18895  0.17104  0.99076  1.0000
  N   N4        1.0  0.01808  0.82898  0.50914  1.0000
  O   O1        1.0  0.84977  0.01622  0.89587  1.0000
  O   O2        1.0  0.83337  0.98351  0.60387  1.0000
  O   O3        1.0  0.15023  0.98377  0.10413  1.0000
  O   O4        1.0  0.16662  0.01649  0.39612  1.0000
  O   O5        1.0  0.91696  0.23158  0.08560  1.0000
  O   O6        1.0  0.68466  0.76800  0.41434  1.0000
  O   O7        1.0  0.08304  0.76841  0.91441  1.0000
  O   O8        1.0  0.31534  0.23200  0.58566  1.0000
