data_image0
_chemical_formula_structural       Cd2H28C28S4N4O10
_chemical_formula_sum              "Cd2 H28 C28 S4 N4 O10"
_cell_length_a       6.60044
_cell_length_b       11.1985
_cell_length_c       11.9604
_cell_angle_alpha    85.3386
_cell_angle_beta     73.9606
_cell_angle_gamma    72.8177

_space_group_name_H-M_alt    "P 1"
_space_group_IT_number       1

loop_
  _space_group_symop_operation_xyz
  'x, y, z'

loop_
  _atom_site_type_symbol
  _atom_site_label
  _atom_site_symmetry_multiplicity
  _atom_site_fract_x
  _atom_site_fract_y
  _atom_site_fract_z
  _atom_site_occupancy
  Cd  Cd1       1.0  0.93432  0.75000  0.75000  1.0000
  Cd  Cd2       1.0  0.06568  0.25000  0.25001  1.0000
  H   H1        1.0  0.50788  0.77450  0.68608  1.0000
  H   H2        1.0  0.46824  0.72574  0.81405  1.0000
  H   H3        1.0  0.49211  0.22551  0.31392  1.0000
  H   H4        1.0  0.53177  0.27426  0.18595  1.0000
  H   H5        1.0  0.01298  0.69710  0.41417  1.0000
  H   H6        1.0  0.62454  0.80298  0.08522  1.0000
  H   H7        1.0  0.98701  0.30291  0.58582  1.0000
  H   H8        1.0  0.37546  0.19702  0.91478  1.0000
  H   H9        1.0  0.18203  0.47163  0.35391  1.0000
  H   H10       1.0  0.50749  0.02834  0.14565  1.0000
  H   H11       1.0  0.81795  0.52837  0.64610  1.0000
  H   H12       1.0  0.49250  0.97166  0.85436  1.0000
  H   H13       1.0  0.61053  0.45212  0.28637  1.0000
  H   H14       1.0  0.84871  0.04786  0.21414  1.0000
  H   H15       1.0  0.38949  0.54788  0.71361  1.0000
  H   H16       1.0  0.15129  0.95215  0.78586  1.0000
  H   H17       1.0  0.41926  0.67296  0.34088  1.0000
  H   H18       1.0  0.93315  0.82720  0.15946  1.0000
  H   H19       1.0  0.58076  0.32705  0.65910  1.0000
  H   H20       1.0  0.06685  0.17280  0.84055  1.0000
  H   H21       1.0  0.26923  0.86703  0.35681  1.0000
  H   H22       1.0  0.99305  0.63310  0.14304  1.0000
  H   H23       1.0  0.73073  0.13298  0.64320  1.0000
  H   H24       1.0  0.00697  0.36689  0.85697  1.0000
  H   H25       1.0  0.23849  0.99473  0.44281  1.0000
  H   H26       1.0  0.17633  0.50527  0.05736  1.0000
  H   H27       1.0  0.76150  0.00525  0.55719  1.0000
  H   H28       1.0  0.82368  0.49474  0.94264  1.0000
  C   C1        1.0  0.92152  0.64594  0.38341  1.0000
  C   C2        1.0  0.45105  0.85410  0.11615  1.0000
  C   C3        1.0  0.07847  0.35407  0.61659  1.0000
  C   C4        1.0  0.54893  0.14589  0.88387  1.0000
  C   C5        1.0  0.01340  0.52099  0.35224  1.0000
  C   C6        1.0  0.38663  0.97900  0.14747  1.0000
  C   C7        1.0  0.98660  0.47902  0.64776  1.0000
  C   C8        1.0  0.61337  0.02100  0.85253  1.0000
  C   C9        1.0  0.69388  0.50938  0.31573  1.0000
  C   C10       1.0  0.01886  0.99071  0.18450  1.0000
  C   C11       1.0  0.30614  0.49062  0.68426  1.0000
  C   C12       1.0  0.98115  0.00929  0.81550  1.0000
  C   C13       1.0  0.58790  0.63369  0.34627  1.0000
  C   C14       1.0  0.06788  0.86645  0.15390  1.0000
  C   C15       1.0  0.41213  0.36631  0.65371  1.0000
  C   C16       1.0  0.93211  0.13356  0.84610  1.0000
  C   C17       1.0  0.70341  0.70605  0.37937  1.0000
  C   C18       1.0  0.28902  0.79400  0.12049  1.0000
  C   C19       1.0  0.29658  0.29396  0.62062  1.0000
  C   C20       1.0  0.71099  0.20599  0.87952  1.0000
  C   C21       1.0  0.30909  0.89247  0.43311  1.0000
  C   C22       1.0  0.13487  0.60753  0.06682  1.0000
  C   C23       1.0  0.69091  0.10752  0.56688  1.0000
  C   C24       1.0  0.86512  0.39247  0.93318  1.0000
  C   C25       1.0  0.19610  0.83320  0.54274  1.0000
  C   C26       1.0  0.07212  0.66650  0.95716  1.0000
  C   C27       1.0  0.80389  0.16680  0.45725  1.0000
  C   C28       1.0  0.92787  0.33351  0.04285  1.0000
  S   S1        1.0  0.59925  0.86529  0.41057  1.0000
  S   S2        1.0  0.37530  0.63474  0.08917  1.0000
  S   S3        1.0  0.40073  0.13472  0.58941  1.0000
  S   S4        1.0  0.62471  0.36527  0.91082  1.0000
  N   N1        1.0  0.90373  0.45302  0.31741  1.0000
  N   N2        1.0  0.17404  0.04701  0.18263  1.0000
  N   N3        1.0  0.09627  0.54698  0.68259  1.0000
  N   N4        1.0  0.82596  0.95299  0.81739  1.0000
  O   O1        1.0  0.28812  0.79727  0.62440  1.0000
  O   O2        1.0  0.20979  0.70236  0.87537  1.0000
  O   O3        1.0  0.71188  0.20274  0.37560  1.0000
  O   O4        1.0  0.79020  0.29763  0.12462  1.0000
  O   O5        1.0  0.00430  0.82687  0.54756  1.0000
  O   O6        1.0  0.87881  0.67273  0.95236  1.0000
  O   O7        1.0  0.99570  0.17313  0.45244  1.0000
  O   O8        1.0  0.12119  0.32726  0.04765  1.0000
  O   O9        1.0  0.58076  0.75034  0.75014  1.0000
  O   O10       1.0  0.41924  0.24966  0.24986  1.0000
