data_image0
_chemical_formula_structural       Mn2H16C20N16O4
_chemical_formula_sum              "Mn2 H16 C20 N16 O4"
_cell_length_a       7.20172
_cell_length_b       7.4842
_cell_length_c       12.7746
_cell_angle_alpha    93.4481
_cell_angle_beta     95.2399
_cell_angle_gamma    100.362

_space_group_name_H-M_alt    "P 1"
_space_group_IT_number       1

loop_
  _space_group_symop_operation_xyz
  'x, y, z'

loop_
  _atom_site_type_symbol
  _atom_site_label
  _atom_site_symmetry_multiplicity
  _atom_site_fract_x
  _atom_site_fract_y
  _atom_site_fract_z
  _atom_site_occupancy
  Mn  Mn1       1.0  0.50000  0.99999  0.50000  1.0000
  Mn  Mn2       1.0  0.00001  0.50000  0.00000  1.0000
  H   H1        1.0  0.48693  0.74404  0.70335  1.0000
  H   H2        1.0  0.25740  0.52138  0.79817  1.0000
  H   H3        1.0  0.51306  0.25596  0.29665  1.0000
  H   H4        1.0  0.74259  0.47862  0.20183  1.0000
  H   H5        1.0  0.22593  0.24500  0.67446  1.0000
  H   H6        1.0  0.75206  0.78656  0.83736  1.0000
  H   H7        1.0  0.77406  0.75500  0.32554  1.0000
  H   H8        1.0  0.24794  0.21344  0.16264  1.0000
  H   H9        1.0  0.03288  0.22624  0.75590  1.0000
  H   H10       1.0  0.76678  0.97152  0.75290  1.0000
  H   H11       1.0  0.96712  0.77376  0.24410  1.0000
  H   H12       1.0  0.23322  0.02848  0.24710  1.0000
  H   H13       1.0  0.99368  0.13167  0.62341  1.0000
  H   H14       1.0  0.87377  0.00904  0.88488  1.0000
  H   H15       1.0  0.00631  0.86833  0.37659  1.0000
  H   H16       1.0  0.12623  0.99095  0.11512  1.0000
  C   C1        1.0  0.35386  0.77214  0.72734  1.0000
  C   C2        1.0  0.23170  0.65369  0.77715  1.0000
  C   C3        1.0  0.64613  0.22786  0.27265  1.0000
  C   C4        1.0  0.76829  0.34631  0.22285  1.0000
  C   C5        1.0  0.14287  0.98238  0.72755  1.0000
  C   C6        1.0  0.02075  0.86354  0.78121  1.0000
  C   C7        1.0  0.85713  0.01762  0.27245  1.0000
  C   C8        1.0  0.97925  0.13647  0.21879  1.0000
  C   C9        1.0  0.09707  0.15762  0.69418  1.0000
  C   C10       1.0  0.84202  0.90965  0.81550  1.0000
  C   C11       1.0  0.90292  0.84238  0.30581  1.0000
  C   C12       1.0  0.15799  0.09035  0.18451  1.0000
  C   C13       1.0  0.76464  0.69959  0.55968  1.0000
  C   C14       1.0  0.29264  0.26046  0.94794  1.0000
  C   C15       1.0  0.23537  0.30041  0.44032  1.0000
  C   C16       1.0  0.70737  0.73954  0.05206  1.0000
  C   C17       1.0  0.77242  0.39481  0.54447  1.0000
  C   C18       1.0  0.60532  0.25317  0.95605  1.0000
  C   C19       1.0  0.22758  0.60518  0.45553  1.0000
  C   C20       1.0  0.39468  0.74684  0.04395  1.0000
  N   N1        1.0  0.31248  0.93740  0.70352  1.0000
  N   N2        1.0  0.06573  0.69777  0.80420  1.0000
  N   N3        1.0  0.68751  0.06260  0.29648  1.0000
  N   N4        1.0  0.93428  0.30223  0.19580  1.0000
  N   N5        1.0  0.70117  0.83391  0.55391  1.0000
  N   N6        1.0  0.15931  0.33085  0.95388  1.0000
  N   N7        1.0  0.29884  0.16609  0.44609  1.0000
  N   N8        1.0  0.84070  0.66915  0.04612  1.0000
  N   N9        1.0  0.84845  0.56256  0.57155  1.0000
  N   N10       1.0  0.42903  0.17142  0.93691  1.0000
  N   N11       1.0  0.15155  0.43743  0.42844  1.0000
  N   N12       1.0  0.57098  0.82858  0.06309  1.0000
  N   N13       1.0  0.71717  0.23772  0.52221  1.0000
  N   N14       1.0  0.76775  0.31847  0.97312  1.0000
  N   N15       1.0  0.28283  0.76228  0.47780  1.0000
  N   N16       1.0  0.23226  0.68154  0.02689  1.0000
  O   O1        1.0  0.43561  0.05091  0.65854  1.0000
  O   O2        1.0  0.94560  0.57724  0.84795  1.0000
  O   O3        1.0  0.56439  0.94909  0.34145  1.0000
  O   O4        1.0  0.05440  0.42277  0.15205  1.0000
