data_image0
_chemical_formula_structural       MnH8C10N8O2
_chemical_formula_sum              "Mn1 H8 C10 N8 O2"
_cell_length_a       6.36728
_cell_length_b       7.08051
_cell_length_c       7.60034
_cell_angle_alpha    70.531
_cell_angle_beta     80.5335
_cell_angle_gamma    87.1985

_space_group_name_H-M_alt    "P 1"
_space_group_IT_number       1

loop_
  _space_group_symop_operation_xyz
  'x, y, z'

loop_
  _atom_site_type_symbol
  _atom_site_label
  _atom_site_symmetry_multiplicity
  _atom_site_fract_x
  _atom_site_fract_y
  _atom_site_fract_z
  _atom_site_occupancy
  Mn  Mn1       1.0  0.00000  0.99999  0.00001  1.0000
  H   H1        1.0  0.66834  0.37378  0.91947  1.0000
  H   H2        1.0  0.33169  0.62623  0.08050  1.0000
  H   H3        1.0  0.58579  0.61996  0.79174  1.0000
  H   H4        1.0  0.41423  0.38003  0.20828  1.0000
  H   H5        1.0  0.80865  0.58499  0.91533  1.0000
  H   H6        1.0  0.19137  0.41499  0.08465  1.0000
  H   H7        1.0  0.32249  0.30256  0.54942  1.0000
  H   H8        1.0  0.67751  0.69743  0.45057  1.0000
  C   C1        1.0  0.86444  0.51617  0.65803  1.0000
  C   C2        1.0  0.13549  0.48386  0.34194  1.0000
  C   C3        1.0  0.72319  0.52545  0.83041  1.0000
  C   C4        1.0  0.27676  0.47455  0.16965  1.0000
  C   C5        1.0  0.17921  0.39048  0.52255  1.0000
  C   C6        1.0  0.82080  0.60955  0.47736  1.0000
  C   C7        1.0  0.26160  0.87629  0.64282  1.0000
  C   C8        1.0  0.73842  0.12371  0.35720  1.0000
  C   C9        1.0  0.28395  0.91110  0.32786  1.0000
  C   C10       1.0  0.71606  0.08888  0.67216  1.0000
  N   N1        1.0  0.04810  0.40506  0.67846  1.0000
  N   N2        1.0  0.95191  0.59492  0.32150  1.0000
  N   N3        1.0  0.20424  0.90310  0.78815  1.0000
  N   N4        1.0  0.79578  0.09692  0.21187  1.0000
  N   N5        1.0  0.34095  0.83326  0.49272  1.0000
  N   N6        1.0  0.65907  0.16673  0.50731  1.0000
  N   N7        1.0  0.24471  0.96976  0.17226  1.0000
  N   N8        1.0  0.75529  0.03024  0.82776  1.0000
  O   O1        1.0  0.09575  0.31119  0.84712  1.0000
  O   O2        1.0  0.90424  0.68879  0.15291  1.0000
