data_image0
_chemical_formula_structural       AgH14C15S9N2O3F3
_chemical_formula_sum              "Ag1 H14 C15 S9 N2 O3 F3"
_cell_length_a       7.51092
_cell_length_b       8.04203
_cell_length_c       10.9601
_cell_angle_alpha    94.3969
_cell_angle_beta     93.4649
_cell_angle_gamma    110.27

_space_group_name_H-M_alt    "P 1"
_space_group_IT_number       1

loop_
  _space_group_symop_operation_xyz
  'x, y, z'

loop_
  _atom_site_type_symbol
  _atom_site_label
  _atom_site_symmetry_multiplicity
  _atom_site_fract_x
  _atom_site_fract_y
  _atom_site_fract_z
  _atom_site_occupancy
  Ag  Ag1       1.0  0.35491  0.75516  0.15013  1.0000
  H   H1        1.0  0.88919  0.81817  0.35291  1.0000
  H   H2        1.0  0.90905  0.68769  0.21487  1.0000
  H   H3        1.0  0.00336  0.92549  0.22732  1.0000
  H   H4        1.0  0.47438  0.26438  0.29963  1.0000
  H   H5        1.0  0.58011  0.40806  0.18635  1.0000
  H   H6        1.0  0.32630  0.31918  0.18429  1.0000
  H   H7        1.0  0.13688  0.19198  0.79450  1.0000
  H   H8        1.0  0.34291  0.32179  0.72976  1.0000
  H   H9        1.0  0.42149  0.33949  0.95296  1.0000
  H   H10       1.0  0.55020  0.22065  0.87626  1.0000
  H   H11       1.0  0.81009  0.71511  0.67432  1.0000
  H   H12       1.0  0.66319  0.55602  0.76114  1.0000
  H   H13       1.0  0.84267  0.96000  0.84719  1.0000
  H   H14       1.0  0.93985  0.79660  0.88983  1.0000
  C   C1        1.0  0.97677  0.80870  0.27813  1.0000
  C   C2        1.0  0.46035  0.36696  0.24339  1.0000
  C   C3        1.0  0.16074  0.62292  0.40809  1.0000
  C   C4        1.0  0.26513  0.51371  0.40288  1.0000
  C   C5        1.0  0.96625  0.34577  0.51060  1.0000
  C   C6        1.0  0.81116  0.21662  0.54451  1.0000
  C   C7        1.0  0.48641  0.05313  0.63035  1.0000
  C   C8        1.0  0.58211  0.93661  0.63196  1.0000
  C   C9        1.0  0.28236  0.20160  0.77672  1.0000
  C   C10       1.0  0.40623  0.21551  0.89597  1.0000
  C   C11       1.0  0.32516  0.06672  0.96699  1.0000
  C   C12       1.0  0.70864  0.69689  0.74447  1.0000
  C   C13       1.0  0.80705  0.81840  0.86175  1.0000
  C   C14       1.0  0.68808  0.78206  0.96244  1.0000
  C   C15       1.0  0.88416  0.24643  0.10778  1.0000
  S   S1        1.0  0.21165  0.82198  0.33982  1.0000
  S   S2        1.0  0.48101  0.56805  0.33907  1.0000
  S   S3        1.0  0.96468  0.56136  0.49543  1.0000
  S   S4        1.0  0.18235  0.31992  0.47876  1.0000
  S   S5        1.0  0.59656  0.25277  0.56501  1.0000
  S   S6        1.0  0.80160  0.00030  0.56736  1.0000
  S   S7        1.0  0.25542  0.00597  0.67182  1.0000
  S   S8        1.0  0.49221  0.72569  0.68249  1.0000
  S   S9        1.0  0.95676  0.38950  0.98064  1.0000
  N   N1        1.0  0.25879  0.94728  0.02394  1.0000
  N   N2        1.0  0.58987  0.75146  0.04194  1.0000
  O   O1        1.0  0.16432  0.46666  0.00680  1.0000
  O   O2        1.0  0.85525  0.51302  0.99838  1.0000
  O   O3        1.0  0.89019  0.26202  0.87075  1.0000
  F   F1        1.0  0.92176  0.34505  0.21860  1.0000
  F   F2        1.0  0.69457  0.14925  0.09403  1.0000
  F   F3        1.0  0.98002  0.13028  0.11130  1.0000
