data_image0
_chemical_formula_structural       In2H24C36N8Cl2O18
_chemical_formula_sum              "In2 H24 C36 N8 Cl2 O18"
_cell_length_a       7.76249
_cell_length_b       9.90262
_cell_length_c       12.5407
_cell_angle_alpha    90.5571
_cell_angle_beta     92.6891
_cell_angle_gamma    104.992

_space_group_name_H-M_alt    "P 1"
_space_group_IT_number       1

loop_
  _space_group_symop_operation_xyz
  'x, y, z'

loop_
  _atom_site_type_symbol
  _atom_site_label
  _atom_site_symmetry_multiplicity
  _atom_site_fract_x
  _atom_site_fract_y
  _atom_site_fract_z
  _atom_site_occupancy
  In  In1       1.0  0.42734  0.99425  0.25518  1.0000
  In  In2       1.0  0.57266  0.00575  0.74482  1.0000
  H   H1        1.0  0.87650  0.53629  0.83369  1.0000
  H   H2        1.0  0.12350  0.46371  0.16631  1.0000
  H   H3        1.0  0.60031  0.44058  0.19022  1.0000
  H   H4        1.0  0.39969  0.55942  0.80978  1.0000
  H   H5        1.0  0.74963  0.93135  0.04841  1.0000
  H   H6        1.0  0.25038  0.06865  0.95159  1.0000
  H   H7        1.0  0.05844  0.06855  0.59810  1.0000
  H   H8        1.0  0.94156  0.93144  0.40190  1.0000
  H   H9        1.0  0.11962  0.57937  0.67935  1.0000
  H   H10       1.0  0.88038  0.42063  0.32065  1.0000
  H   H11       1.0  0.37359  0.43666  0.34636  1.0000
  H   H12       1.0  0.62641  0.56333  0.65364  1.0000
  H   H13       1.0  0.85822  0.81935  0.89172  1.0000
  H   H14       1.0  0.14178  0.18065  0.10828  1.0000
  H   H15       1.0  0.00293  0.27425  0.70081  1.0000
  H   H16       1.0  0.99707  0.72575  0.29919  1.0000
  H   H17       1.0  0.75752  0.03202  0.32020  1.0000
  H   H18       1.0  0.24248  0.96798  0.67980  1.0000
  H   H19       1.0  0.75639  0.04413  0.19267  1.0000
  H   H20       1.0  0.24361  0.95587  0.80733  1.0000
  H   H21       1.0  0.62333  0.73526  0.18206  1.0000
  H   H22       1.0  0.37667  0.26474  0.81794  1.0000
  H   H23       1.0  0.23748  0.16415  0.43471  1.0000
  H   H24       1.0  0.76252  0.83585  0.56529  1.0000
  C   C1        1.0  0.31210  0.79749  0.57819  1.0000
  C   C2        1.0  0.68790  0.20250  0.42181  1.0000
  C   C3        1.0  0.78395  0.26643  0.87479  1.0000
  C   C4        1.0  0.21605  0.73357  0.12521  1.0000
  C   C5        1.0  0.77157  0.38214  0.95043  1.0000
  C   C6        1.0  0.22843  0.61786  0.04957  1.0000
  C   C7        1.0  0.81940  0.51749  0.91146  1.0000
  C   C8        1.0  0.18060  0.48251  0.08854  1.0000
  C   C9        1.0  0.66714  0.21388  0.10110  1.0000
  C   C10       1.0  0.33286  0.78612  0.89890  1.0000
  C   C11       1.0  0.69695  0.35536  0.05180  1.0000
  C   C12       1.0  0.30305  0.64464  0.94820  1.0000
  C   C13       1.0  0.66065  0.46191  0.11347  1.0000
  C   C14       1.0  0.33935  0.53809  0.88653  1.0000
  C   C15       1.0  0.70591  0.59646  0.07312  1.0000
  C   C16       1.0  0.29408  0.40354  0.92688  1.0000
  C   C17       1.0  0.78672  0.62385  0.97431  1.0000
  C   C18       1.0  0.21328  0.37615  0.02570  1.0000
  C   C19       1.0  0.75015  0.82201  0.04159  1.0000
  C   C20       1.0  0.24985  0.17799  0.95841  1.0000
  C   C21       1.0  0.10616  0.17698  0.57654  1.0000
  C   C22       1.0  0.89384  0.82303  0.42346  1.0000
  C   C23       1.0  0.23311  0.36823  0.49029  1.0000
  C   C24       1.0  0.76689  0.63177  0.50971  1.0000
  C   C25       1.0  0.15608  0.40738  0.58167  1.0000
  C   C26       1.0  0.84392  0.59262  0.41834  1.0000
  C   C27       1.0  0.17369  0.54786  0.60735  1.0000
  C   C28       1.0  0.82631  0.45214  0.39265  1.0000
  C   C29       1.0  0.26765  0.64723  0.53839  1.0000
  C   C30       1.0  0.73235  0.35276  0.46161  1.0000
  C   C31       1.0  0.33331  0.60653  0.44270  1.0000
  C   C32       1.0  0.66669  0.39347  0.55730  1.0000
  C   C33       1.0  0.31824  0.46594  0.41852  1.0000
  C   C34       1.0  0.68176  0.53406  0.58148  1.0000
  C   C35       1.0  0.41376  0.71187  0.36156  1.0000
  C   C36       1.0  0.58624  0.28813  0.63844  1.0000
  N   N1        1.0  0.81312  0.76589  0.95924  1.0000
  N   N2        1.0  0.18688  0.23411  0.04076  1.0000
  N   N3        1.0  0.68666  0.72301  0.11189  1.0000
  N   N4        1.0  0.31334  0.27699  0.88811  1.0000
  N   N5        1.0  0.20184  0.22415  0.49252  1.0000
  N   N6        1.0  0.79816  0.77585  0.50748  1.0000
  N   N7        1.0  0.07713  0.28426  0.63199  1.0000
  N   N8        1.0  0.92287  0.71574  0.36801  1.0000
  Cl  Cl1       1.0  0.14436  0.06568  0.26133  1.0000
  Cl  Cl2       1.0  0.85564  0.93432  0.73867  1.0000
  O   O1        1.0  0.47530  0.84472  0.61383  1.0000
  O   O2        1.0  0.52470  0.15528  0.38617  1.0000
  O   O3        1.0  0.65723  0.15257  0.87931  1.0000
  O   O4        1.0  0.34277  0.84743  0.12069  1.0000
  O   O5        1.0  0.70560  0.97700  0.25156  1.0000
  O   O6        1.0  0.29440  0.02300  0.74844  1.0000
  O   O7        1.0  0.90647  0.29112  0.81060  1.0000
  O   O8        1.0  0.09353  0.70889  0.18940  1.0000
  O   O9        1.0  0.79468  0.15587  0.10356  1.0000
  O   O10       1.0  0.20531  0.84413  0.89644  1.0000
  O   O11       1.0  0.51606  0.16810  0.14318  1.0000
  O   O12       1.0  0.48393  0.83190  0.85682  1.0000
  O   O13       1.0  0.49987  0.67548  0.28934  1.0000
  O   O14       1.0  0.50013  0.32452  0.71066  1.0000
  O   O15       1.0  0.37969  0.83224  0.37311  1.0000
  O   O16       1.0  0.62031  0.16776  0.62689  1.0000
  O   O17       1.0  0.18916  0.85841  0.58490  1.0000
  O   O18       1.0  0.81084  0.14159  0.41510  1.0000
