data_image0
_chemical_formula_structural       Sc4H28C36N8O24
_chemical_formula_sum              "Sc4 H28 C36 N8 O24"
_cell_length_a       5.68457
_cell_length_b       7.66836
_cell_length_c       24.4253
_cell_angle_alpha    90.0001
_cell_angle_beta     93.9947
_cell_angle_gamma    89.9997

_space_group_name_H-M_alt    "P 1"
_space_group_IT_number       1

loop_
  _space_group_symop_operation_xyz
  'x, y, z'

loop_
  _atom_site_type_symbol
  _atom_site_label
  _atom_site_symmetry_multiplicity
  _atom_site_fract_x
  _atom_site_fract_y
  _atom_site_fract_z
  _atom_site_occupancy
  Sc  Sc1       1.0  0.76067  0.17334  0.25033  1.0000
  Sc  Sc2       1.0  0.73934  0.67334  0.24967  1.0000
  Sc  Sc3       1.0  0.23934  0.82667  0.74967  1.0000
  Sc  Sc4       1.0  0.26065  0.32667  0.75033  1.0000
  H   H1        1.0  0.51945  0.41211  0.19186  1.0000
  H   H2        1.0  0.98056  0.91211  0.30814  1.0000
  H   H3        1.0  0.48056  0.58789  0.80814  1.0000
  H   H4        1.0  0.01944  0.08789  0.69186  1.0000
  H   H5        1.0  0.29174  0.14488  0.26153  1.0000
  H   H6        1.0  0.20826  0.64488  0.23847  1.0000
  H   H7        1.0  0.70826  0.85513  0.73846  1.0000
  H   H8        1.0  0.79173  0.35511  0.76153  1.0000
  H   H9        1.0  0.40020  0.02695  0.31275  1.0000
  H   H10       1.0  0.09981  0.52696  0.18725  1.0000
  H   H11       1.0  0.59980  0.97305  0.68725  1.0000
  H   H12       1.0  0.90018  0.47305  0.81274  1.0000
  H   H13       1.0  0.95243  0.48784  0.04588  1.0000
  H   H14       1.0  0.54760  0.98784  0.45413  1.0000
  H   H15       1.0  0.04758  0.51215  0.95412  1.0000
  H   H16       1.0  0.45243  0.01216  0.54588  1.0000
  H   H17       1.0  0.32888  0.65609  0.11143  1.0000
  H   H18       1.0  0.17113  0.15608  0.38857  1.0000
  H   H19       1.0  0.67114  0.34391  0.88857  1.0000
  H   H20       1.0  0.82886  0.84391  0.61143  1.0000
  H   H21       1.0  0.78493  0.16773  0.07518  1.0000
  H   H22       1.0  0.71506  0.66773  0.42482  1.0000
  H   H23       1.0  0.21507  0.83227  0.92482  1.0000
  H   H24       1.0  0.28493  0.33227  0.57518  1.0000
  H   H25       1.0  0.60085  0.59867  0.98270  1.0000
  H   H26       1.0  0.89917  0.09868  0.51730  1.0000
  H   H27       1.0  0.39915  0.40132  0.01730  1.0000
  H   H28       1.0  0.10085  0.90133  0.48270  1.0000
  C   C1        1.0  0.10112  0.06968  0.11977  1.0000
  C   C2        1.0  0.39888  0.56967  0.38023  1.0000
  C   C3        1.0  0.89889  0.93033  0.88023  1.0000
  C   C4        1.0  0.60111  0.43033  0.61977  1.0000
  C   C5        1.0  0.25726  0.92542  0.12891  1.0000
  C   C6        1.0  0.24274  0.42541  0.37109  1.0000
  C   C7        1.0  0.74275  0.07458  0.87109  1.0000
  C   C8        1.0  0.75726  0.57458  0.62891  1.0000
  C   C9        1.0  0.20982  0.76538  0.10352  1.0000
  C   C10       1.0  0.29018  0.26537  0.39648  1.0000
  C   C11       1.0  0.79018  0.23462  0.89647  1.0000
  C   C12       1.0  0.70982  0.73462  0.60352  1.0000
  C   C13       1.0  0.00625  0.75312  0.06934  1.0000
  C   C14       1.0  0.49375  0.25311  0.43066  1.0000
  C   C15       1.0  0.99375  0.24688  0.93066  1.0000
  C   C16       1.0  0.50625  0.74688  0.56934  1.0000
  C   C17       1.0  0.85847  0.89831  0.05574  1.0000
  C   C18       1.0  0.64153  0.39831  0.44426  1.0000
  C   C19       1.0  0.14152  0.10169  0.94426  1.0000
  C   C20       1.0  0.35846  0.60169  0.55574  1.0000
  C   C21       1.0  0.90691  0.05892  0.08178  1.0000
  C   C22       1.0  0.59309  0.55892  0.41822  1.0000
  C   C23       1.0  0.09309  0.94108  0.91822  1.0000
  C   C24       1.0  0.40690  0.44108  0.58178  1.0000
  C   C25       1.0  0.70875  0.68010  0.01084  1.0000
  C   C26       1.0  0.79126  0.18012  0.48916  1.0000
  C   C27       1.0  0.29125  0.31989  0.98917  1.0000
  C   C28       1.0  0.20875  0.81990  0.51083  1.0000
  C   C29       1.0  0.11601  0.22575  0.15710  1.0000
  C   C30       1.0  0.38400  0.72574  0.34290  1.0000
  C   C31       1.0  0.88399  0.77425  0.84290  1.0000
  C   C32       1.0  0.61600  0.27426  0.65710  1.0000
  C   C33       1.0  0.47480  0.93735  0.16540  1.0000
  C   C34       1.0  0.02520  0.43734  0.33460  1.0000
  C   C35       1.0  0.52521  0.06265  0.83460  1.0000
  C   C36       1.0  0.97478  0.56266  0.66540  1.0000
  N   N1        1.0  0.67589  0.84807  0.01844  1.0000
  N   N2        1.0  0.82411  0.34808  0.48156  1.0000
  N   N3        1.0  0.32411  0.15192  0.98157  1.0000
  N   N4        1.0  0.17588  0.65193  0.51844  1.0000
  N   N5        1.0  0.90410  0.61467  0.04057  1.0000
  N   N6        1.0  0.59592  0.11466  0.45943  1.0000
  N   N7        1.0  0.09591  0.38533  0.95943  1.0000
  N   N8        1.0  0.40410  0.88533  0.54058  1.0000
  O   O1        1.0  0.55683  0.08736  0.17875  1.0000
  O   O2        1.0  0.94317  0.58736  0.32125  1.0000
  O   O3        1.0  0.44318  0.91264  0.82124  1.0000
  O   O4        1.0  0.05683  0.41264  0.67875  1.0000
  O   O5        1.0  0.15416  0.37620  0.13942  1.0000
  O   O6        1.0  0.34588  0.87619  0.36058  1.0000
  O   O7        1.0  0.84585  0.62380  0.86057  1.0000
  O   O8        1.0  0.65411  0.12380  0.63942  1.0000
  O   O9        1.0  0.64009  0.42196  0.22213  1.0000
  O   O10       1.0  0.85992  0.92196  0.27787  1.0000
  O   O11       1.0  0.35991  0.57805  0.77787  1.0000
  O   O12       1.0  0.14008  0.07804  0.72213  1.0000
  O   O13       1.0  0.43308  0.12404  0.28654  1.0000
  O   O14       1.0  0.06693  0.62405  0.21346  1.0000
  O   O15       1.0  0.56692  0.87596  0.71346  1.0000
  O   O16       1.0  0.93306  0.37595  0.78654  1.0000
  O   O17       1.0  0.57423  0.79480  0.18196  1.0000
  O   O18       1.0  0.92577  0.29479  0.31804  1.0000
  O   O19       1.0  0.42577  0.20521  0.81804  1.0000
  O   O20       1.0  0.07422  0.70521  0.68196  1.0000
  O   O21       1.0  0.07135  0.19509  0.20774  1.0000
  O   O22       1.0  0.42865  0.69507  0.29226  1.0000
  O   O23       1.0  0.92866  0.80493  0.79226  1.0000
  O   O24       1.0  0.57133  0.30492  0.70774  1.0000
