data_image0
_chemical_formula_structural       Cu2H12C10N16
_chemical_formula_sum              "Cu2 H12 C10 N16"
_cell_length_a       5.15359
_cell_length_b       9.01292
_cell_length_c       10.0985
_cell_angle_alpha    105.505
_cell_angle_beta     90.1285
_cell_angle_gamma    100.555

_space_group_name_H-M_alt    "P 1"
_space_group_IT_number       1

loop_
  _space_group_symop_operation_xyz
  'x, y, z'

loop_
  _atom_site_type_symbol
  _atom_site_label
  _atom_site_symmetry_multiplicity
  _atom_site_fract_x
  _atom_site_fract_y
  _atom_site_fract_z
  _atom_site_occupancy
  Cu  Cu1       1.0  0.61477  0.84968  0.51143  1.0000
  Cu  Cu2       1.0  0.38524  0.15032  0.48858  1.0000
  H   H1        1.0  0.59465  0.43341  0.91061  1.0000
  H   H2        1.0  0.40536  0.56659  0.08939  1.0000
  H   H3        1.0  0.38489  0.40969  0.77047  1.0000
  H   H4        1.0  0.61511  0.59031  0.22954  1.0000
  H   H5        1.0  0.42034  0.59676  0.63623  1.0000
  H   H6        1.0  0.57966  0.40323  0.36377  1.0000
  H   H7        1.0  0.96577  0.66667  0.98436  1.0000
  H   H8        1.0  0.03424  0.33333  0.01564  1.0000
  H   H9        1.0  0.20888  0.90278  0.92488  1.0000
  H   H10       1.0  0.79112  0.09723  0.07511  1.0000
  H   H11       1.0  0.04083  0.97900  0.72211  1.0000
  H   H12       1.0  0.95916  0.02100  0.27788  1.0000
  C   C1        1.0  0.59317  0.66110  0.70337  1.0000
  C   C2        1.0  0.40683  0.33890  0.29662  1.0000
  C   C3        1.0  0.66852  0.61138  0.81635  1.0000
  C   C4        1.0  0.33147  0.38862  0.18365  1.0000
  C   C5        1.0  0.89730  0.70026  0.89622  1.0000
  C   C6        1.0  0.10270  0.29975  0.10377  1.0000
  C   C7        1.0  0.03345  0.83230  0.86319  1.0000
  C   C8        1.0  0.96655  0.16771  0.13680  1.0000
  C   C9        1.0  0.94384  0.87562  0.75135  1.0000
  C   C10       1.0  0.05615  0.12438  0.24864  1.0000
  N   N1        1.0  0.49833  0.95236  0.37025  1.0000
  N   N2        1.0  0.50168  0.04762  0.62975  1.0000
  N   N3        1.0  0.47163  0.89775  0.24645  1.0000
  N   N4        1.0  0.52838  0.10224  0.75355  1.0000
  N   N5        1.0  0.44876  0.84606  0.12763  1.0000
  N   N6        1.0  0.55123  0.15395  0.87237  1.0000
  N   N7        1.0  0.23268  0.66963  0.46413  1.0000
  N   N8        1.0  0.76732  0.33037  0.53587  1.0000
  N   N9        1.0  0.04290  0.70299  0.42479  1.0000
  N   N10       1.0  0.95710  0.29701  0.57521  1.0000
  N   N11       1.0  0.85212  0.73758  0.38145  1.0000
  N   N12       1.0  0.14787  0.26243  0.61856  1.0000
  N   N13       1.0  0.72766  0.78884  0.67345  1.0000
  N   N14       1.0  0.27234  0.21116  0.32654  1.0000
  N   N15       1.0  0.51608  0.48455  0.84595  1.0000
  N   N16       1.0  0.48392  0.51545  0.15406  1.0000
