data_image0
_chemical_formula_structural       Ag4H52C52N16O16
_chemical_formula_sum              "Ag4 H52 C52 N16 O16"
_cell_length_a       7.01639
_cell_length_b       8.58328
_cell_length_c       22.61
_cell_angle_alpha    90
_cell_angle_beta     94.1652
_cell_angle_gamma    90

_space_group_name_H-M_alt    "P 1"
_space_group_IT_number       1

loop_
  _space_group_symop_operation_xyz
  'x, y, z'

loop_
  _atom_site_type_symbol
  _atom_site_label
  _atom_site_symmetry_multiplicity
  _atom_site_fract_x
  _atom_site_fract_y
  _atom_site_fract_z
  _atom_site_occupancy
  Ag  Ag1       1.0  0.43211  0.52845  0.30159  1.0000
  Ag  Ag2       1.0  0.56788  0.02845  0.19841  1.0000
  Ag  Ag3       1.0  0.56789  0.47155  0.69841  1.0000
  Ag  Ag4       1.0  0.43211  0.97155  0.80159  1.0000
  H   H1        1.0  0.12925  0.46871  0.74197  1.0000
  H   H2        1.0  0.87075  0.96871  0.75803  1.0000
  H   H3        1.0  0.87074  0.53129  0.25803  1.0000
  H   H4        1.0  0.12925  0.03129  0.24197  1.0000
  H   H5        1.0  0.40440  0.48686  0.43303  1.0000
  H   H6        1.0  0.59560  0.98687  0.06697  1.0000
  H   H7        1.0  0.59560  0.51313  0.56697  1.0000
  H   H8        1.0  0.40440  0.01313  0.93303  1.0000
  H   H9        1.0  0.37499  0.64628  0.52344  1.0000
  H   H10       1.0  0.62500  0.14628  0.97656  1.0000
  H   H11       1.0  0.62501  0.35372  0.47656  1.0000
  H   H12       1.0  0.37500  0.85372  0.02344  1.0000
  H   H13       1.0  0.12003  0.40306  0.52374  1.0000
  H   H14       1.0  0.87997  0.90306  0.97626  1.0000
  H   H15       1.0  0.87997  0.59694  0.47626  1.0000
  H   H16       1.0  0.12003  0.09694  0.02374  1.0000
  H   H17       1.0  0.22600  0.21795  0.69999  1.0000
  H   H18       1.0  0.77400  0.71795  0.80001  1.0000
  H   H19       1.0  0.77400  0.78204  0.30001  1.0000
  H   H20       1.0  0.22600  0.28205  0.19999  1.0000
  H   H21       1.0  0.26434  0.86222  0.32347  1.0000
  H   H22       1.0  0.73566  0.36223  0.17653  1.0000
  H   H23       1.0  0.73566  0.13777  0.67653  1.0000
  H   H24       1.0  0.26434  0.63778  0.82347  1.0000
  H   H25       1.0  0.22173  0.03682  0.40926  1.0000
  H   H26       1.0  0.77827  0.53683  0.09074  1.0000
  H   H27       1.0  0.77827  0.96317  0.59074  1.0000
  H   H28       1.0  0.22173  0.46318  0.90926  1.0000
  H   H29       1.0  0.01990  0.65298  0.56612  1.0000
  H   H30       1.0  0.98011  0.15298  0.93388  1.0000
  H   H31       1.0  0.98011  0.34702  0.43388  1.0000
  H   H32       1.0  0.01989  0.84702  0.06612  1.0000
  H   H33       1.0  0.84165  0.72783  0.68521  1.0000
  H   H34       1.0  0.15835  0.22783  0.81479  1.0000
  H   H35       1.0  0.15835  0.27217  0.31479  1.0000
  H   H36       1.0  0.84165  0.77217  0.18521  1.0000
  H   H37       1.0  0.02937  0.83025  0.65426  1.0000
  H   H38       1.0  0.97063  0.33025  0.84574  1.0000
  H   H39       1.0  0.97063  0.16975  0.34574  1.0000
  H   H40       1.0  0.02937  0.66975  0.15426  1.0000
  H   H41       1.0  0.06302  0.75147  0.72717  1.0000
  H   H42       1.0  0.93697  0.25147  0.77283  1.0000
  H   H43       1.0  0.93697  0.24853  0.27283  1.0000
  H   H44       1.0  0.06302  0.74853  0.22717  1.0000
  H   H45       1.0  0.29457  0.07338  0.62044  1.0000
  H   H46       1.0  0.70543  0.57338  0.87956  1.0000
  H   H47       1.0  0.70543  0.92662  0.37956  1.0000
  H   H48       1.0  0.29457  0.42662  0.12044  1.0000
  H   H49       1.0  0.34333  0.88684  0.56385  1.0000
  H   H50       1.0  0.65667  0.38684  0.93615  1.0000
  H   H51       1.0  0.65667  0.11316  0.43615  1.0000
  H   H52       1.0  0.34333  0.61316  0.06385  1.0000
  C   C1        1.0  0.12734  0.45567  0.69389  1.0000
  C   C2        1.0  0.87266  0.95567  0.80611  1.0000
  C   C3        1.0  0.87266  0.54432  0.30611  1.0000
  C   C4        1.0  0.12734  0.04433  0.19389  1.0000
  C   C5        1.0  0.22075  0.09338  0.53060  1.0000
  C   C6        1.0  0.77925  0.59338  0.96940  1.0000
  C   C7        1.0  0.77926  0.90663  0.46940  1.0000
  C   C8        1.0  0.22075  0.40663  0.03060  1.0000
  C   C9        1.0  0.36806  0.61001  0.42960  1.0000
  C   C10       1.0  0.63194  0.11002  0.07040  1.0000
  C   C11       1.0  0.63195  0.38999  0.57040  1.0000
  C   C12       1.0  0.36806  0.88999  0.92960  1.0000
  C   C13       1.0  0.35143  0.69913  0.47978  1.0000
  C   C14       1.0  0.64858  0.19914  0.02022  1.0000
  C   C15       1.0  0.64858  0.30087  0.52022  1.0000
  C   C16       1.0  0.35143  0.80087  0.97978  1.0000
  C   C17       1.0  0.12126  0.41717  0.57141  1.0000
  C   C18       1.0  0.87874  0.91717  0.92859  1.0000
  C   C19       1.0  0.87874  0.58283  0.42859  1.0000
  C   C20       1.0  0.12126  0.08283  0.07141  1.0000
  C   C21       1.0  0.18179  0.31351  0.67038  1.0000
  C   C22       1.0  0.81821  0.81351  0.82962  1.0000
  C   C23       1.0  0.81821  0.68649  0.32962  1.0000
  C   C24       1.0  0.18179  0.18649  0.17038  1.0000
  C   C25       1.0  0.28617  0.81810  0.36866  1.0000
  C   C26       1.0  0.71383  0.31810  0.13134  1.0000
  C   C27       1.0  0.71383  0.18190  0.63134  1.0000
  C   C28       1.0  0.28617  0.68190  0.86866  1.0000
  C   C29       1.0  0.17784  0.29197  0.60859  1.0000
  C   C30       1.0  0.82216  0.79197  0.89141  1.0000
  C   C31       1.0  0.82216  0.70803  0.39141  1.0000
  C   C32       1.0  0.17784  0.20803  0.10859  1.0000
  C   C33       1.0  0.26321  0.91624  0.41637  1.0000
  C   C34       1.0  0.73679  0.41624  0.08363  1.0000
  C   C35       1.0  0.73679  0.08376  0.58363  1.0000
  C   C36       1.0  0.26321  0.58376  0.91637  1.0000
  C   C37       1.0  0.29954  0.85738  0.47431  1.0000
  C   C38       1.0  0.70046  0.35738  0.02569  1.0000
  C   C39       1.0  0.70046  0.14262  0.52569  1.0000
  C   C40       1.0  0.29954  0.64262  0.97431  1.0000
  C   C41       1.0  0.06589  0.58005  0.65707  1.0000
  C   C42       1.0  0.93411  0.08005  0.84293  1.0000
  C   C43       1.0  0.93411  0.41995  0.34293  1.0000
  C   C44       1.0  0.06589  0.91995  0.15707  1.0000
  C   C45       1.0  0.06592  0.55781  0.59579  1.0000
  C   C46       1.0  0.93408  0.05781  0.90421  1.0000
  C   C47       1.0  0.93408  0.44219  0.40421  1.0000
  C   C48       1.0  0.06592  0.94219  0.09579  1.0000
  C   C49       1.0  0.99780  0.73037  0.68230  1.0000
  C   C50       1.0  0.00220  0.23037  0.81770  1.0000
  C   C51       1.0  0.00220  0.26963  0.31770  1.0000
  C   C52       1.0  0.99780  0.76963  0.18230  1.0000
  N   N1        1.0  0.29218  0.94281  0.52574  1.0000
  N   N2        1.0  0.70782  0.44281  0.97426  1.0000
  N   N3        1.0  0.70783  0.05719  0.47426  1.0000
  N   N4        1.0  0.29217  0.55719  0.02574  1.0000
  N   N5        1.0  0.23536  0.14634  0.58816  1.0000
  N   N6        1.0  0.76463  0.64634  0.91184  1.0000
  N   N7        1.0  0.76464  0.85366  0.41184  1.0000
  N   N8        1.0  0.23537  0.35366  0.08816  1.0000
  N   N9        1.0  0.33922  0.66742  0.37403  1.0000
  N   N10       1.0  0.66078  0.16743  0.12597  1.0000
  N   N11       1.0  0.66078  0.33257  0.62597  1.0000
  N   N12       1.0  0.33922  0.83258  0.87403  1.0000
  N   N13       1.0  0.45044  0.68482  0.17940  1.0000
  N   N14       1.0  0.54956  0.18482  0.32060  1.0000
  N   N15       1.0  0.54956  0.31518  0.82060  1.0000
  N   N16       1.0  0.45044  0.81518  0.67940  1.0000
  O   O1        1.0  0.39763  0.54586  0.18964  1.0000
  O   O2        1.0  0.60237  0.04586  0.31036  1.0000
  O   O3        1.0  0.60237  0.45414  0.81036  1.0000
  O   O4        1.0  0.39763  0.95414  0.68964  1.0000
  O   O5        1.0  0.46403  0.73216  0.12734  1.0000
  O   O6        1.0  0.53596  0.23216  0.37266  1.0000
  O   O7        1.0  0.53596  0.26784  0.87266  1.0000
  O   O8        1.0  0.46404  0.76784  0.62734  1.0000
  O   O9        1.0  0.15217  0.16855  0.48748  1.0000
  O   O10       1.0  0.84782  0.66855  0.01252  1.0000
  O   O11       1.0  0.84783  0.83145  0.51252  1.0000
  O   O12       1.0  0.15217  0.33145  0.98748  1.0000
  O   O13       1.0  0.49022  0.77454  0.22379  1.0000
  O   O14       1.0  0.50978  0.27454  0.27621  1.0000
  O   O15       1.0  0.50978  0.22546  0.77621  1.0000
  O   O16       1.0  0.49022  0.72546  0.72379  1.0000
