data_image0
_chemical_formula_structural       Zn8H52C28S8N8O32
_chemical_formula_sum              "Zn8 H52 C28 S8 N8 O32"
_cell_length_a       7.939
_cell_length_b       8.60455
_cell_length_c       23.503
_cell_angle_alpha    90
_cell_angle_beta     90
_cell_angle_gamma    113.833

_space_group_name_H-M_alt    "P 1"
_space_group_IT_number       1

loop_
  _space_group_symop_operation_xyz
  'x, y, z'

loop_
  _atom_site_type_symbol
  _atom_site_label
  _atom_site_symmetry_multiplicity
  _atom_site_fract_x
  _atom_site_fract_y
  _atom_site_fract_z
  _atom_site_occupancy
  Zn  Zn1       1.0  0.87564  0.34140  0.10367  1.0000
  Zn  Zn2       1.0  0.62436  0.65861  0.60367  1.0000
  Zn  Zn3       1.0  0.12436  0.65861  0.89633  1.0000
  Zn  Zn4       1.0  0.37564  0.34140  0.39633  1.0000
  Zn  Zn5       1.0  0.52034  0.51734  0.24287  1.0000
  Zn  Zn6       1.0  0.97966  0.48266  0.74287  1.0000
  Zn  Zn7       1.0  0.47966  0.48265  0.75713  1.0000
  Zn  Zn8       1.0  0.02034  0.51734  0.25713  1.0000
  H   H1        1.0  0.23298  0.73167  0.14196  1.0000
  H   H2        1.0  0.26702  0.26833  0.64196  1.0000
  H   H3        1.0  0.76702  0.26833  0.85804  1.0000
  H   H4        1.0  0.73298  0.73168  0.35804  1.0000
  H   H5        1.0  0.41025  0.73803  0.05941  1.0000
  H   H6        1.0  0.08975  0.26197  0.55941  1.0000
  H   H7        1.0  0.58975  0.26197  0.94059  1.0000
  H   H8        1.0  0.91025  0.73803  0.44059  1.0000
  H   H9        1.0  0.51534  0.70223  0.12250  1.0000
  H   H10       1.0  0.98466  0.29777  0.62250  1.0000
  H   H11       1.0  0.48466  0.29777  0.87750  1.0000
  H   H12       1.0  0.01534  0.70223  0.37750  1.0000
  H   H13       1.0  0.19543  0.98634  0.12987  1.0000
  H   H14       1.0  0.30457  0.01366  0.62987  1.0000
  H   H15       1.0  0.80457  0.01366  0.87013  1.0000
  H   H16       1.0  0.69543  0.98634  0.37013  1.0000
  H   H17       1.0  0.23373  0.90520  0.06344  1.0000
  H   H18       1.0  0.26627  0.09480  0.56344  1.0000
  H   H19       1.0  0.76627  0.09480  0.93656  1.0000
  H   H20       1.0  0.73373  0.90520  0.43656  1.0000
  H   H21       1.0  0.78011  0.95137  0.10308  1.0000
  H   H22       1.0  0.71989  0.04863  0.60308  1.0000
  H   H23       1.0  0.21989  0.04863  0.89692  1.0000
  H   H24       1.0  0.28011  0.95137  0.39692  1.0000
  H   H25       1.0  0.67314  0.99141  0.04166  1.0000
  H   H26       1.0  0.82686  0.00859  0.54166  1.0000
  H   H27       1.0  0.32686  0.00859  0.95834  1.0000
  H   H28       1.0  0.17314  0.99141  0.45834  1.0000
  H   H29       1.0  0.60922  0.18153  0.19956  1.0000
  H   H30       1.0  0.89078  0.81847  0.69956  1.0000
  H   H31       1.0  0.39078  0.81847  0.80044  1.0000
  H   H32       1.0  0.10922  0.18153  0.30044  1.0000
  H   H33       1.0  0.73635  0.05343  0.19361  1.0000
  H   H34       1.0  0.76365  0.94658  0.69361  1.0000
  H   H35       1.0  0.26365  0.94657  0.80639  1.0000
  H   H36       1.0  0.23635  0.05343  0.30639  1.0000
  H   H37       1.0  0.49611  0.16245  0.04959  1.0000
  H   H38       1.0  0.00389  0.83755  0.54959  1.0000
  H   H39       1.0  0.50389  0.83755  0.95041  1.0000
  H   H40       1.0  0.99611  0.16245  0.45041  1.0000
  H   H41       1.0  0.46363  0.23656  0.11744  1.0000
  H   H42       1.0  0.03637  0.76344  0.61744  1.0000
  H   H43       1.0  0.53637  0.76344  0.88256  1.0000
  H   H44       1.0  0.96363  0.23656  0.38256  1.0000
  H   H45       1.0  0.46406  0.81292  0.21277  1.0000
  H   H46       1.0  0.03594  0.18708  0.71277  1.0000
  H   H47       1.0  0.53594  0.18708  0.78723  1.0000
  H   H48       1.0  0.96406  0.81292  0.28723  1.0000
  H   H49       1.0  0.33506  0.93999  0.21404  1.0000
  H   H50       1.0  0.16494  0.06001  0.71404  1.0000
  H   H51       1.0  0.66494  0.06001  0.78596  1.0000
  H   H52       1.0  0.83506  0.93999  0.28596  1.0000
  C   C1        1.0  0.07199  0.57838  0.01528  1.0000
  C   C2        1.0  0.42801  0.42162  0.51528  1.0000
  C   C3        1.0  0.92801  0.42162  0.98472  1.0000
  C   C4        1.0  0.57199  0.57838  0.48472  1.0000
  C   C5        1.0  0.48359  0.79595  0.09847  1.0000
  C   C6        1.0  0.01641  0.20405  0.59847  1.0000
  C   C7        1.0  0.51641  0.20405  0.90153  1.0000
  C   C8        1.0  0.98359  0.79595  0.40153  1.0000
  C   C9        1.0  0.29785  0.96506  0.10348  1.0000
  C   C10       1.0  0.20215  0.03494  0.60349  1.0000
  C   C11       1.0  0.70215  0.03494  0.89651  1.0000
  C   C12       1.0  0.79785  0.96506  0.39651  1.0000
  C   C13       1.0  0.65507  0.96150  0.08718  1.0000
  C   C14       1.0  0.84493  0.03850  0.58718  1.0000
  C   C15       1.0  0.34493  0.03850  0.91282  1.0000
  C   C16       1.0  0.15507  0.96150  0.41282  1.0000
  C   C17       1.0  0.61456  0.07040  0.17845  1.0000
  C   C18       1.0  0.88544  0.92960  0.67845  1.0000
  C   C19       1.0  0.38544  0.92960  0.82155  1.0000
  C   C20       1.0  0.11456  0.07040  0.32155  1.0000
  C   C21       1.0  0.47283  0.12898  0.09478  1.0000
  C   C22       1.0  0.02717  0.87102  0.59478  1.0000
  C   C23       1.0  0.52717  0.87102  0.90522  1.0000
  C   C24       1.0  0.97283  0.12898  0.40522  1.0000
  C   C25       1.0  0.43768  0.91173  0.19014  1.0000
  C   C26       1.0  0.06233  0.08827  0.69014  1.0000
  C   C27       1.0  0.56233  0.08827  0.80986  1.0000
  C   C28       1.0  0.93767  0.91173  0.30986  1.0000
  S   S1        1.0  0.84987  0.66035  0.15791  1.0000
  S   S2        1.0  0.65013  0.33965  0.65791  1.0000
  S   S3        1.0  0.15013  0.33965  0.84209  1.0000
  S   S4        1.0  0.34987  0.66035  0.34209  1.0000
  S   S5        1.0  0.15372  0.28370  0.18810  1.0000
  S   S6        1.0  0.34628  0.71630  0.68810  1.0000
  S   S7        1.0  0.84628  0.71630  0.81190  1.0000
  S   S8        1.0  0.65372  0.28370  0.31190  1.0000
  N   N1        1.0  0.35205  0.83943  0.13407  1.0000
  N   N2        1.0  0.14795  0.16057  0.63407  1.0000
  N   N3        1.0  0.64795  0.16057  0.86593  1.0000
  N   N4        1.0  0.85205  0.83943  0.36593  1.0000
  N   N5        1.0  0.63782  0.10713  0.11650  1.0000
  N   N6        1.0  0.86218  0.89287  0.61650  1.0000
  N   N7        1.0  0.36218  0.89287  0.88350  1.0000
  N   N8        1.0  0.13782  0.10713  0.38350  1.0000
  O   O1        1.0  0.06590  0.26092  0.12865  1.0000
  O   O2        1.0  0.43409  0.73908  0.62865  1.0000
  O   O3        1.0  0.93409  0.73908  0.87135  1.0000
  O   O4        1.0  0.56591  0.26092  0.37135  1.0000
  O   O5        1.0  0.74846  0.46830  0.14478  1.0000
  O   O6        1.0  0.75153  0.53170  0.64478  1.0000
  O   O7        1.0  0.25154  0.53170  0.85522  1.0000
  O   O8        1.0  0.24847  0.46830  0.35522  1.0000
  O   O9        1.0  0.07598  0.57400  0.06892  1.0000
  O   O10       1.0  0.42402  0.42600  0.56892  1.0000
  O   O11       1.0  0.92402  0.42600  0.93108  1.0000
  O   O12       1.0  0.57598  0.57400  0.43108  1.0000
  O   O13       1.0  0.71818  0.69504  0.19903  1.0000
  O   O14       1.0  0.78182  0.30496  0.69903  1.0000
  O   O15       1.0  0.28181  0.30496  0.80097  1.0000
  O   O16       1.0  0.21818  0.69504  0.30097  1.0000
  O   O17       1.0  0.30961  0.46586  0.18863  1.0000
  O   O18       1.0  0.19039  0.53414  0.68863  1.0000
  O   O19       1.0  0.69039  0.53414  0.81137  1.0000
  O   O20       1.0  0.80961  0.46586  0.31137  1.0000
  O   O21       1.0  0.02001  0.67506  0.19391  1.0000
  O   O22       1.0  0.47999  0.32493  0.69391  1.0000
  O   O23       1.0  0.97999  0.32494  0.80609  1.0000
  O   O24       1.0  0.52001  0.67507  0.30609  1.0000
  O   O25       1.0  0.00739  0.29703  0.22964  1.0000
  O   O26       1.0  0.49261  0.70297  0.72964  1.0000
  O   O27       1.0  0.99261  0.70298  0.77036  1.0000
  O   O28       1.0  0.50739  0.29703  0.27036  1.0000
  O   O29       1.0  0.17647  0.70016  0.98424  1.0000
  O   O30       1.0  0.32353  0.29984  0.48424  1.0000
  O   O31       1.0  0.82353  0.29984  0.01576  1.0000
  O   O32       1.0  0.67647  0.70017  0.51576  1.0000
