data_image0
_chemical_formula_structural       H31PbC29N5O7
_chemical_formula_sum              "H31 Pb1 C29 N5 O7"
_cell_length_a       4.62638
_cell_length_b       12.0373
_cell_length_c       15.2008
_cell_angle_alpha    71.8042
_cell_angle_beta     86.882
_cell_angle_gamma    88.8172

_space_group_name_H-M_alt    "P 1"
_space_group_IT_number       1

loop_
  _space_group_symop_operation_xyz
  'x, y, z'

loop_
  _atom_site_type_symbol
  _atom_site_label
  _atom_site_symmetry_multiplicity
  _atom_site_fract_x
  _atom_site_fract_y
  _atom_site_fract_z
  _atom_site_occupancy
  H   H1        1.0  0.92959  0.39990  0.32097  1.0000
  H   H2        1.0  0.91798  0.22470  0.40855  1.0000
  H   H3        1.0  0.78204  0.78637  0.66209  1.0000
  H   H4        1.0  0.75842  0.60554  0.74464  1.0000
  H   H5        1.0  0.26311  0.51372  0.47477  1.0000
  H   H6        1.0  0.88880  0.60490  0.55471  1.0000
  H   H7        1.0  0.64026  0.78811  0.46607  1.0000
  H   H8        1.0  0.77458  0.88183  0.29924  1.0000
  H   H9        1.0  0.15202  0.79093  0.22010  1.0000
  H   H10       1.0  0.60922  0.53945  0.34033  1.0000
  H   H11       1.0  0.56345  0.65352  0.23576  1.0000
  H   H12       1.0  0.12304  0.55301  0.20787  1.0000
  H   H13       1.0  0.98074  0.00818  0.42457  1.0000
  H   H14       1.0  0.16335  0.82091  0.52703  1.0000
  H   H15       1.0  0.72222  0.00825  0.64899  1.0000
  H   H16       1.0  0.53827  0.19535  0.54690  1.0000
  H   H17       1.0  0.18067  0.53996  0.83002  1.0000
  H   H18       1.0  0.12624  0.35451  0.81840  1.0000
  H   H19       1.0  0.17150  0.45442  0.70564  1.0000
  H   H20       1.0  0.59254  0.43871  0.60356  1.0000
  H   H21       1.0  0.97836  0.31033  0.56770  1.0000
  H   H22       1.0  0.12630  0.12998  0.68947  1.0000
  H   H23       1.0  0.88140  0.07810  0.84793  1.0000
  H   H24       1.0  0.49887  0.20788  0.88322  1.0000
  H   H25       1.0  0.05424  0.67933  0.88841  1.0000
  H   H26       1.0  0.16827  0.85613  0.80621  1.0000
  H   H27       1.0  0.52406  0.90026  0.81933  1.0000
  H   H28       1.0  0.22350  0.95308  0.87270  1.0000
  H   H29       1.0  0.40152  0.83982  0.04899  1.0000
  H   H30       1.0  0.71531  0.83022  0.97817  1.0000
  H   H31       1.0  0.55838  0.69947  0.05697  1.0000
  Pb  Pb1       1.0  0.94143  0.39317  0.06102  1.0000
  C   C1        1.0  0.15466  0.59431  0.43630  1.0000
  C   C2        1.0  0.94410  0.64522  0.48099  1.0000
  C   C3        1.0  0.80596  0.74849  0.43169  1.0000
  C   C4        1.0  0.88219  0.80117  0.33790  1.0000
  C   C5        1.0  0.09332  0.74996  0.29367  1.0000
  C   C6        1.0  0.23159  0.64575  0.34196  1.0000
  C   C7        1.0  0.44707  0.58784  0.29265  1.0000
  C   C8        1.0  0.29474  0.50405  0.25160  1.0000
  C   C9        1.0  0.30179  0.31392  0.37080  1.0000
  C   C10       1.0  0.24756  0.11467  0.47849  1.0000
  C   C11       1.0  0.14189  0.00825  0.47431  1.0000
  C   C12       1.0  0.24303  0.90280  0.53248  1.0000
  C   C13       1.0  0.45188  0.90146  0.59622  1.0000
  C   C14       1.0  0.55871  0.00774  0.60011  1.0000
  C   C15       1.0  0.45761  0.11341  0.54185  1.0000
  C   C16       1.0  0.39265  0.70061  0.69995  1.0000
  C   C17       1.0  0.38419  0.50407  0.80891  1.0000
  C   C18       1.0  0.28614  0.40903  0.76833  1.0000
  C   C19       1.0  0.52120  0.33252  0.74615  1.0000
  C   C20       1.0  0.65831  0.36006  0.65751  1.0000
  C   C21       1.0  0.87447  0.28767  0.63716  1.0000
  C   C22       1.0  0.95629  0.18582  0.70543  1.0000
  C   C23       1.0  0.81971  0.15732  0.79383  1.0000
  C   C24       1.0  0.60462  0.22979  0.81410  1.0000
  C   C25       1.0  0.49083  0.45824  0.18550  1.0000
  C   C26       1.0  0.54373  0.45511  0.89830  1.0000
  C   C27       1.0  0.18645  0.67705  0.94729  1.0000
  C   C28       1.0  0.30978  0.87675  0.85456  1.0000
  C   C29       1.0  0.51167  0.78672  0.00980  1.0000
  N   N1        1.0  0.14913  0.40837  0.32128  1.0000
  N   N2        1.0  0.13483  0.22010  0.42098  1.0000
  N   N3        1.0  0.56251  0.79497  0.65375  1.0000
  N   N4        1.0  0.53855  0.60032  0.74233  1.0000
  N   N5        1.0  0.33161  0.77616  0.93721  1.0000
  O   O1        1.0  0.57352  0.31343  0.37017  1.0000
  O   O2        1.0  0.12007  0.70575  0.70486  1.0000
  O   O3        1.0  0.40898  0.37054  0.16382  1.0000
  O   O4        1.0  0.72542  0.51337  0.15184  1.0000
  O   O5        1.0  0.76810  0.50990  0.90820  1.0000
  O   O6        1.0  0.44219  0.36513  0.95958  1.0000
  O   O7        1.0  0.19817  0.58869  0.01723  1.0000
