data_image0
_chemical_formula_structural       Hg4H44C52N8Cl8
_chemical_formula_sum              "Hg4 H44 C52 N8 Cl8"
_cell_length_a       9.61021
_cell_length_b       10.7579
_cell_length_c       13.9104
_cell_angle_alpha    110.421
_cell_angle_beta     90
_cell_angle_gamma    90

_space_group_name_H-M_alt    "P 1"
_space_group_IT_number       1

loop_
  _space_group_symop_operation_xyz
  'x, y, z'

loop_
  _atom_site_type_symbol
  _atom_site_label
  _atom_site_symmetry_multiplicity
  _atom_site_fract_x
  _atom_site_fract_y
  _atom_site_fract_z
  _atom_site_occupancy
  Hg  Hg1       1.0  0.58053  0.68375  0.04541  1.0000
  Hg  Hg2       1.0  0.08053  0.31626  0.45459  1.0000
  Hg  Hg3       1.0  0.41948  0.31626  0.95459  1.0000
  Hg  Hg4       1.0  0.91947  0.68374  0.54541  1.0000
  H   H1        1.0  0.47647  0.57788  0.22343  1.0000
  H   H2        1.0  0.97647  0.42212  0.27657  1.0000
  H   H3        1.0  0.52353  0.42211  0.77657  1.0000
  H   H4        1.0  0.02353  0.57788  0.72343  1.0000
  H   H5        1.0  0.37238  0.66073  0.40122  1.0000
  H   H6        1.0  0.87238  0.33927  0.09878  1.0000
  H   H7        1.0  0.62762  0.33927  0.59878  1.0000
  H   H8        1.0  0.12762  0.66073  0.90122  1.0000
  H   H9        1.0  0.34380  0.90512  0.48962  1.0000
  H   H10       1.0  0.84380  0.09488  0.01038  1.0000
  H   H11       1.0  0.65620  0.09488  0.51038  1.0000
  H   H12       1.0  0.15620  0.90512  0.98962  1.0000
  H   H13       1.0  0.40138  0.05744  0.39444  1.0000
  H   H14       1.0  0.90139  0.94256  0.10556  1.0000
  H   H15       1.0  0.59861  0.94255  0.60556  1.0000
  H   H16       1.0  0.09862  0.05744  0.89444  1.0000
  H   H17       1.0  0.69642  0.12359  0.33523  1.0000
  H   H18       1.0  0.19642  0.87641  0.16477  1.0000
  H   H19       1.0  0.30358  0.87641  0.66477  1.0000
  H   H20       1.0  0.80358  0.12359  0.83523  1.0000
  H   H21       1.0  0.70650  0.36835  0.42331  1.0000
  H   H22       1.0  0.20650  0.63165  0.07669  1.0000
  H   H23       1.0  0.29351  0.63165  0.57669  1.0000
  H   H24       1.0  0.79350  0.36835  0.92331  1.0000
  H   H25       1.0  0.52218  0.51056  0.39574  1.0000
  H   H26       1.0  0.02218  0.48944  0.10426  1.0000
  H   H27       1.0  0.47782  0.48944  0.60426  1.0000
  H   H28       1.0  0.97782  0.51056  0.89574  1.0000
  H   H29       1.0  0.32329  0.40914  0.27539  1.0000
  H   H30       1.0  0.82329  0.59086  0.22461  1.0000
  H   H31       1.0  0.67672  0.59086  0.72461  1.0000
  H   H32       1.0  0.17672  0.40914  0.77539  1.0000
  H   H33       1.0  0.31614  0.16798  0.18452  1.0000
  H   H34       1.0  0.81614  0.83202  0.31548  1.0000
  H   H35       1.0  0.68386  0.83202  0.81548  1.0000
  H   H36       1.0  0.18386  0.16798  0.68452  1.0000
  H   H37       1.0  0.65081  0.95245  0.99214  1.0000
  H   H38       1.0  0.15081  0.04755  0.50786  1.0000
  H   H39       1.0  0.34919  0.04755  0.00786  1.0000
  H   H40       1.0  0.84919  0.95245  0.49214  1.0000
  H   H41       1.0  0.58646  0.10672  0.08080  1.0000
  H   H42       1.0  0.08646  0.89328  0.41920  1.0000
  H   H43       1.0  0.41354  0.89328  0.91920  1.0000
  H   H44       1.0  0.91354  0.10672  0.58080  1.0000
  C   C1        1.0  0.45659  0.68305  0.26427  1.0000
  C   C2        1.0  0.95659  0.31695  0.23573  1.0000
  C   C3        1.0  0.54341  0.31695  0.73573  1.0000
  C   C4        1.0  0.04342  0.68305  0.76427  1.0000
  C   C5        1.0  0.40133  0.72976  0.36328  1.0000
  C   C6        1.0  0.90133  0.27024  0.13672  1.0000
  C   C7        1.0  0.59867  0.27024  0.63672  1.0000
  C   C8        1.0  0.09867  0.72976  0.86328  1.0000
  C   C9        1.0  0.38377  0.86552  0.41156  1.0000
  C   C10       1.0  0.88377  0.13448  0.08844  1.0000
  C   C11       1.0  0.61623  0.13448  0.58844  1.0000
  C   C12       1.0  0.11623  0.86552  0.91156  1.0000
  C   C13       1.0  0.41781  0.95072  0.35916  1.0000
  C   C14       1.0  0.91782  0.04928  0.14084  1.0000
  C   C15       1.0  0.58218  0.04928  0.64084  1.0000
  C   C16       1.0  0.08219  0.95072  0.85916  1.0000
  C   C17       1.0  0.47099  0.89692  0.25946  1.0000
  C   C18       1.0  0.97099  0.10308  0.24054  1.0000
  C   C19       1.0  0.52900  0.10308  0.74054  1.0000
  C   C20       1.0  0.02901  0.89692  0.75946  1.0000
  C   C21       1.0  0.50235  0.98371  0.19898  1.0000
  C   C22       1.0  0.00235  0.01629  0.30102  1.0000
  C   C23       1.0  0.49765  0.01629  0.80102  1.0000
  C   C24       1.0  0.99766  0.98371  0.69898  1.0000
  C   C25       1.0  0.50561  0.12953  0.25432  1.0000
  C   C26       1.0  0.00561  0.87047  0.24568  1.0000
  C   C27       1.0  0.49439  0.87047  0.74569  1.0000
  C   C28       1.0  0.99439  0.12953  0.75432  1.0000
  C   C29       1.0  0.61489  0.18664  0.32229  1.0000
  C   C30       1.0  0.11489  0.81337  0.17772  1.0000
  C   C31       1.0  0.38511  0.81337  0.67772  1.0000
  C   C32       1.0  0.88511  0.18664  0.82229  1.0000
  C   C33       1.0  0.62062  0.32365  0.37150  1.0000
  C   C34       1.0  0.12062  0.67634  0.12850  1.0000
  C   C35       1.0  0.37938  0.67634  0.62850  1.0000
  C   C36       1.0  0.87938  0.32365  0.87150  1.0000
  C   C37       1.0  0.51562  0.40393  0.35542  1.0000
  C   C38       1.0  0.01562  0.59607  0.14458  1.0000
  C   C39       1.0  0.48438  0.59607  0.64458  1.0000
  C   C40       1.0  0.98438  0.40393  0.85542  1.0000
  C   C41       1.0  0.40605  0.34765  0.28866  1.0000
  C   C42       1.0  0.90605  0.65235  0.21134  1.0000
  C   C43       1.0  0.59395  0.65235  0.71134  1.0000
  C   C44       1.0  0.09395  0.34765  0.78866  1.0000
  C   C45       1.0  0.40134  0.21081  0.23759  1.0000
  C   C46       1.0  0.90134  0.78919  0.26241  1.0000
  C   C47       1.0  0.59866  0.78919  0.76241  1.0000
  C   C48       1.0  0.09866  0.21081  0.73758  1.0000
  C   C49       1.0  0.55986  0.00273  0.03718  1.0000
  C   C50       1.0  0.05986  0.99727  0.46282  1.0000
  C   C51       1.0  0.44014  0.99727  0.96282  1.0000
  C   C52       1.0  0.94014  0.00273  0.53718  1.0000
  N   N1        1.0  0.49146  0.76483  0.21463  1.0000
  N   N2        1.0  0.99146  0.23517  0.28537  1.0000
  N   N3        1.0  0.50854  0.23517  0.78537  1.0000
  N   N4        1.0  0.00854  0.76483  0.71463  1.0000
  N   N5        1.0  0.52308  0.92783  0.10194  1.0000
  N   N6        1.0  0.02308  0.07217  0.39806  1.0000
  N   N7        1.0  0.47692  0.07216  0.89806  1.0000
  N   N8        1.0  0.97692  0.92783  0.60194  1.0000
  Cl  Cl1       1.0  0.62017  0.43587  0.07287  1.0000
  Cl  Cl2       1.0  0.12017  0.56413  0.42713  1.0000
  Cl  Cl3       1.0  0.37983  0.56413  0.92713  1.0000
  Cl  Cl4       1.0  0.87983  0.43587  0.57287  1.0000
  Cl  Cl5       1.0  0.79528  0.71937  0.96482  1.0000
  Cl  Cl6       1.0  0.29528  0.28063  0.53518  1.0000
  Cl  Cl7       1.0  0.20472  0.28063  0.03518  1.0000
  Cl  Cl8       1.0  0.70472  0.71937  0.46482  1.0000
