data_image0
_chemical_formula_structural       Hg4H44C52Br8N8
_chemical_formula_sum              "Hg4 H44 C52 Br8 N8"
_cell_length_a       10.4005
_cell_length_b       11.2941
_cell_length_c       13.233
_cell_angle_alpha    72.7726
_cell_angle_beta     74.9338
_cell_angle_gamma    72.9411

_space_group_name_H-M_alt    "P 1"
_space_group_IT_number       1

loop_
  _space_group_symop_operation_xyz
  'x, y, z'

loop_
  _atom_site_type_symbol
  _atom_site_label
  _atom_site_symmetry_multiplicity
  _atom_site_fract_x
  _atom_site_fract_y
  _atom_site_fract_z
  _atom_site_occupancy
  Hg  Hg1       1.0  0.29971  0.28503  0.18366  1.0000
  Hg  Hg2       1.0  0.70029  0.71497  0.81634  1.0000
  Hg  Hg3       1.0  0.16664  0.99398  0.54256  1.0000
  Hg  Hg4       1.0  0.83336  0.00602  0.45744  1.0000
  H   H1        1.0  0.96256  0.30110  0.24596  1.0000
  H   H2        1.0  0.03744  0.69890  0.75404  1.0000
  H   H3        1.0  0.73811  0.44830  0.21307  1.0000
  H   H4        1.0  0.26189  0.55171  0.78692  1.0000
  H   H5        1.0  0.73595  0.67021  0.09356  1.0000
  H   H6        1.0  0.26405  0.32979  0.90644  1.0000
  H   H7        1.0  0.95845  0.73572  0.02258  1.0000
  H   H8        1.0  0.04155  0.26428  0.97741  1.0000
  H   H9        1.0  0.26854  0.71906  0.84881  1.0000
  H   H10       1.0  0.73146  0.28094  0.15119  1.0000
  H   H11       1.0  0.26167  0.94754  0.77729  1.0000
  H   H12       1.0  0.73833  0.05247  0.22271  1.0000
  H   H13       1.0  0.20172  0.09160  0.90245  1.0000
  H   H14       1.0  0.79828  0.90840  0.09755  1.0000
  H   H15       1.0  0.14149  0.00419  0.10062  1.0000
  H   H16       1.0  0.85851  0.99581  0.89938  1.0000
  H   H17       1.0  0.14043  0.77523  0.17268  1.0000
  H   H18       1.0  0.85957  0.22476  0.82733  1.0000
  H   H19       1.0  0.49857  0.49587  0.11684  1.0000
  H   H20       1.0  0.50143  0.50413  0.88316  1.0000
  H   H21       1.0  0.45129  0.63742  0.01622  1.0000
  H   H22       1.0  0.54871  0.36257  0.98378  1.0000
  H   H23       1.0  0.87886  0.19813  0.56000  1.0000
  H   H24       1.0  0.12115  0.80187  0.44000  1.0000
  H   H25       1.0  0.77381  0.41598  0.59323  1.0000
  H   H26       1.0  0.22619  0.58402  0.40677  1.0000
  H   H27       1.0  0.91345  0.52048  0.65220  1.0000
  H   H28       1.0  0.08656  0.47952  0.34780  1.0000
  H   H29       1.0  0.15491  0.40580  0.67086  1.0000
  H   H30       1.0  0.84509  0.59420  0.32914  1.0000
  H   H31       1.0  0.34653  0.41876  0.54224  1.0000
  H   H32       1.0  0.65347  0.58123  0.45776  1.0000
  H   H33       1.0  0.48929  0.50533  0.61247  1.0000
  H   H34       1.0  0.51071  0.49467  0.38753  1.0000
  H   H35       1.0  0.61227  0.36844  0.75957  1.0000
  H   H36       1.0  0.38773  0.63156  0.24043  1.0000
  H   H37       1.0  0.59185  0.14223  0.83671  1.0000
  H   H38       1.0  0.40815  0.85777  0.16329  1.0000
  H   H39       1.0  0.44664  0.05725  0.77009  1.0000
  H   H40       1.0  0.55336  0.94275  0.22991  1.0000
  H   H41       1.0  0.49432  0.91708  0.61487  1.0000
  H   H42       1.0  0.50569  0.08292  0.38513  1.0000
  H   H43       1.0  0.55075  0.06253  0.56687  1.0000
  H   H44       1.0  0.44925  0.93747  0.43312  1.0000
  C   C1        1.0  0.95745  0.39828  0.19640  1.0000
  C   C2        1.0  0.04255  0.60172  0.80359  1.0000
  C   C3        1.0  0.83218  0.48084  0.17669  1.0000
  C   C4        1.0  0.16782  0.51916  0.82330  1.0000
  C   C5        1.0  0.83115  0.60343  0.11264  1.0000
  C   C6        1.0  0.16885  0.39657  0.88736  1.0000
  C   C7        1.0  0.95510  0.64049  0.07286  1.0000
  C   C8        1.0  0.04490  0.35951  0.92713  1.0000
  C   C9        1.0  0.07647  0.55402  0.09805  1.0000
  C   C10       1.0  0.92352  0.44598  0.90195  1.0000
  C   C11       1.0  0.20965  0.59297  0.06063  1.0000
  C   C12       1.0  0.79034  0.40703  0.93937  1.0000
  C   C13       1.0  0.20492  0.73170  0.01588  1.0000
  C   C14       1.0  0.79508  0.26830  0.98412  1.0000
  C   C15       1.0  0.23938  0.78091  0.90456  1.0000
  C   C16       1.0  0.76062  0.21909  0.09544  1.0000
  C   C17       1.0  0.23583  0.91057  0.86415  1.0000
  C   C18       1.0  0.76417  0.08943  0.13585  1.0000
  C   C19       1.0  0.20092  0.99101  0.93420  1.0000
  C   C20       1.0  0.79908  0.00899  0.06580  1.0000
  C   C21       1.0  0.16705  0.94231  0.04523  1.0000
  C   C22       1.0  0.83295  0.05769  0.95477  1.0000
  C   C23       1.0  0.16743  0.81334  0.08598  1.0000
  C   C24       1.0  0.83257  0.18666  0.91402  1.0000
  C   C25       1.0  0.45418  0.53473  0.04321  1.0000
  C   C26       1.0  0.54582  0.46527  0.95679  1.0000
  C   C27       1.0  0.93777  0.24865  0.58227  1.0000
  C   C28       1.0  0.06223  0.75136  0.41773  1.0000
  C   C29       1.0  0.87931  0.36960  0.60181  1.0000
  C   C30       1.0  0.12069  0.63040  0.39818  1.0000
  C   C31       1.0  0.95770  0.42699  0.63448  1.0000
  C   C32       1.0  0.04230  0.57301  0.36552  1.0000
  C   C33       1.0  0.09240  0.36335  0.64422  1.0000
  C   C34       1.0  0.90760  0.63665  0.35578  1.0000
  C   C35       1.0  0.14772  0.24528  0.61743  1.0000
  C   C36       1.0  0.85228  0.75472  0.38257  1.0000
  C   C37       1.0  0.29611  0.17921  0.61402  1.0000
  C   C38       1.0  0.70389  0.82079  0.38598  1.0000
  C   C39       1.0  0.38395  0.23294  0.65258  1.0000
  C   C40       1.0  0.61605  0.76706  0.34743  1.0000
  C   C41       1.0  0.39832  0.35883  0.60803  1.0000
  C   C42       1.0  0.60168  0.64117  0.39197  1.0000
  C   C43       1.0  0.48013  0.40694  0.64661  1.0000
  C   C44       1.0  0.51987  0.59306  0.35339  1.0000
  C   C45       1.0  0.54897  0.32985  0.72955  1.0000
  C   C46       1.0  0.45103  0.67015  0.27045  1.0000
  C   C47       1.0  0.53767  0.20383  0.77280  1.0000
  C   C48       1.0  0.46234  0.79617  0.22720  1.0000
  C   C49       1.0  0.45564  0.15549  0.73453  1.0000
  C   C50       1.0  0.54436  0.84451  0.26548  1.0000
  C   C51       1.0  0.48136  0.01110  0.55731  1.0000
  C   C52       1.0  0.51864  0.98890  0.44269  1.0000
  Br  Br1       1.0  0.39432  0.13838  0.05707  1.0000
  Br  Br2       1.0  0.60568  0.86162  0.94292  1.0000
  Br  Br3       1.0  0.35955  0.33378  0.34043  1.0000
  Br  Br4       1.0  0.64045  0.66622  0.65957  1.0000
  Br  Br5       1.0  0.12005  0.06657  0.33826  1.0000
  Br  Br6       1.0  0.87995  0.93345  0.66174  1.0000
  Br  Br7       1.0  0.28220  0.75564  0.59153  1.0000
  Br  Br8       1.0  0.71780  0.24436  0.40846  1.0000
  N   N1        1.0  0.32061  0.50610  0.07087  1.0000
  N   N2        1.0  0.67939  0.49389  0.92913  1.0000
  N   N3        1.0  0.07609  0.43409  0.15786  1.0000
  N   N4        1.0  0.92390  0.56592  0.84214  1.0000
  N   N5        1.0  0.06795  0.18958  0.58956  1.0000
  N   N6        1.0  0.93205  0.81042  0.41044  1.0000
  N   N7        1.0  0.33961  0.07853  0.57677  1.0000
  N   N8        1.0  0.66039  0.92147  0.42323  1.0000
