data_image0
_chemical_formula_structural       Ag4H44C52Se4N16O12
_chemical_formula_sum              "Ag4 H44 C52 Se4 N16 O12"
_cell_length_a       9.11602
_cell_length_b       10.6601
_cell_length_c       14.795
_cell_angle_alpha    91.2632
_cell_angle_beta     90
_cell_angle_gamma    90

_space_group_name_H-M_alt    "P 1"
_space_group_IT_number       1

loop_
  _space_group_symop_operation_xyz
  'x, y, z'

loop_
  _atom_site_type_symbol
  _atom_site_label
  _atom_site_symmetry_multiplicity
  _atom_site_fract_x
  _atom_site_fract_y
  _atom_site_fract_z
  _atom_site_occupancy
  Ag  Ag1       1.0  0.12752  0.86297  0.77370  1.0000
  Ag  Ag2       1.0  0.62752  0.63703  0.72630  1.0000
  Ag  Ag3       1.0  0.87248  0.13703  0.22630  1.0000
  Ag  Ag4       1.0  0.37248  0.36296  0.27370  1.0000
  H   H1        1.0  0.29492  0.97802  0.91844  1.0000
  H   H2        1.0  0.79492  0.52198  0.58156  1.0000
  H   H3        1.0  0.70508  0.02198  0.08156  1.0000
  H   H4        1.0  0.20509  0.47802  0.41844  1.0000
  H   H5        1.0  0.15269  0.95463  0.24237  1.0000
  H   H6        1.0  0.65268  0.54538  0.25763  1.0000
  H   H7        1.0  0.84732  0.04538  0.75763  1.0000
  H   H8        1.0  0.34732  0.45463  0.74237  1.0000
  H   H9        1.0  0.36612  0.08296  0.19857  1.0000
  H   H10       1.0  0.86612  0.41704  0.30143  1.0000
  H   H11       1.0  0.63388  0.91704  0.80143  1.0000
  H   H12       1.0  0.13388  0.58296  0.69857  1.0000
  H   H13       1.0  0.12227  0.61640  0.02057  1.0000
  H   H14       1.0  0.62227  0.88359  0.47943  1.0000
  H   H15       1.0  0.87773  0.38359  0.97943  1.0000
  H   H16       1.0  0.37773  0.11640  0.52057  1.0000
  H   H17       1.0  0.09336  0.57002  0.90321  1.0000
  H   H18       1.0  0.59337  0.92998  0.59679  1.0000
  H   H19       1.0  0.90663  0.42997  0.09679  1.0000
  H   H20       1.0  0.40664  0.07002  0.40321  1.0000
  H   H21       1.0  0.00988  0.83519  0.12562  1.0000
  H   H22       1.0  0.50988  0.66481  0.37439  1.0000
  H   H23       1.0  0.99011  0.16481  0.87439  1.0000
  H   H24       1.0  0.49012  0.33519  0.62562  1.0000
  H   H25       1.0  0.43759  0.09434  0.03597  1.0000
  H   H26       1.0  0.93759  0.40566  0.46403  1.0000
  H   H27       1.0  0.56241  0.90566  0.96403  1.0000
  H   H28       1.0  0.06241  0.59434  0.53597  1.0000
  H   H29       1.0  0.31391  0.69646  0.13099  1.0000
  H   H30       1.0  0.81391  0.80353  0.36901  1.0000
  H   H31       1.0  0.68609  0.30353  0.86901  1.0000
  H   H32       1.0  0.18610  0.19647  0.63099  1.0000
  H   H33       1.0  0.77620  0.65477  0.94327  1.0000
  H   H34       1.0  0.27621  0.84523  0.55673  1.0000
  H   H35       1.0  0.22379  0.34523  0.05673  1.0000
  H   H36       1.0  0.72380  0.15477  0.44327  1.0000
  H   H37       1.0  0.56011  0.72378  0.20023  1.0000
  H   H38       1.0  0.06011  0.77622  0.29977  1.0000
  H   H39       1.0  0.43989  0.27621  0.79977  1.0000
  H   H40       1.0  0.93990  0.22379  0.70023  1.0000
  H   H41       1.0  0.78675  0.69487  0.11119  1.0000
  H   H42       1.0  0.28675  0.80513  0.38881  1.0000
  H   H43       1.0  0.21325  0.30512  0.88881  1.0000
  H   H44       1.0  0.71325  0.19487  0.61119  1.0000
  C   C1        1.0  0.40935  0.66283  0.99684  1.0000
  C   C2        1.0  0.90935  0.83717  0.50316  1.0000
  C   C3        1.0  0.59065  0.33718  0.00316  1.0000
  C   C4        1.0  0.09065  0.16283  0.49684  1.0000
  C   C5        1.0  0.26506  0.97173  0.98965  1.0000
  C   C6        1.0  0.76506  0.52828  0.51035  1.0000
  C   C7        1.0  0.73494  0.02828  0.01035  1.0000
  C   C8        1.0  0.23494  0.47172  0.48965  1.0000
  C   C9        1.0  0.14586  0.89862  0.01537  1.0000
  C   C10       1.0  0.64586  0.60138  0.48463  1.0000
  C   C11       1.0  0.85414  0.10138  0.98463  1.0000
  C   C12       1.0  0.35414  0.39862  0.51537  1.0000
  C   C13       1.0  0.18410  0.95847  0.17160  1.0000
  C   C14       1.0  0.68410  0.54154  0.32841  1.0000
  C   C15       1.0  0.81590  0.04154  0.82841  1.0000
  C   C16       1.0  0.31590  0.45846  0.67159  1.0000
  C   C17       1.0  0.30465  0.03096  0.14678  1.0000
  C   C18       1.0  0.80464  0.46905  0.35322  1.0000
  C   C19       1.0  0.69535  0.96905  0.85322  1.0000
  C   C20       1.0  0.19535  0.53095  0.64678  1.0000
  C   C21       1.0  0.14343  0.63921  0.94989  1.0000
  C   C22       1.0  0.64343  0.86079  0.55011  1.0000
  C   C23       1.0  0.85657  0.36078  0.05011  1.0000
  C   C24       1.0  0.35657  0.13921  0.44989  1.0000
  C   C25       1.0  0.10355  0.89212  0.10611  1.0000
  C   C26       1.0  0.60355  0.60788  0.39389  1.0000
  C   C27       1.0  0.89645  0.10788  0.89389  1.0000
  C   C28       1.0  0.39645  0.39212  0.60611  1.0000
  C   C29       1.0  0.34443  0.03767  0.05602  1.0000
  C   C30       1.0  0.84443  0.46233  0.44398  1.0000
  C   C31       1.0  0.65556  0.96233  0.94398  1.0000
  C   C32       1.0  0.15557  0.53767  0.55602  1.0000
  C   C33       1.0  0.41280  0.68675  0.09025  1.0000
  C   C34       1.0  0.91280  0.81325  0.40975  1.0000
  C   C35       1.0  0.58720  0.31325  0.90975  1.0000
  C   C36       1.0  0.08721  0.18676  0.59025  1.0000
  C   C37       1.0  0.67741  0.66237  0.98435  1.0000
  C   C38       1.0  0.17741  0.83763  0.51565  1.0000
  C   C39       1.0  0.32259  0.33764  0.01565  1.0000
  C   C40       1.0  0.82259  0.16237  0.48435  1.0000
  C   C41       1.0  0.53831  0.65362  0.94419  1.0000
  C   C42       1.0  0.03832  0.84638  0.55581  1.0000
  C   C43       1.0  0.46169  0.34639  0.05581  1.0000
  C   C44       1.0  0.96169  0.15362  0.44419  1.0000
  C   C45       1.0  0.55112  0.69978  0.12849  1.0000
  C   C46       1.0  0.05112  0.80021  0.37151  1.0000
  C   C47       1.0  0.44888  0.30021  0.87151  1.0000
  C   C48       1.0  0.94888  0.19979  0.62849  1.0000
  C   C49       1.0  0.68133  0.68571  0.07687  1.0000
  C   C50       1.0  0.18134  0.81429  0.42313  1.0000
  C   C51       1.0  0.31867  0.31429  0.92313  1.0000
  C   C52       1.0  0.81867  0.18571  0.57687  1.0000
  Se  Se1       1.0  0.03734  0.79953  0.92688  1.0000
  Se  Se2       1.0  0.53734  0.70047  0.57312  1.0000
  Se  Se3       1.0  0.96267  0.20047  0.07312  1.0000
  Se  Se4       1.0  0.46267  0.29953  0.42688  1.0000
  N   N1        1.0  0.29820  0.64598  0.93503  1.0000
  N   N2        1.0  0.79820  0.85402  0.56497  1.0000
  N   N3        1.0  0.70179  0.35402  0.06497  1.0000
  N   N4        1.0  0.20180  0.14598  0.43503  1.0000
  N   N5        1.0  0.37087  0.01678  0.70896  1.0000
  N   N6        1.0  0.87087  0.48322  0.79103  1.0000
  N   N7        1.0  0.62913  0.98322  0.29104  1.0000
  N   N8        1.0  0.12913  0.51678  0.20897  1.0000
  N   N9        1.0  0.35265  0.63249  0.85042  1.0000
  N   N10       1.0  0.85265  0.86751  0.64958  1.0000
  N   N11       1.0  0.64735  0.36751  0.14958  1.0000
  N   N12       1.0  0.14735  0.13248  0.35042  1.0000
  N   N13       1.0  0.49614  0.63687  0.85523  1.0000
  N   N14       1.0  0.99614  0.86313  0.64477  1.0000
  N   N15       1.0  0.50385  0.36314  0.14477  1.0000
  N   N16       1.0  0.00386  0.13687  0.35523  1.0000
  O   O1        1.0  0.27217  0.07045  0.75635  1.0000
  O   O2        1.0  0.77217  0.42955  0.74364  1.0000
  O   O3        1.0  0.72783  0.92955  0.24364  1.0000
  O   O4        1.0  0.22783  0.57045  0.25636  1.0000
  O   O5        1.0  0.46358  0.07956  0.66576  1.0000
  O   O6        1.0  0.96358  0.42044  0.83424  1.0000
  O   O7        1.0  0.53643  0.92044  0.33424  1.0000
  O   O8        1.0  0.03643  0.57956  0.16576  1.0000
  O   O9        1.0  0.37404  0.89625  0.70463  1.0000
  O   O10       1.0  0.87404  0.60375  0.79537  1.0000
  O   O11       1.0  0.62596  0.10375  0.29537  1.0000
  O   O12       1.0  0.12596  0.39625  0.20463  1.0000
