data_image0
_chemical_formula_structural       Zn4H36C64N12O20
_chemical_formula_sum              "Zn4 H36 C64 N12 O20"
_cell_length_a       10.3982
_cell_length_b       13.8943
_cell_length_c       15.13
_cell_angle_alpha    90
_cell_angle_beta     103.535
_cell_angle_gamma    90

_space_group_name_H-M_alt    "P 1"
_space_group_IT_number       1

loop_
  _space_group_symop_operation_xyz
  'x, y, z'

loop_
  _atom_site_type_symbol
  _atom_site_label
  _atom_site_symmetry_multiplicity
  _atom_site_fract_x
  _atom_site_fract_y
  _atom_site_fract_z
  _atom_site_occupancy
  Zn  Zn1       1.0  0.17041  0.84920  0.57966  1.0000
  Zn  Zn2       1.0  0.32959  0.34920  0.42034  1.0000
  Zn  Zn3       1.0  0.82959  0.15080  0.42034  1.0000
  Zn  Zn4       1.0  0.67041  0.65080  0.57966  1.0000
  H   H1        1.0  0.30043  0.00758  0.65409  1.0000
  H   H2        1.0  0.19957  0.50758  0.34591  1.0000
  H   H3        1.0  0.69957  0.99242  0.34591  1.0000
  H   H4        1.0  0.80043  0.49242  0.65409  1.0000
  H   H5        1.0  0.14909  0.03877  0.59804  1.0000
  H   H6        1.0  0.35091  0.53877  0.40196  1.0000
  H   H7        1.0  0.85091  0.96123  0.40196  1.0000
  H   H8        1.0  0.64909  0.46123  0.59804  1.0000
  H   H9        1.0  0.90533  0.74265  0.50951  1.0000
  H   H10       1.0  0.59466  0.24265  0.49049  1.0000
  H   H11       1.0  0.09467  0.25735  0.49049  1.0000
  H   H12       1.0  0.40533  0.75735  0.50951  1.0000
  H   H13       1.0  0.14706  0.91943  0.79167  1.0000
  H   H14       1.0  0.35294  0.41943  0.20833  1.0000
  H   H15       1.0  0.85294  0.08057  0.20833  1.0000
  H   H16       1.0  0.64706  0.58057  0.79167  1.0000
  H   H17       1.0  0.73060  0.72800  0.79208  1.0000
  H   H18       1.0  0.76940  0.22800  0.20793  1.0000
  H   H19       1.0  0.26939  0.27200  0.20792  1.0000
  H   H20       1.0  0.23061  0.77200  0.79208  1.0000
  H   H21       1.0  0.79841  0.88782  0.10392  1.0000
  H   H22       1.0  0.70159  0.38782  0.89608  1.0000
  H   H23       1.0  0.20159  0.11218  0.89608  1.0000
  H   H24       1.0  0.29841  0.61218  0.10392  1.0000
  H   H25       1.0  0.82937  0.88723  0.27177  1.0000
  H   H26       1.0  0.67063  0.38722  0.72823  1.0000
  H   H27       1.0  0.17063  0.11278  0.72823  1.0000
  H   H28       1.0  0.32937  0.61278  0.27177  1.0000
  H   H29       1.0  0.21420  0.83153  0.13518  1.0000
  H   H30       1.0  0.28581  0.33153  0.86482  1.0000
  H   H31       1.0  0.78580  0.16847  0.86482  1.0000
  H   H32       1.0  0.71419  0.66847  0.13518  1.0000
  H   H33       1.0  0.24562  0.83607  0.30464  1.0000
  H   H34       1.0  0.25438  0.33607  0.69536  1.0000
  H   H35       1.0  0.75438  0.16392  0.69536  1.0000
  H   H36       1.0  0.74562  0.66393  0.30464  1.0000
  C   C1        1.0  0.91468  0.76242  0.58010  1.0000
  C   C2        1.0  0.58532  0.26241  0.41990  1.0000
  C   C3        1.0  0.08532  0.23759  0.41990  1.0000
  C   C4        1.0  0.41468  0.73759  0.58010  1.0000
  C   C5        1.0  0.87049  0.77557  0.71266  1.0000
  C   C6        1.0  0.62951  0.27556  0.28734  1.0000
  C   C7        1.0  0.12950  0.22444  0.28734  1.0000
  C   C8        1.0  0.37050  0.72444  0.71266  1.0000
  C   C9        1.0  0.98788  0.82904  0.71255  1.0000
  C   C10       1.0  0.51212  0.32904  0.28745  1.0000
  C   C11       1.0  0.01212  0.17096  0.28745  1.0000
  C   C12       1.0  0.48788  0.67096  0.71255  1.0000
  C   C13       1.0  0.05851  0.87721  0.79057  1.0000
  C   C14       1.0  0.44149  0.37720  0.20943  1.0000
  C   C15       1.0  0.94148  0.12280  0.20943  1.0000
  C   C16       1.0  0.55852  0.62280  0.79057  1.0000
  C   C17       1.0  0.01031  0.86486  0.86783  1.0000
  C   C18       1.0  0.48969  0.36486  0.13217  1.0000
  C   C19       1.0  0.98968  0.13514  0.13217  1.0000
  C   C20       1.0  0.51031  0.63514  0.86783  1.0000
  C   C21       1.0  0.89434  0.81195  0.86684  1.0000
  C   C22       1.0  0.60566  0.31195  0.13316  1.0000
  C   C23       1.0  0.10566  0.18805  0.13316  1.0000
  C   C24       1.0  0.39434  0.68805  0.86684  1.0000
  C   C25       1.0  0.81995  0.76769  0.79012  1.0000
  C   C26       1.0  0.68005  0.26769  0.20988  1.0000
  C   C27       1.0  0.18005  0.23231  0.20988  1.0000
  C   C28       1.0  0.31995  0.73231  0.79012  1.0000
  C   C29       1.0  0.06784  0.89537  0.96280  1.0000
  C   C30       1.0  0.43216  0.39537  0.03720  1.0000
  C   C31       1.0  0.93216  0.10463  0.03720  1.0000
  C   C32       1.0  0.56784  0.60463  0.96280  1.0000
  C   C33       1.0  0.87378  0.80714  0.95972  1.0000
  C   C34       1.0  0.62622  0.30713  0.04028  1.0000
  C   C35       1.0  0.12622  0.19287  0.04028  1.0000
  C   C36       1.0  0.37379  0.69286  0.95972  1.0000
  C   C37       1.0  0.00461  0.86006  0.11045  1.0000
  C   C38       1.0  0.49539  0.36006  0.88955  1.0000
  C   C39       1.0  0.99539  0.13994  0.88954  1.0000
  C   C40       1.0  0.50461  0.63994  0.11045  1.0000
  C   C41       1.0  0.89548  0.87575  0.14819  1.0000
  C   C42       1.0  0.60453  0.37575  0.85181  1.0000
  C   C43       1.0  0.10452  0.12425  0.85181  1.0000
  C   C44       1.0  0.39548  0.62425  0.14819  1.0000
  C   C45       1.0  0.91387  0.87668  0.24186  1.0000
  C   C46       1.0  0.58613  0.37668  0.75814  1.0000
  C   C47       1.0  0.08613  0.12332  0.75814  1.0000
  C   C48       1.0  0.41387  0.62332  0.24186  1.0000
  C   C49       1.0  0.13135  0.84551  0.16605  1.0000
  C   C50       1.0  0.36865  0.34551  0.83395  1.0000
  C   C51       1.0  0.86865  0.15449  0.83395  1.0000
  C   C52       1.0  0.63135  0.65449  0.16605  1.0000
  C   C53       1.0  0.14823  0.84757  0.26000  1.0000
  C   C54       1.0  0.35177  0.34756  0.74000  1.0000
  C   C55       1.0  0.85177  0.15243  0.74000  1.0000
  C   C56       1.0  0.64823  0.65243  0.26000  1.0000
  C   C57       1.0  0.03991  0.86359  0.29865  1.0000
  C   C58       1.0  0.46009  0.36359  0.70135  1.0000
  C   C59       1.0  0.96009  0.13641  0.70135  1.0000
  C   C60       1.0  0.53991  0.63641  0.29865  1.0000
  C   C61       1.0  0.05666  0.86671  0.39865  1.0000
  C   C62       1.0  0.44334  0.36671  0.60135  1.0000
  C   C63       1.0  0.94334  0.13329  0.60135  1.0000
  C   C64       1.0  0.55666  0.63329  0.39865  1.0000
  N   N1        1.0  0.01308  0.81840  0.62712  1.0000
  N   N2        1.0  0.48692  0.31840  0.37288  1.0000
  N   N3        1.0  0.98692  0.18160  0.37288  1.0000
  N   N4        1.0  0.51308  0.68160  0.62712  1.0000
  N   N5        1.0  0.82695  0.73460  0.62776  1.0000
  N   N6        1.0  0.67305  0.23460  0.37224  1.0000
  N   N7        1.0  0.17305  0.26540  0.37224  1.0000
  N   N8        1.0  0.32695  0.76540  0.62776  1.0000
  N   N9        1.0  0.98383  0.85507  0.01531  1.0000
  N   N10       1.0  0.51617  0.35507  0.98469  1.0000
  N   N11       1.0  0.01617  0.14494  0.98469  1.0000
  N   N12       1.0  0.48383  0.64493  0.01531  1.0000
  O   O1        1.0  0.16658  0.83546  0.44852  1.0000
  O   O2        1.0  0.33342  0.33546  0.55148  1.0000
  O   O3        1.0  0.83342  0.16454  0.55148  1.0000
  O   O4        1.0  0.66658  0.66454  0.44852  1.0000
  O   O5        1.0  0.96506  0.89764  0.43376  1.0000
  O   O6        1.0  0.53494  0.39764  0.56624  1.0000
  O   O7        1.0  0.03494  0.10236  0.56623  1.0000
  O   O8        1.0  0.46506  0.60236  0.43376  1.0000
  O   O9        1.0  0.16466  0.94542  0.99320  1.0000
  O   O10       1.0  0.33534  0.44542  0.00681  1.0000
  O   O11       1.0  0.83534  0.05458  0.00680  1.0000
  O   O12       1.0  0.66466  0.55458  0.99319  1.0000
  O   O13       1.0  0.78409  0.76811  0.98617  1.0000
  O   O14       1.0  0.71591  0.26811  0.01383  1.0000
  O   O15       1.0  0.21591  0.23188  0.01383  1.0000
  O   O16       1.0  0.28409  0.73189  0.98617  1.0000
  O   O17       1.0  0.22402  0.98727  0.60801  1.0000
  O   O18       1.0  0.27597  0.48727  0.39199  1.0000
  O   O19       1.0  0.77597  0.01273  0.39199  1.0000
  O   O20       1.0  0.72402  0.51273  0.60801  1.0000
