data_image0
_chemical_formula_structural       Cd2H32C32N4O20
_chemical_formula_sum              "Cd2 H32 C32 N4 O20"
_cell_length_a       7.41749
_cell_length_b       7.43445
_cell_length_c       17.5595
_cell_angle_alpha    90.0002
_cell_angle_beta     90
_cell_angle_gamma    118.178

_space_group_name_H-M_alt    "P 1"
_space_group_IT_number       1

loop_
  _space_group_symop_operation_xyz
  'x, y, z'

loop_
  _atom_site_type_symbol
  _atom_site_label
  _atom_site_symmetry_multiplicity
  _atom_site_fract_x
  _atom_site_fract_y
  _atom_site_fract_z
  _atom_site_occupancy
  Cd  Cd1       1.0  1.00000  0.50000  0.50000  1.0000
  Cd  Cd2       1.0  0.50000  0.50000  0.00000  1.0000
  H   H1        1.0  0.91461  0.41595  0.16683  1.0000
  H   H2        1.0  0.58539  0.58406  0.66683  1.0000
  H   H3        1.0  0.08539  0.58406  0.83317  1.0000
  H   H4        1.0  0.41461  0.41594  0.33317  1.0000
  H   H5        1.0  0.83727  0.84666  0.10084  1.0000
  H   H6        1.0  0.66273  0.15335  0.60084  1.0000
  H   H7        1.0  0.16273  0.15334  0.89916  1.0000
  H   H8        1.0  0.33726  0.84665  0.39916  1.0000
  H   H9        1.0  0.89992  0.76467  0.23438  1.0000
  H   H10       1.0  0.60008  0.23534  0.73438  1.0000
  H   H11       1.0  0.10008  0.23534  0.76563  1.0000
  H   H12       1.0  0.39991  0.76466  0.26562  1.0000
  H   H13       1.0  0.95698  0.02023  0.33800  1.0000
  H   H14       1.0  0.54302  0.97977  0.83800  1.0000
  H   H15       1.0  0.04302  0.97978  0.66200  1.0000
  H   H16       1.0  0.45698  0.02022  0.16200  1.0000
  H   H17       1.0  0.74687  0.26568  0.06060  1.0000
  H   H18       1.0  0.75312  0.73432  0.56059  1.0000
  H   H19       1.0  0.25313  0.73432  0.93941  1.0000
  H   H20       1.0  0.24688  0.26568  0.43941  1.0000
  H   H21       1.0  0.69954  0.01704  0.03307  1.0000
  H   H22       1.0  0.80046  0.98296  0.53307  1.0000
  H   H23       1.0  0.30046  0.98296  0.96693  1.0000
  H   H24       1.0  0.19953  0.01704  0.46693  1.0000
  H   H25       1.0  0.22416  0.30020  0.56809  1.0000
  H   H26       1.0  0.27584  0.69980  0.06810  1.0000
  H   H27       1.0  0.77584  0.69981  0.43191  1.0000
  H   H28       1.0  0.72416  0.30019  0.93191  1.0000
  H   H29       1.0  0.07528  0.34182  0.62347  1.0000
  H   H30       1.0  0.42473  0.65818  0.12347  1.0000
  H   H31       1.0  0.92473  0.65818  0.37653  1.0000
  H   H32       1.0  0.57527  0.34182  0.87653  1.0000
  C   C1        1.0  0.97952  0.39696  0.32050  1.0000
  C   C2        1.0  0.52048  0.60304  0.82050  1.0000
  C   C3        1.0  0.02048  0.60304  0.67950  1.0000
  C   C4        1.0  0.47952  0.39696  0.17950  1.0000
  C   C5        1.0  0.94782  0.24008  0.26024  1.0000
  C   C6        1.0  0.55218  0.75993  0.76024  1.0000
  C   C7        1.0  0.05218  0.75993  0.73976  1.0000
  C   C8        1.0  0.44782  0.24007  0.23976  1.0000
  C   C9        1.0  0.91404  0.27582  0.18533  1.0000
  C   C10       1.0  0.58596  0.72418  0.68533  1.0000
  C   C11       1.0  0.08596  0.72418  0.81467  1.0000
  C   C12       1.0  0.41405  0.27582  0.31467  1.0000
  C   C13       1.0  0.86996  0.95219  0.14805  1.0000
  C   C14       1.0  0.63004  0.04782  0.64805  1.0000
  C   C15       1.0  0.13004  0.04782  0.85195  1.0000
  C   C16       1.0  0.36995  0.95218  0.35195  1.0000
  C   C17       1.0  0.90417  0.91001  0.22181  1.0000
  C   C18       1.0  0.59583  0.08999  0.72181  1.0000
  C   C19       1.0  0.09583  0.08999  0.77819  1.0000
  C   C20       1.0  0.40417  0.91001  0.27819  1.0000
  C   C21       1.0  0.93927  0.05321  0.27881  1.0000
  C   C22       1.0  0.56073  0.94679  0.77881  1.0000
  C   C23       1.0  0.06073  0.94679  0.72119  1.0000
  C   C24       1.0  0.43927  0.05320  0.22119  1.0000
  C   C25       1.0  0.81622  0.16511  0.05465  1.0000
  C   C26       1.0  0.68378  0.83489  0.55465  1.0000
  C   C27       1.0  0.18378  0.83489  0.94535  1.0000
  C   C28       1.0  0.31621  0.16511  0.44535  1.0000
  C   C29       1.0  0.99525  0.25798  0.99845  1.0000
  C   C30       1.0  0.50474  0.74202  0.49845  1.0000
  C   C31       1.0  0.00475  0.74202  0.00155  1.0000
  C   C32       1.0  0.49525  0.25798  0.50155  1.0000
  N   N1        1.0  0.87133  0.13084  0.13162  1.0000
  N   N2        1.0  0.62866  0.86916  0.63162  1.0000
  N   N3        1.0  0.12866  0.86916  0.86838  1.0000
  N   N4        1.0  0.37134  0.13084  0.36838  1.0000
  O   O1        1.0  0.04425  0.37143  0.38461  1.0000
  O   O2        1.0  0.45576  0.62857  0.88461  1.0000
  O   O3        1.0  0.95576  0.62857  0.61539  1.0000
  O   O4        1.0  0.54424  0.37143  0.11539  1.0000
  O   O5        1.0  0.93632  0.53710  0.30236  1.0000
  O   O6        1.0  0.56368  0.46291  0.80236  1.0000
  O   O7        1.0  0.06368  0.46290  0.69764  1.0000
  O   O8        1.0  0.43632  0.53710  0.19764  1.0000
  O   O9        1.0  0.16015  0.25712  0.01738  1.0000
  O   O10       1.0  0.33985  0.74289  0.51738  1.0000
  O   O11       1.0  0.83985  0.74289  0.98262  1.0000
  O   O12       1.0  0.66014  0.25711  0.48261  1.0000
  O   O13       1.0  0.95811  0.32148  0.93676  1.0000
  O   O14       1.0  0.54188  0.67852  0.43676  1.0000
  O   O15       1.0  0.04188  0.67852  0.06324  1.0000
  O   O16       1.0  0.45812  0.32148  0.56323  1.0000
  O   O17       1.0  0.08001  0.27989  0.57264  1.0000
  O   O18       1.0  0.41999  0.72012  0.07264  1.0000
  O   O19       1.0  0.91999  0.72012  0.42736  1.0000
  O   O20       1.0  0.58001  0.27988  0.92736  1.0000
