data_image0
_chemical_formula_structural       Si2H36Rh4C60N4O16F24
_chemical_formula_sum              "Si2 H36 Rh4 C60 N4 O16 F24"
_cell_length_a       11.982
_cell_length_b       12.2698
_cell_length_c       14.846
_cell_angle_alpha    106.903
_cell_angle_beta     110.962
_cell_angle_gamma    101.17

_space_group_name_H-M_alt    "P 1"
_space_group_IT_number       1

loop_
  _space_group_symop_operation_xyz
  'x, y, z'

loop_
  _atom_site_type_symbol
  _atom_site_label
  _atom_site_symmetry_multiplicity
  _atom_site_fract_x
  _atom_site_fract_y
  _atom_site_fract_z
  _atom_site_occupancy
  Si  Si1       1.0  0.81289  0.15386  0.48165  1.0000
  Si  Si2       1.0  0.18712  0.84612  0.51838  1.0000
  H   H1        1.0  0.08909  0.19400  0.57888  1.0000
  H   H2        1.0  0.91091  0.80599  0.42111  1.0000
  H   H3        1.0  0.27275  0.31699  0.57316  1.0000
  H   H4        1.0  0.72722  0.68299  0.42679  1.0000
  H   H5        1.0  0.24320  0.44435  0.46763  1.0000
  H   H6        1.0  0.75676  0.55562  0.53234  1.0000
  H   H7        1.0  0.02785  0.45001  0.37205  1.0000
  H   H8        1.0  0.97212  0.54999  0.62795  1.0000
  H   H9        1.0  0.84407  0.33263  0.38266  1.0000
  H   H10       1.0  0.15592  0.66738  0.61736  1.0000
  H   H11       1.0  0.87179  0.04547  0.29815  1.0000
  H   H12       1.0  0.12818  0.95455  0.70184  1.0000
  H   H13       1.0  0.76889  0.84507  0.14814  1.0000
  H   H14       1.0  0.23106  0.15497  0.85183  1.0000
  H   H15       1.0  0.49488  0.73957  0.24288  1.0000
  H   H16       1.0  0.50512  0.26043  0.75711  1.0000
  H   H17       1.0  0.57973  0.93748  0.39284  1.0000
  H   H18       1.0  0.42029  0.06250  0.60720  1.0000
  H   H19       1.0  0.77900  0.31500  0.65821  1.0000
  H   H20       1.0  0.22100  0.68496  0.34182  1.0000
  H   H21       1.0  0.60408  0.38832  0.66781  1.0000
  H   H22       1.0  0.39593  0.61165  0.33221  1.0000
  H   H23       1.0  0.40831  0.33502  0.50539  1.0000
  H   H24       1.0  0.59172  0.66500  0.49464  1.0000
  H   H25       1.0  0.38718  0.20432  0.33279  1.0000
  H   H26       1.0  0.61287  0.79573  0.66723  1.0000
  H   H27       1.0  0.56076  0.13016  0.32163  1.0000
  H   H28       1.0  0.43926  0.86986  0.67839  1.0000
  H   H29       1.0  0.99933  0.29496  0.71003  1.0000
  H   H30       1.0  0.00065  0.70505  0.29003  1.0000
  H   H31       1.0  0.05310  0.24064  0.86487  1.0000
  H   H32       1.0  0.94686  0.75936  0.13517  1.0000
  H   H33       1.0  0.83080  0.88243  0.68211  1.0000
  H   H34       1.0  0.16927  0.11755  0.31790  1.0000
  H   H35       1.0  0.76282  0.92098  0.51942  1.0000
  H   H36       1.0  0.23727  0.07901  0.48060  1.0000
  Rh  Rh1       1.0  0.98076  0.02278  0.92160  1.0000
  Rh  Rh2       1.0  0.01925  0.97722  0.07843  1.0000
  Rh  Rh3       1.0  0.54965  0.60262  0.06874  1.0000
  Rh  Rh4       1.0  0.45032  0.39737  0.93123  1.0000
  C   C1        1.0  0.86628  0.77550  0.88175  1.0000
  C   C2        1.0  0.13373  0.22450  0.11828  1.0000
  C   C3        1.0  0.80088  0.04855  0.00515  1.0000
  C   C4        1.0  0.19914  0.95146  0.99488  1.0000
  C   C5        1.0  0.79473  0.64018  0.80955  1.0000
  C   C6        1.0  0.20528  0.35981  0.19049  1.0000
  C   C7        1.0  0.68638  0.08414  0.01295  1.0000
  C   C8        1.0  0.31365  0.91591  0.98709  1.0000
  C   C9        1.0  0.48234  0.58855  0.85942  1.0000
  C   C10       1.0  0.51764  0.41145  0.14055  1.0000
  C   C11       1.0  0.72070  0.48353  0.02813  1.0000
  C   C12       1.0  0.27926  0.51645  0.97181  1.0000
  C   C13       1.0  0.45920  0.64318  0.77537  1.0000
  C   C14       1.0  0.54080  0.35680  0.22458  1.0000
  C   C15       1.0  0.85295  0.46947  0.05505  1.0000
  C   C16       1.0  0.14701  0.53052  0.94484  1.0000
  C   C17       1.0  0.95205  0.25359  0.48097  1.0000
  C   C18       1.0  0.04796  0.74642  0.51904  1.0000
  C   C19       1.0  0.07436  0.25019  0.53351  1.0000
  C   C20       1.0  0.92565  0.74981  0.46648  1.0000
  C   C21       1.0  0.17852  0.31880  0.52940  1.0000
  C   C22       1.0  0.82147  0.68120  0.47058  1.0000
  C   C23       1.0  0.16204  0.39028  0.47082  1.0000
  C   C24       1.0  0.83794  0.60971  0.52916  1.0000
  C   C25       1.0  0.04107  0.39357  0.41714  1.0000
  C   C26       1.0  0.95892  0.60643  0.58285  1.0000
  C   C27       1.0  0.93729  0.32668  0.42296  1.0000
  C   C28       1.0  0.06270  0.67333  0.57704  1.0000
  C   C29       1.0  0.73708  0.00885  0.36132  1.0000
  C   C30       1.0  0.26291  0.99113  0.63869  1.0000
  C   C31       1.0  0.78853  0.98073  0.28979  1.0000
  C   C32       1.0  0.21145  0.01928  0.71021  1.0000
  C   C33       1.0  0.73247  0.86859  0.20607  1.0000
  C   C34       1.0  0.26749  0.13142  0.79391  1.0000
  C   C35       1.0  0.57855  0.81017  0.25862  1.0000
  C   C36       1.0  0.42144  0.18983  0.74138  1.0000
  C   C37       1.0  0.62760  0.92088  0.34254  1.0000
  C   C38       1.0  0.37240  0.07911  0.65748  1.0000
  C   C39       1.0  0.68435  0.21788  0.48885  1.0000
  C   C40       1.0  0.31565  0.78211  0.51117  1.0000
  C   C41       1.0  0.69401  0.29083  0.58596  1.0000
  C   C42       1.0  0.30599  0.70916  0.41407  1.0000
  C   C43       1.0  0.59523  0.33215  0.59203  1.0000
  C   C44       1.0  0.40478  0.66784  0.40800  1.0000
  C   C45       1.0  0.48481  0.30149  0.50093  1.0000
  C   C46       1.0  0.51522  0.69853  0.49910  1.0000
  C   C47       1.0  0.47306  0.22855  0.40408  1.0000
  C   C48       1.0  0.52697  0.77149  0.59595  1.0000
  C   C49       1.0  0.57202  0.18732  0.39816  1.0000
  C   C50       1.0  0.42799  0.81270  0.60186  1.0000
  C   C51       1.0  0.87185  0.11309  0.59935  1.0000
  C   C52       1.0  0.12818  0.88691  0.40068  1.0000
  C   C53       1.0  0.95681  0.20223  0.69907  1.0000
  C   C54       1.0  0.04318  0.79778  0.30097  1.0000
  C   C55       1.0  0.98862  0.17304  0.78660  1.0000
  C   C56       1.0  0.01137  0.82696  0.21342  1.0000
  C   C57       1.0  0.86406  0.97290  0.68453  1.0000
  C   C58       1.0  0.13599  0.02708  0.31548  1.0000
  C   C59       1.0  0.82707  0.99586  0.59390  1.0000
  C   C60       1.0  0.17299  0.00413  0.40612  1.0000
  N   N1        1.0  0.63103  0.78383  0.19209  1.0000
  N   N2        1.0  0.36893  0.21617  0.80789  1.0000
  N   N3        1.0  0.94198  0.06047  0.77980  1.0000
  N   N4        1.0  0.05803  0.93953  0.22022  1.0000
  O   O1        1.0  0.87552  0.84444  0.83366  1.0000
  O   O2        1.0  0.12449  0.15554  0.16636  1.0000
  O   O3        1.0  0.91023  0.80052  0.97935  1.0000
  O   O4        1.0  0.08977  0.19949  0.02068  1.0000
  O   O5        1.0  0.82358  0.05868  0.93032  1.0000
  O   O6        1.0  0.17641  0.94133  0.06969  1.0000
  O   O7        1.0  0.86039  0.01649  0.07718  1.0000
  O   O8        1.0  0.13964  0.98353  0.92284  1.0000
  O   O9        1.0  0.53514  0.66574  0.95319  1.0000
  O   O10       1.0  0.46482  0.33424  0.04677  1.0000
  O   O11       1.0  0.44183  0.47402  0.82414  1.0000
  O   O12       1.0  0.55814  0.52596  0.17582  1.0000
  O   O13       1.0  0.72218  0.58445  0.08454  1.0000
  O   O14       1.0  0.27778  0.41554  0.91541  1.0000
  O   O15       1.0  0.62768  0.39280  0.95563  1.0000
  O   O16       1.0  0.37228  0.60719  0.04434  1.0000
  F   F1        1.0  0.72477  0.58409  0.84827  1.0000
  F   F2        1.0  0.27525  0.41592  0.15178  1.0000
  F   F3        1.0  0.87910  0.58257  0.80153  1.0000
  F   F4        1.0  0.12092  0.41743  0.19851  1.0000
  F   F5        1.0  0.71581  0.62522  0.71180  1.0000
  F   F6        1.0  0.28419  0.37476  0.28822  1.0000
  F   F7        1.0  0.59880  0.06954  0.91843  1.0000
  F   F8        1.0  0.40117  0.93044  0.08160  1.0000
  F   F9        1.0  0.63031  0.01773  0.05317  1.0000
  F   F10       1.0  0.36980  0.98239  0.94696  1.0000
  F   F11       1.0  0.72769  0.20284  0.07860  1.0000
  F   F12       1.0  0.27236  0.79722  0.92140  1.0000
  F   F13       1.0  0.45176  0.56729  0.68502  1.0000
  F   F14       1.0  0.54819  0.43267  0.31492  1.0000
  F   F15       1.0  0.34764  0.66623  0.75308  1.0000
  F   F16       1.0  0.65240  0.33383  0.24692  1.0000
  F   F17       1.0  0.55295  0.74930  0.81050  1.0000
  F   F18       1.0  0.44709  0.25063  0.18944  1.0000
  F   F19       1.0  0.90630  0.48025  0.15681  1.0000
  F   F20       1.0  0.09370  0.51973  0.84307  1.0000
  F   F21       1.0  0.93078  0.55828  0.04627  1.0000
  F   F22       1.0  0.06915  0.44171  0.95360  1.0000
  F   F23       1.0  0.84799  0.36195  0.99313  1.0000
  F   F24       1.0  0.15195  0.63804  0.00675  1.0000
