data_image0
_chemical_formula_structural       Zn4H48C24S8N16O16
_chemical_formula_sum              "Zn4 H48 C24 S8 N16 O16"
_cell_length_a       8.21745
_cell_length_b       11.0884
_cell_length_c       13.535
_cell_angle_alpha    90
_cell_angle_beta     90
_cell_angle_gamma    90

_space_group_name_H-M_alt    "P 1"
_space_group_IT_number       1

loop_
  _space_group_symop_operation_xyz
  'x, y, z'

loop_
  _atom_site_type_symbol
  _atom_site_label
  _atom_site_symmetry_multiplicity
  _atom_site_fract_x
  _atom_site_fract_y
  _atom_site_fract_z
  _atom_site_occupancy
  Zn  Zn1       1.0  0.24174  0.08157  0.16516  1.0000
  Zn  Zn2       1.0  0.25826  0.91844  0.66516  1.0000
  Zn  Zn3       1.0  0.74174  0.41843  0.83483  1.0000
  Zn  Zn4       1.0  0.75826  0.58157  0.33483  1.0000
  H   H1        1.0  0.78520  0.19552  0.29582  1.0000
  H   H2        1.0  0.71480  0.80448  0.79582  1.0000
  H   H3        1.0  0.28520  0.30449  0.70418  1.0000
  H   H4        1.0  0.21480  0.69552  0.20418  1.0000
  H   H5        1.0  0.99657  0.18313  0.28403  1.0000
  H   H6        1.0  0.50344  0.81687  0.78403  1.0000
  H   H7        1.0  0.49656  0.31687  0.71597  1.0000
  H   H8        1.0  0.00344  0.68313  0.21597  1.0000
  H   H9        1.0  0.62142  0.01518  0.26194  1.0000
  H   H10       1.0  0.87858  0.98482  0.76194  1.0000
  H   H11       1.0  0.12142  0.48482  0.73806  1.0000
  H   H12       1.0  0.37858  0.51518  0.23806  1.0000
  H   H13       1.0  0.72860  0.88835  0.21524  1.0000
  H   H14       1.0  0.77140  0.11165  0.71525  1.0000
  H   H15       1.0  0.22860  0.61166  0.78476  1.0000
  H   H16       1.0  0.27140  0.38835  0.28476  1.0000
  H   H17       1.0  0.24583  0.09881  0.84756  1.0000
  H   H18       1.0  0.25417  0.90119  0.34756  1.0000
  H   H19       1.0  0.74583  0.40119  0.15244  1.0000
  H   H20       1.0  0.75417  0.59881  0.65244  1.0000
  H   H21       1.0  0.30672  0.05842  0.96679  1.0000
  H   H22       1.0  0.19328  0.94158  0.46679  1.0000
  H   H23       1.0  0.80672  0.44158  0.03321  1.0000
  H   H24       1.0  0.69328  0.55842  0.53321  1.0000
  H   H25       1.0  0.08909  0.26782  0.82125  1.0000
  H   H26       1.0  0.41091  0.73218  0.32125  1.0000
  H   H27       1.0  0.58909  0.23218  0.17875  1.0000
  H   H28       1.0  0.91091  0.76782  0.67875  1.0000
  H   H29       1.0  0.04956  0.36702  0.91856  1.0000
  H   H30       1.0  0.45044  0.63298  0.41856  1.0000
  H   H31       1.0  0.54956  0.13298  0.08144  1.0000
  H   H32       1.0  0.95044  0.86702  0.58144  1.0000
  H   H33       1.0  0.57602  0.11936  0.42785  1.0000
  H   H34       1.0  0.92397  0.88063  0.92784  1.0000
  H   H35       1.0  0.07602  0.38063  0.57215  1.0000
  H   H36       1.0  0.42397  0.61936  0.07215  1.0000
  H   H37       1.0  0.39112  0.11757  0.49314  1.0000
  H   H38       1.0  0.10888  0.88243  0.99314  1.0000
  H   H39       1.0  0.89112  0.38243  0.50686  1.0000
  H   H40       1.0  0.60888  0.61757  0.00686  1.0000
  H   H41       1.0  0.37056  0.34269  0.48460  1.0000
  H   H42       1.0  0.12944  0.65731  0.98461  1.0000
  H   H43       1.0  0.87055  0.15731  0.51539  1.0000
  H   H44       1.0  0.62944  0.84269  0.01540  1.0000
  H   H45       1.0  0.55295  0.29683  0.54218  1.0000
  H   H46       1.0  0.94705  0.70317  0.04218  1.0000
  H   H47       1.0  0.05295  0.20317  0.45782  1.0000
  H   H48       1.0  0.44705  0.79683  0.95782  1.0000
  C   C1        1.0  0.87267  0.03093  0.24560  1.0000
  C   C2        1.0  0.62733  0.96907  0.74560  1.0000
  C   C3        1.0  0.37267  0.46907  0.75440  1.0000
  C   C4        1.0  0.12733  0.53093  0.25441  1.0000
  C   C5        1.0  0.17465  0.21459  0.95694  1.0000
  C   C6        1.0  0.32535  0.78541  0.45694  1.0000
  C   C7        1.0  0.67465  0.28541  0.04306  1.0000
  C   C8        1.0  0.82535  0.71459  0.54306  1.0000
  C   C9        1.0  0.36423  0.16142  0.34131  1.0000
  C   C10       1.0  0.13577  0.83858  0.84131  1.0000
  C   C11       1.0  0.86423  0.33858  0.65869  1.0000
  C   C12       1.0  0.63577  0.66142  0.15869  1.0000
  C   C13       1.0  0.46011  0.16735  0.43664  1.0000
  C   C14       1.0  0.03989  0.83265  0.93664  1.0000
  C   C15       1.0  0.96011  0.33265  0.56336  1.0000
  C   C16       1.0  0.53989  0.66735  0.06336  1.0000
  C   C17       1.0  0.58309  0.37114  0.39838  1.0000
  C   C18       1.0  0.91691  0.62885  0.89838  1.0000
  C   C19       1.0  0.08309  0.12885  0.60162  1.0000
  C   C20       1.0  0.41691  0.87114  0.10162  1.0000
  C   C21       1.0  0.48696  0.29628  0.47147  1.0000
  C   C22       1.0  0.01304  0.70372  0.97147  1.0000
  C   C23       1.0  0.98695  0.20372  0.52853  1.0000
  C   C24       1.0  0.51304  0.79628  0.02853  1.0000
  S   S1        1.0  0.04232  0.94822  0.21174  1.0000
  S   S2        1.0  0.45768  0.05178  0.71174  1.0000
  S   S3        1.0  0.54232  0.55178  0.78826  1.0000
  S   S4        1.0  0.95768  0.44822  0.28826  1.0000
  S   S5        1.0  0.17780  0.25541  0.07990  1.0000
  S   S6        1.0  0.32220  0.74458  0.57990  1.0000
  S   S7        1.0  0.67780  0.24459  0.92010  1.0000
  S   S8        1.0  0.82220  0.75542  0.42010  1.0000
  N   N1        1.0  0.88462  0.14408  0.27795  1.0000
  N   N2        1.0  0.61539  0.85592  0.77795  1.0000
  N   N3        1.0  0.38461  0.35593  0.72205  1.0000
  N   N4        1.0  0.11539  0.64408  0.22206  1.0000
  N   N5        1.0  0.72910  0.97551  0.24024  1.0000
  N   N6        1.0  0.77090  0.02449  0.74025  1.0000
  N   N7        1.0  0.22909  0.52449  0.75976  1.0000
  N   N8        1.0  0.27090  0.47551  0.25976  1.0000
  N   N9        1.0  0.23751  0.11237  0.92201  1.0000
  N   N10       1.0  0.26249  0.88763  0.42201  1.0000
  N   N11       1.0  0.73751  0.38763  0.07799  1.0000
  N   N12       1.0  0.76249  0.61237  0.57799  1.0000
  N   N13       1.0  0.10601  0.29149  0.89327  1.0000
  N   N14       1.0  0.39399  0.70851  0.39327  1.0000
  N   N15       1.0  0.60601  0.20851  0.10673  1.0000
  N   N16       1.0  0.89399  0.79149  0.60673  1.0000
  O   O1        1.0  0.41521  0.08888  0.27323  1.0000
  O   O2        1.0  0.08479  0.91112  0.77323  1.0000
  O   O3        1.0  0.91522  0.41112  0.72677  1.0000
  O   O4        1.0  0.58478  0.58888  0.22678  1.0000
  O   O5        1.0  0.23704  0.22405  0.33069  1.0000
  O   O6        1.0  0.26296  0.77595  0.83069  1.0000
  O   O7        1.0  0.73704  0.27595  0.66931  1.0000
  O   O8        1.0  0.76296  0.72404  0.16931  1.0000
  O   O9        1.0  0.60983  0.48226  0.42477  1.0000
  O   O10       1.0  0.89017  0.51774  0.92477  1.0000
  O   O11       1.0  0.10983  0.01773  0.57523  1.0000
  O   O12       1.0  0.39017  0.98227  0.07523  1.0000
  O   O13       1.0  0.63266  0.32682  0.31832  1.0000
  O   O14       1.0  0.86734  0.67318  0.81832  1.0000
  O   O15       1.0  0.13266  0.17317  0.68167  1.0000
  O   O16       1.0  0.36734  0.82682  0.18167  1.0000
