data_image0
_chemical_formula_structural       Zn4H48C28S8N16O16
_chemical_formula_sum              "Zn4 H48 C28 S8 N16 O16"
_cell_length_a       8.20513
_cell_length_b       11.6419
_cell_length_c       13.396
_cell_angle_alpha    90
_cell_angle_beta     90
_cell_angle_gamma    90

_space_group_name_H-M_alt    "P 1"
_space_group_IT_number       1

loop_
  _space_group_symop_operation_xyz
  'x, y, z'

loop_
  _atom_site_type_symbol
  _atom_site_label
  _atom_site_symmetry_multiplicity
  _atom_site_fract_x
  _atom_site_fract_y
  _atom_site_fract_z
  _atom_site_occupancy
  Zn  Zn1       1.0  0.22272  0.89669  0.82449  1.0000
  Zn  Zn2       1.0  0.27728  0.10331  0.32449  1.0000
  Zn  Zn3       1.0  0.72272  0.60331  0.17551  1.0000
  Zn  Zn4       1.0  0.77728  0.39669  0.67551  1.0000
  H   H1        1.0  0.20998  0.90690  0.14837  1.0000
  H   H2        1.0  0.29002  0.09310  0.64837  1.0000
  H   H3        1.0  0.70998  0.59310  0.85163  1.0000
  H   H4        1.0  0.79002  0.40690  0.35163  1.0000
  H   H5        1.0  0.28204  0.93531  0.02764  1.0000
  H   H6        1.0  0.21796  0.06469  0.52764  1.0000
  H   H7        1.0  0.78204  0.56469  0.97236  1.0000
  H   H8        1.0  0.71796  0.43531  0.47236  1.0000
  H   H9        1.0  0.07137  0.74315  0.18251  1.0000
  H   H10       1.0  0.42863  0.25685  0.68251  1.0000
  H   H11       1.0  0.57137  0.75685  0.81749  1.0000
  H   H12       1.0  0.92863  0.24315  0.31749  1.0000
  H   H13       1.0  0.02941  0.64250  0.08924  1.0000
  H   H14       1.0  0.47059  0.35750  0.58924  1.0000
  H   H15       1.0  0.52941  0.85750  0.91076  1.0000
  H   H16       1.0  0.97059  0.14250  0.41076  1.0000
  H   H17       1.0  0.60856  0.94931  0.71772  1.0000
  H   H18       1.0  0.89144  0.05070  0.21772  1.0000
  H   H19       1.0  0.10857  0.55069  0.28228  1.0000
  H   H20       1.0  0.39144  0.44930  0.78228  1.0000
  H   H21       1.0  0.71631  0.07311  0.75600  1.0000
  H   H22       1.0  0.78369  0.92689  0.25600  1.0000
  H   H23       1.0  0.21631  0.42689  0.24400  1.0000
  H   H24       1.0  0.28369  0.57311  0.74400  1.0000
  H   H25       1.0  0.77272  0.77264  0.69952  1.0000
  H   H26       1.0  0.72727  0.22736  0.19952  1.0000
  H   H27       1.0  0.27273  0.72736  0.30048  1.0000
  H   H28       1.0  0.22727  0.27264  0.80048  1.0000
  H   H29       1.0  0.98370  0.78484  0.71166  1.0000
  H   H30       1.0  0.51630  0.21516  0.21166  1.0000
  H   H31       1.0  0.48370  0.71516  0.28834  1.0000
  H   H32       1.0  0.01630  0.28484  0.78834  1.0000
  H   H33       1.0  0.54378  0.65173  0.46398  1.0000
  H   H34       1.0  0.95623  0.34827  0.96398  1.0000
  H   H35       1.0  0.04378  0.84827  0.53602  1.0000
  H   H36       1.0  0.45622  0.15173  0.03602  1.0000
  H   H37       1.0  0.36769  0.61148  0.53092  1.0000
  H   H38       1.0  0.13232  0.38852  0.03092  1.0000
  H   H39       1.0  0.86769  0.88852  0.46908  1.0000
  H   H40       1.0  0.63231  0.11148  0.96908  1.0000
  H   H41       1.0  0.49725  0.95802  0.53839  1.0000
  H   H42       1.0  0.00274  0.04198  0.03839  1.0000
  H   H43       1.0  0.99725  0.54198  0.46161  1.0000
  H   H44       1.0  0.50275  0.45801  0.96161  1.0000
  H   H45       1.0  0.58463  0.85602  0.44501  1.0000
  H   H46       1.0  0.91537  0.14399  0.94501  1.0000
  H   H47       1.0  0.08463  0.64398  0.55499  1.0000
  H   H48       1.0  0.41537  0.35602  0.05499  1.0000
  C   C1        1.0  0.15349  0.78589  0.04333  1.0000
  C   C2        1.0  0.34651  0.21411  0.54333  1.0000
  C   C3        1.0  0.65349  0.71411  0.95667  1.0000
  C   C4        1.0  0.84651  0.28589  0.45667  1.0000
  C   C5        1.0  0.86101  0.93521  0.73457  1.0000
  C   C6        1.0  0.63898  0.06479  0.23457  1.0000
  C   C7        1.0  0.36102  0.56479  0.26543  1.0000
  C   C8        1.0  0.13898  0.43521  0.76543  1.0000
  C   C9        1.0  0.35794  0.79960  0.65840  1.0000
  C   C10       1.0  0.14206  0.20040  0.15840  1.0000
  C   C11       1.0  0.85794  0.70040  0.34160  1.0000
  C   C12       1.0  0.64206  0.29960  0.84160  1.0000
  C   C13       1.0  0.45697  0.78093  0.56614  1.0000
  C   C14       1.0  0.04303  0.21908  0.06614  1.0000
  C   C15       1.0  0.95697  0.71907  0.43386  1.0000
  C   C16       1.0  0.54303  0.28092  0.93386  1.0000
  C   C17       1.0  0.48391  0.65836  0.53702  1.0000
  C   C18       1.0  0.01610  0.34164  0.03702  1.0000
  C   C19       1.0  0.98391  0.84164  0.46298  1.0000
  C   C20       1.0  0.51609  0.15836  0.96298  1.0000
  C   C21       1.0  0.58755  0.59433  0.61303  1.0000
  C   C22       1.0  0.91246  0.40567  0.11303  1.0000
  C   C23       1.0  0.08755  0.90567  0.38697  1.0000
  C   C24       1.0  0.41245  0.09433  0.88697  1.0000
  C   C25       1.0  0.51760  0.86976  0.51433  1.0000
  C   C26       1.0  0.98240  0.13024  0.01433  1.0000
  C   C27       1.0  0.01760  0.63024  0.48567  1.0000
  C   C28       1.0  0.48240  0.36976  0.98567  1.0000
  S   S1        1.0  0.15968  0.73861  0.92130  1.0000
  S   S2        1.0  0.34032  0.26139  0.42130  1.0000
  S   S3        1.0  0.65968  0.76139  0.07870  1.0000
  S   S4        1.0  0.84032  0.23861  0.57870  1.0000
  S   S5        1.0  0.03080  0.01808  0.75977  1.0000
  S   S6        1.0  0.46920  0.98192  0.25977  1.0000
  S   S7        1.0  0.53080  0.48192  0.24023  1.0000
  S   S8        1.0  0.96920  0.51808  0.74023  1.0000
  N   N1        1.0  0.21013  0.88726  0.07408  1.0000
  N   N2        1.0  0.28987  0.11274  0.57408  1.0000
  N   N3        1.0  0.71013  0.61274  0.92592  1.0000
  N   N4        1.0  0.78987  0.38726  0.42592  1.0000
  N   N5        1.0  0.08785  0.71548  0.11111  1.0000
  N   N6        1.0  0.41215  0.28452  0.61111  1.0000
  N   N7        1.0  0.58785  0.78452  0.88889  1.0000
  N   N8        1.0  0.91215  0.21548  0.38889  1.0000
  N   N9        1.0  0.71738  0.98888  0.73477  1.0000
  N   N10       1.0  0.78262  0.01112  0.23477  1.0000
  N   N11       1.0  0.21738  0.51112  0.26523  1.0000
  N   N12       1.0  0.28262  0.48888  0.76523  1.0000
  N   N13       1.0  0.87227  0.82357  0.71300  1.0000
  N   N14       1.0  0.62773  0.17643  0.21300  1.0000
  N   N15       1.0  0.37227  0.67643  0.28700  1.0000
  N   N16       1.0  0.12773  0.32357  0.78700  1.0000
  O   O1        1.0  0.39723  0.88542  0.71499  1.0000
  O   O2        1.0  0.10276  0.11458  0.21499  1.0000
  O   O3        1.0  0.89723  0.61458  0.28501  1.0000
  O   O4        1.0  0.60277  0.38542  0.78501  1.0000
  O   O5        1.0  0.24047  0.73343  0.67884  1.0000
  O   O6        1.0  0.25953  0.26657  0.17885  1.0000
  O   O7        1.0  0.74047  0.76657  0.32116  1.0000
  O   O8        1.0  0.75953  0.23343  0.82116  1.0000
  O   O9        1.0  0.62571  0.49052  0.58702  1.0000
  O   O10       1.0  0.87429  0.50948  0.08702  1.0000
  O   O11       1.0  0.12571  0.00948  0.41298  1.0000
  O   O12       1.0  0.37429  0.99052  0.91298  1.0000
  O   O13       1.0  0.63045  0.64021  0.69383  1.0000
  O   O14       1.0  0.86955  0.35979  0.19383  1.0000
  O   O15       1.0  0.13045  0.85979  0.30617  1.0000
  O   O16       1.0  0.36955  0.14020  0.80617  1.0000
