data_image0
_chemical_formula_structural       Mo4H60C60N4O16
_chemical_formula_sum              "Mo4 H60 C60 N4 O16"
_cell_length_a       7.77799
_cell_length_b       11.832
_cell_length_c       19.013
_cell_angle_alpha    90
_cell_angle_beta     90
_cell_angle_gamma    96.857

_space_group_name_H-M_alt    "P 1"
_space_group_IT_number       1

loop_
  _space_group_symop_operation_xyz
  'x, y, z'

loop_
  _atom_site_type_symbol
  _atom_site_label
  _atom_site_symmetry_multiplicity
  _atom_site_fract_x
  _atom_site_fract_y
  _atom_site_fract_z
  _atom_site_occupancy
  Mo  Mo1       1.0  0.76215  0.51620  0.14933  1.0000
  Mo  Mo2       1.0  0.23785  0.48380  0.64933  1.0000
  Mo  Mo3       1.0  0.25557  0.48706  0.15180  1.0000
  Mo  Mo4       1.0  0.74443  0.51294  0.65180  1.0000
  H   H1        1.0  0.82268  0.57759  0.37589  1.0000
  H   H2        1.0  0.17732  0.42241  0.87589  1.0000
  H   H3        1.0  0.95826  0.47672  0.47297  1.0000
  H   H4        1.0  0.04174  0.52328  0.97297  1.0000
  H   H5        1.0  0.12019  0.32880  0.51240  1.0000
  H   H6        1.0  0.87981  0.67120  0.01240  1.0000
  H   H7        1.0  0.25289  0.15164  0.49038  1.0000
  H   H8        1.0  0.74712  0.84835  0.99038  1.0000
  H   H9        1.0  0.21243  0.05482  0.37343  1.0000
  H   H10       1.0  0.78758  0.94518  0.87342  1.0000
  H   H11       1.0  0.05499  0.13708  0.27916  1.0000
  H   H12       1.0  0.94501  0.86294  0.77916  1.0000
  H   H13       1.0  0.89638  0.19510  0.21480  1.0000
  H   H14       1.0  0.10362  0.80489  0.71480  1.0000
  H   H15       1.0  0.79867  0.33060  0.98811  1.0000
  H   H16       1.0  0.20132  0.66940  0.48811  1.0000
  H   H17       1.0  0.99408  0.35570  0.03859  1.0000
  H   H18       1.0  0.00592  0.64430  0.53859  1.0000
  H   H19       1.0  0.63601  0.25526  0.08951  1.0000
  H   H20       1.0  0.36399  0.74474  0.58951  1.0000
  H   H21       1.0  0.99080  0.16859  0.10265  1.0000
  H   H22       1.0  0.00920  0.83141  0.60265  1.0000
  H   H23       1.0  0.78992  0.09509  0.13013  1.0000
  H   H24       1.0  0.21008  0.90491  0.63013  1.0000
  H   H25       1.0  0.68492  0.09042  0.00287  1.0000
  H   H26       1.0  0.31508  0.90958  0.50286  1.0000
  H   H27       1.0  0.89414  0.15317  0.97666  1.0000
  H   H28       1.0  0.10586  0.84683  0.47666  1.0000
  H   H29       1.0  0.86932  0.01748  0.01638  1.0000
  H   H30       1.0  0.13068  0.98252  0.51637  1.0000
  H   H31       1.0  0.33399  0.40959  0.37407  1.0000
  H   H32       1.0  0.66600  0.59042  0.87407  1.0000
  H   H33       1.0  0.47054  0.51792  0.47640  1.0000
  H   H34       1.0  0.52946  0.48208  0.97640  1.0000
  H   H35       1.0  0.63043  0.68431  0.52584  1.0000
  H   H36       1.0  0.36958  0.31570  0.02584  1.0000
  H   H37       1.0  0.77282  0.88204  0.51387  1.0000
  H   H38       1.0  0.22718  0.11796  0.01387  1.0000
  H   H39       1.0  0.76650  0.98203  0.39790  1.0000
  H   H40       1.0  0.23349  0.01798  0.89789  1.0000
  H   H41       1.0  0.62259  0.88744  0.29665  1.0000
  H   H42       1.0  0.37740  0.11256  0.79665  1.0000
  H   H43       1.0  0.51673  0.80433  0.21904  1.0000
  H   H44       1.0  0.48326  0.19567  0.71904  1.0000
  H   H45       1.0  0.54186  0.63081  0.03984  1.0000
  H   H46       1.0  0.45814  0.36919  0.53984  1.0000
  H   H47       1.0  0.36761  0.67992  0.99220  1.0000
  H   H48       1.0  0.63239  0.32008  0.49220  1.0000
  H   H49       1.0  0.50927  0.79777  0.10236  1.0000
  H   H50       1.0  0.49073  0.20223  0.60236  1.0000
  H   H51       1.0  0.11438  0.73817  0.09091  1.0000
  H   H52       1.0  0.88563  0.26183  0.59091  1.0000
  H   H53       1.0  0.21836  0.84755  0.14389  1.0000
  H   H54       1.0  0.78164  0.15245  0.64389  1.0000
  H   H55       1.0  0.36363  0.94386  0.03705  1.0000
  H   H56       1.0  0.63638  0.05613  0.53705  1.0000
  H   H57       1.0  0.25393  0.83697  0.98220  1.0000
  H   H58       1.0  0.74608  0.16302  0.48220  1.0000
  H   H59       1.0  0.13414  0.92856  0.02983  1.0000
  H   H60       1.0  0.86586  0.07144  0.52983  1.0000
  C   C1        1.0  0.90322  0.33855  0.28537  1.0000
  C   C2        1.0  0.09677  0.66146  0.78536  1.0000
  C   C3        1.0  0.85062  0.44661  0.29934  1.0000
  C   C4        1.0  0.14937  0.55340  0.79934  1.0000
  C   C5        1.0  0.86940  0.49541  0.36760  1.0000
  C   C6        1.0  0.13060  0.50459  0.86760  1.0000
  C   C7        1.0  0.94461  0.44010  0.42045  1.0000
  C   C8        1.0  0.05538  0.55990  0.92046  1.0000
  C   C9        1.0  0.01074  0.33491  0.40817  1.0000
  C   C10       1.0  0.98927  0.66509  0.90816  1.0000
  C   C11       1.0  0.10449  0.28588  0.46162  1.0000
  C   C12       1.0  0.89550  0.71412  0.96162  1.0000
  C   C13       1.0  0.17801  0.18728  0.44926  1.0000
  C   C14       1.0  0.82200  0.81272  0.94925  1.0000
  C   C15       1.0  0.15551  0.13325  0.38321  1.0000
  C   C16       1.0  0.84449  0.86675  0.88321  1.0000
  C   C17       1.0  0.06409  0.17951  0.33011  1.0000
  C   C18       1.0  0.93592  0.82049  0.83010  1.0000
  C   C19       1.0  0.99021  0.28245  0.34022  1.0000
  C   C20       1.0  0.00980  0.71755  0.84022  1.0000
  C   C21       1.0  0.86941  0.28356  0.21838  1.0000
  C   C22       1.0  0.13059  0.71644  0.71837  1.0000
  C   C23       1.0  0.85187  0.35393  0.04044  1.0000
  C   C24       1.0  0.14813  0.64607  0.54044  1.0000
  C   C25       1.0  0.77805  0.26840  0.09666  1.0000
  C   C26       1.0  0.22194  0.73160  0.59666  1.0000
  C   C27       1.0  0.85128  0.15479  0.09045  1.0000
  C   C28       1.0  0.14872  0.84521  0.59045  1.0000
  C   C29       1.0  0.82277  0.10137  0.01753  1.0000
  C   C30       1.0  0.17723  0.89863  0.51753  1.0000
  C   C31       1.0  0.45539  0.66482  0.29199  1.0000
  C   C32       1.0  0.54460  0.33519  0.79199  1.0000
  C   C33       1.0  0.38240  0.55077  0.30241  1.0000
  C   C34       1.0  0.61760  0.44923  0.80241  1.0000
  C   C35       1.0  0.39033  0.49787  0.36915  1.0000
  C   C36       1.0  0.60967  0.50212  0.86915  1.0000
  C   C37       1.0  0.46586  0.55750  0.42493  1.0000
  C   C38       1.0  0.53415  0.44251  0.92493  1.0000
  C   C39       1.0  0.54260  0.67200  0.41768  1.0000
  C   C40       1.0  0.45739  0.32800  0.91768  1.0000
  C   C41       1.0  0.62686  0.72930  0.47582  1.0000
  C   C42       1.0  0.37314  0.27070  0.97582  1.0000
  C   C43       1.0  0.70700  0.83920  0.46900  1.0000
  C   C44       1.0  0.29300  0.16080  0.96900  1.0000
  C   C45       1.0  0.70326  0.89515  0.40360  1.0000
  C   C46       1.0  0.29675  0.10486  0.90360  1.0000
  C   C47       1.0  0.62128  0.84083  0.34608  1.0000
  C   C48       1.0  0.37872  0.15917  0.84609  1.0000
  C   C49       1.0  0.53916  0.72726  0.35063  1.0000
  C   C50       1.0  0.46084  0.27274  0.85063  1.0000
  C   C51       1.0  0.45186  0.71720  0.22399  1.0000
  C   C52       1.0  0.54813  0.28280  0.72399  1.0000
  C   C53       1.0  0.40638  0.64872  0.04367  1.0000
  C   C54       1.0  0.59362  0.35128  0.54367  1.0000
  C   C55       1.0  0.39097  0.73582  0.10230  1.0000
  C   C56       1.0  0.60903  0.26418  0.60230  1.0000
  C   C57       1.0  0.23154  0.79986  0.09480  1.0000
  C   C58       1.0  0.76846  0.20013  0.59480  1.0000
  C   C59       1.0  0.24729  0.88158  0.03262  1.0000
  C   C60       1.0  0.75271  0.11842  0.53262  1.0000
  N   N1        1.0  0.80857  0.32974  0.16347  1.0000
  N   N2        1.0  0.19144  0.67026  0.66347  1.0000
  N   N3        1.0  0.38117  0.67038  0.16781  1.0000
  N   N4        1.0  0.61883  0.32962  0.66781  1.0000
  O   O1        1.0  0.53513  0.47811  0.14886  1.0000
  O   O2        1.0  0.46486  0.52189  0.64886  1.0000
  O   O3        1.0  0.78841  0.66103  0.13417  1.0000
  O   O4        1.0  0.21160  0.33897  0.63417  1.0000
  O   O5        1.0  0.77793  0.50756  0.25170  1.0000
  O   O6        1.0  0.22206  0.49244  0.75170  1.0000
  O   O7        1.0  0.80901  0.46425  0.05677  1.0000
  O   O8        1.0  0.19099  0.53575  0.55677  1.0000
  O   O9        1.0  0.04306  0.52445  0.16134  1.0000
  O   O10       1.0  0.95694  0.47555  0.66135  1.0000
  O   O11       1.0  0.22514  0.34319  0.13402  1.0000
  O   O12       1.0  0.77486  0.65681  0.63401  1.0000
  O   O13       1.0  0.30254  0.48635  0.25247  1.0000
  O   O14       1.0  0.69746  0.51365  0.75247  1.0000
  O   O15       1.0  0.29829  0.54621  0.05886  1.0000
  O   O16       1.0  0.70171  0.45379  0.55887  1.0000
