data_image0
_chemical_formula_structural       Zn2H26C28N10O2
_chemical_formula_sum              "Zn2 H26 C28 N10 O2"
_cell_length_a       6.17545
_cell_length_b       10.4072
_cell_length_c       11.2825
_cell_angle_alpha    67.0495
_cell_angle_beta     86.7732
_cell_angle_gamma    79.7983

_space_group_name_H-M_alt    "P 1"
_space_group_IT_number       1

loop_
  _space_group_symop_operation_xyz
  'x, y, z'

loop_
  _atom_site_type_symbol
  _atom_site_label
  _atom_site_symmetry_multiplicity
  _atom_site_fract_x
  _atom_site_fract_y
  _atom_site_fract_z
  _atom_site_occupancy
  Zn  Zn1       1.0  0.25329  0.45240  0.97131  1.0000
  Zn  Zn2       1.0  0.74670  0.54759  0.02869  1.0000
  H   H1        1.0  0.54126  0.55565  0.72519  1.0000
  H   H2        1.0  0.45874  0.44434  0.27482  1.0000
  H   H3        1.0  0.69860  0.46460  0.55717  1.0000
  H   H4        1.0  0.30141  0.53540  0.44283  1.0000
  H   H5        1.0  0.62859  0.22796  0.57345  1.0000
  H   H6        1.0  0.37140  0.77204  0.42654  1.0000
  H   H7        1.0  0.40941  0.08952  0.76051  1.0000
  H   H8        1.0  0.59058  0.91048  0.23948  1.0000
  H   H9        1.0  0.30444  0.06205  0.99500  1.0000
  H   H10       1.0  0.69556  0.93795  0.00500  1.0000
  H   H11       1.0  0.89530  0.12349  0.97989  1.0000
  H   H12       1.0  0.10470  0.87651  0.02011  1.0000
  H   H13       1.0  0.00817  0.13384  0.82742  1.0000
  H   H14       1.0  0.99183  0.86617  0.17258  1.0000
  H   H15       1.0  0.91346  0.29190  0.85712  1.0000
  H   H16       1.0  0.08653  0.70810  0.14288  1.0000
  H   H17       1.0  0.22250  0.04638  0.19467  1.0000
  H   H18       1.0  0.77749  0.95362  0.80533  1.0000
  H   H19       1.0  0.25782  0.00215  0.40742  1.0000
  H   H20       1.0  0.74218  0.99785  0.59258  1.0000
  H   H21       1.0  0.18864  0.06736  0.59680  1.0000
  H   H22       1.0  0.81136  0.93265  0.40320  1.0000
  H   H23       1.0  0.04273  0.32027  0.56138  1.0000
  H   H24       1.0  0.95727  0.67974  0.43862  1.0000
  H   H25       1.0  0.97398  0.50259  0.33902  1.0000
  H   H26       1.0  0.02601  0.49741  0.66098  1.0000
  C   C1        1.0  0.51766  0.45311  0.72811  1.0000
  C   C2        1.0  0.48235  0.54689  0.27190  1.0000
  C   C3        1.0  0.60414  0.40162  0.63575  1.0000
  C   C4        1.0  0.39586  0.59839  0.36425  1.0000
  C   C5        1.0  0.56557  0.26965  0.64594  1.0000
  C   C6        1.0  0.43443  0.73035  0.35406  1.0000
  C   C7        1.0  0.44493  0.19276  0.74913  1.0000
  C   C8        1.0  0.55507  0.80725  0.25086  1.0000
  C   C9        1.0  0.36505  0.25087  0.83907  1.0000
  C   C10       1.0  0.63495  0.74913  0.16092  1.0000
  C   C11       1.0  0.22473  0.17421  0.95029  1.0000
  C   C12       1.0  0.77527  0.82579  0.04971  1.0000
  C   C13       1.0  0.99493  0.18113  0.89969  1.0000
  C   C14       1.0  0.00507  0.81887  0.10031  1.0000
  C   C15       1.0  0.20029  0.16223  0.16415  1.0000
  C   C16       1.0  0.79971  0.83776  0.83586  1.0000
  C   C17       1.0  0.16503  0.21383  0.26655  1.0000
  C   C18       1.0  0.83496  0.78617  0.73345  1.0000
  C   C19       1.0  0.19874  0.11232  0.39358  1.0000
  C   C20       1.0  0.80127  0.88768  0.60643  1.0000
  C   C21       1.0  0.15896  0.14818  0.49988  1.0000
  C   C22       1.0  0.84104  0.85182  0.50012  1.0000
  C   C23       1.0  0.07592  0.28994  0.47892  1.0000
  C   C24       1.0  0.92408  0.71006  0.52108  1.0000
  C   C25       1.0  0.03758  0.39244  0.35507  1.0000
  C   C26       1.0  0.96242  0.60757  0.64493  1.0000
  C   C27       1.0  0.08682  0.35949  0.24490  1.0000
  C   C28       1.0  0.91318  0.64051  0.75510  1.0000
  N   N1        1.0  0.40086  0.37890  0.82741  1.0000
  N   N2        1.0  0.59915  0.62110  0.17259  1.0000
  N   N3        1.0  0.20347  0.24061  0.04315  1.0000
  N   N4        1.0  0.79653  0.75939  0.95685  1.0000
  N   N5        1.0  0.40206  0.63067  0.90917  1.0000
  N   N6        1.0  0.59795  0.36933  0.09084  1.0000
  N   N7        1.0  0.33724  0.75594  0.86083  1.0000
  N   N8        1.0  0.66278  0.24404  0.13918  1.0000
  N   N9        1.0  0.28443  0.87889  0.81455  1.0000
  N   N10       1.0  0.71558  0.12111  0.18545  1.0000
  O   O1        1.0  0.05999  0.46207  0.12842  1.0000
  O   O2        1.0  0.94001  0.53793  0.87158  1.0000
