data_image0
_chemical_formula_structural       Zn2H20C12S4N8O8
_chemical_formula_sum              "Zn2 H20 C12 S4 N8 O8"
_cell_length_a       7.78107
_cell_length_b       8.11695
_cell_length_c       10.9719
_cell_angle_alpha    89.7229
_cell_angle_beta     101.836
_cell_angle_gamma    102.535

_space_group_name_H-M_alt    "P 1"
_space_group_IT_number       1

loop_
  _space_group_symop_operation_xyz
  'x, y, z'

loop_
  _atom_site_type_symbol
  _atom_site_label
  _atom_site_symmetry_multiplicity
  _atom_site_fract_x
  _atom_site_fract_y
  _atom_site_fract_z
  _atom_site_occupancy
  Zn  Zn1       1.0  0.39902  0.86757  0.26625  1.0000
  Zn  Zn2       1.0  0.60098  0.13243  0.73375  1.0000
  H   H1        1.0  0.12115  0.13910  0.85106  1.0000
  H   H2        1.0  0.87885  0.86089  0.14893  1.0000
  H   H3        1.0  0.11772  0.25511  0.98559  1.0000
  H   H4        1.0  0.88228  0.74489  0.01441  1.0000
  H   H5        1.0  0.25835  0.92669  0.86473  1.0000
  H   H6        1.0  0.74165  0.07331  0.13527  1.0000
  H   H7        1.0  0.35089  0.84989  0.01119  1.0000
  H   H8        1.0  0.64911  0.15011  0.98881  1.0000
  H   H9        1.0  0.46713  0.61813  0.62087  1.0000
  H   H10       1.0  0.53288  0.38188  0.37913  1.0000
  H   H11       1.0  0.49443  0.78317  0.51382  1.0000
  H   H12       1.0  0.50557  0.21683  0.48619  1.0000
  H   H13       1.0  0.23705  0.39772  0.58352  1.0000
  H   H14       1.0  0.76295  0.60229  0.41649  1.0000
  H   H15       1.0  0.06697  0.38134  0.44712  1.0000
  H   H16       1.0  0.93303  0.61867  0.55288  1.0000
  H   H17       1.0  0.59713  0.38715  0.09113  1.0000
  H   H18       1.0  0.40285  0.61285  0.90887  1.0000
  H   H19       1.0  0.87460  0.96080  0.59350  1.0000
  H   H20       1.0  0.12541  0.03919  0.40650  1.0000
  C   C1        1.0  0.23872  0.05490  0.01687  1.0000
  C   C2        1.0  0.76128  0.94511  0.98313  1.0000
  C   C3        1.0  0.26845  0.59353  0.46596  1.0000
  C   C4        1.0  0.73155  0.40647  0.53404  1.0000
  C   C5        1.0  0.51921  0.60494  0.16212  1.0000
  C   C6        1.0  0.48078  0.39505  0.83788  1.0000
  C   C7        1.0  0.53221  0.49079  0.06060  1.0000
  C   C8        1.0  0.46777  0.50921  0.93940  1.0000
  C   C9        1.0  0.76770  0.97232  0.39044  1.0000
  C   C10       1.0  0.23231  0.02768  0.60956  1.0000
  C   C11       1.0  0.91290  0.98302  0.50358  1.0000
  C   C12       1.0  0.08711  0.01698  0.49642  1.0000
  S   S1        1.0  0.29597  0.09806  0.17584  1.0000
  S   S2        1.0  0.70403  0.90195  0.82415  1.0000
  S   S3        1.0  0.16820  0.67544  0.33142  1.0000
  S   S4        1.0  0.83180  0.32456  0.66858  1.0000
  N   N1        1.0  0.15127  0.15813  0.94563  1.0000
  N   N2        1.0  0.84873  0.84187  0.05436  1.0000
  N   N3        1.0  0.27715  0.92705  0.96054  1.0000
  N   N4        1.0  0.72285  0.07294  0.03946  1.0000
  N   N5        1.0  0.42095  0.67354  0.54024  1.0000
  N   N6        1.0  0.57905  0.32646  0.45976  1.0000
  N   N7        1.0  0.18519  0.44338  0.50011  1.0000
  N   N8        1.0  0.81481  0.55663  0.49990  1.0000
  O   O1        1.0  0.45080  0.73453  0.12979  1.0000
  O   O2        1.0  0.54919  0.26547  0.87021  1.0000
  O   O3        1.0  0.57378  0.57160  0.27338  1.0000
  O   O4        1.0  0.42622  0.42839  0.72662  1.0000
  O   O5        1.0  0.60501  0.93448  0.41047  1.0000
  O   O6        1.0  0.39499  0.06553  0.58953  1.0000
  O   O7        1.0  0.80631  0.99781  0.28543  1.0000
  O   O8        1.0  0.19369  0.00219  0.71457  1.0000
