data_image0
_chemical_formula_structural       Zn4H16C32N32
_chemical_formula_sum              "Zn4 H16 C32 N32"
_cell_length_a       5.61203
_cell_length_b       9.87958
_cell_length_c       18.3819
_cell_angle_alpha    90.0005
_cell_angle_beta     90.0004
_cell_angle_gamma    100.305

_space_group_name_H-M_alt    "P 1"
_space_group_IT_number       1

loop_
  _space_group_symop_operation_xyz
  'x, y, z'

loop_
  _atom_site_type_symbol
  _atom_site_label
  _atom_site_symmetry_multiplicity
  _atom_site_fract_x
  _atom_site_fract_y
  _atom_site_fract_z
  _atom_site_occupancy
  Zn  Zn1       1.0  0.72049  0.30094  0.15132  1.0000
  Zn  Zn2       1.0  0.27951  0.19906  0.65132  1.0000
  Zn  Zn3       1.0  0.27951  0.69906  0.84868  1.0000
  Zn  Zn4       1.0  0.72049  0.80095  0.34868  1.0000
  H   H1        1.0  0.20336  0.42579  0.90608  1.0000
  H   H2        1.0  0.79663  0.07421  0.40608  1.0000
  H   H3        1.0  0.79665  0.57421  0.09392  1.0000
  H   H4        1.0  0.20337  0.92579  0.59392  1.0000
  H   H5        1.0  0.72513  0.29225  0.76218  1.0000
  H   H6        1.0  0.27487  0.20777  0.26219  1.0000
  H   H7        1.0  0.27486  0.70775  0.23781  1.0000
  H   H8        1.0  0.72513  0.79224  0.73781  1.0000
  H   H9        1.0  0.87853  0.17151  0.86466  1.0000
  H   H10       1.0  0.12147  0.32850  0.36466  1.0000
  H   H11       1.0  0.12145  0.82847  0.13534  1.0000
  H   H12       1.0  0.87854  0.67151  0.63534  1.0000
  H   H13       1.0  0.69567  0.17487  0.98776  1.0000
  H   H14       1.0  0.30434  0.32513  0.48776  1.0000
  H   H15       1.0  0.30432  0.82511  0.01224  1.0000
  H   H16       1.0  0.69568  0.67488  0.51223  1.0000
  C   C1        1.0  0.44506  0.30681  0.95541  1.0000
  C   C2        1.0  0.55494  0.19319  0.45541  1.0000
  C   C3        1.0  0.55494  0.69319  0.04459  1.0000
  C   C4        1.0  0.44507  0.80681  0.54459  1.0000
  C   C5        1.0  0.35678  0.37416  0.89690  1.0000
  C   C6        1.0  0.64321  0.12584  0.39689  1.0000
  C   C7        1.0  0.64322  0.62584  0.10311  1.0000
  C   C8        1.0  0.35679  0.87416  0.60311  1.0000
  C   C9        1.0  0.45478  0.36884  0.82729  1.0000
  C   C10       1.0  0.54522  0.13116  0.32729  1.0000
  C   C11       1.0  0.54521  0.63115  0.17271  1.0000
  C   C12       1.0  0.45479  0.86884  0.67271  1.0000
  C   C13       1.0  0.64637  0.29702  0.81618  1.0000
  C   C14       1.0  0.35362  0.20298  0.31618  1.0000
  C   C15       1.0  0.35360  0.70297  0.18382  1.0000
  C   C16       1.0  0.64638  0.79701  0.68382  1.0000
  C   C17       1.0  0.73243  0.22872  0.87424  1.0000
  C   C18       1.0  0.26757  0.27129  0.37424  1.0000
  C   C19       1.0  0.26755  0.77127  0.12576  1.0000
  C   C20       1.0  0.73244  0.72871  0.62576  1.0000
  C   C21       1.0  0.63130  0.23196  0.94349  1.0000
  C   C22       1.0  0.36870  0.26804  0.44350  1.0000
  C   C23       1.0  0.36869  0.76803  0.05651  1.0000
  C   C24       1.0  0.63131  0.73197  0.55650  1.0000
  C   C25       1.0  0.32459  0.31120  0.02565  1.0000
  C   C26       1.0  0.67540  0.18879  0.52565  1.0000
  C   C27       1.0  0.67541  0.68880  0.97435  1.0000
  C   C28       1.0  0.32460  0.81121  0.47435  1.0000
  C   C29       1.0  0.34429  0.43347  0.76766  1.0000
  C   C30       1.0  0.65570  0.06653  0.26765  1.0000
  C   C31       1.0  0.65570  0.56653  0.23234  1.0000
  C   C32       1.0  0.34430  0.93347  0.73234  1.0000
  N   N1        1.0  0.41489  0.29872  0.09366  1.0000
  N   N2        1.0  0.58511  0.20128  0.59366  1.0000
  N   N3        1.0  0.58512  0.70129  0.90634  1.0000
  N   N4        1.0  0.41489  0.79872  0.40634  1.0000
  N   N5        1.0  0.23512  0.30590  0.14075  1.0000
  N   N6        1.0  0.76487  0.19410  0.64075  1.0000
  N   N7        1.0  0.76488  0.69410  0.85925  1.0000
  N   N8        1.0  0.23513  0.80591  0.35925  1.0000
  N   N9        1.0  0.04577  0.32291  0.10195  1.0000
  N   N10       1.0  0.95423  0.17709  0.60195  1.0000
  N   N11       1.0  0.95423  0.67709  0.89805  1.0000
  N   N12       1.0  0.04578  0.82293  0.39805  1.0000
  N   N13       1.0  0.09301  0.32738  0.03070  1.0000
  N   N14       1.0  0.90699  0.17261  0.53070  1.0000
  N   N15       1.0  0.90699  0.67262  0.96930  1.0000
  N   N16       1.0  0.09301  0.82739  0.46930  1.0000
  N   N17       1.0  0.25896  0.55213  0.77267  1.0000
  N   N18       1.0  0.74104  0.94788  0.27267  1.0000
  N   N19       1.0  0.74104  0.44787  0.22733  1.0000
  N   N20       1.0  0.25897  0.05212  0.72733  1.0000
  N   N21       1.0  0.15539  0.57241  0.70777  1.0000
  N   N22       1.0  0.84460  0.92759  0.20777  1.0000
  N   N23       1.0  0.84460  0.42759  0.29223  1.0000
  N   N24       1.0  0.15540  0.07241  0.79223  1.0000
  N   N25       1.0  0.17638  0.47147  0.66458  1.0000
  N   N26       1.0  0.82360  0.02853  0.16458  1.0000
  N   N27       1.0  0.82361  0.52853  0.33542  1.0000
  N   N28       1.0  0.17639  0.97147  0.83542  1.0000
  N   N29       1.0  0.29402  0.38225  0.70042  1.0000
  N   N30       1.0  0.70597  0.11775  0.20042  1.0000
  N   N31       1.0  0.70598  0.61775  0.29958  1.0000
  N   N32       1.0  0.29403  0.88225  0.79958  1.0000
