data_image0
_chemical_formula_structural       V8Cu4H32C28N16O24
_chemical_formula_sum              "V8 Cu4 H32 C28 N16 O24"
_cell_length_a       8.56432
_cell_length_b       10.4019
_cell_length_c       14.772
_cell_angle_alpha    90
_cell_angle_beta     90
_cell_angle_gamma    114.309

_space_group_name_H-M_alt    "P 1"
_space_group_IT_number       1

loop_
  _space_group_symop_operation_xyz
  'x, y, z'

loop_
  _atom_site_type_symbol
  _atom_site_label
  _atom_site_symmetry_multiplicity
  _atom_site_fract_x
  _atom_site_fract_y
  _atom_site_fract_z
  _atom_site_occupancy
  V   V1        1.0  0.29473  0.45906  0.85216  1.0000
  V   V2        1.0  0.70528  0.04094  0.35215  1.0000
  V   V3        1.0  0.70527  0.54094  0.14783  1.0000
  V   V4        1.0  0.29472  0.95906  0.64785  1.0000
  V   V5        1.0  0.18000  0.23227  0.68625  1.0000
  V   V6        1.0  0.81999  0.26774  0.18625  1.0000
  V   V7        1.0  0.82000  0.76773  0.31375  1.0000
  V   V8        1.0  0.18000  0.73226  0.81375  1.0000
  Cu  Cu1       1.0  0.74127  0.57580  0.88074  1.0000
  Cu  Cu2       1.0  0.25874  0.92419  0.38072  1.0000
  Cu  Cu3       1.0  0.25873  0.42419  0.11926  1.0000
  Cu  Cu4       1.0  0.74127  0.07580  0.61928  1.0000
  H   H1        1.0  0.61633  0.95842  0.04628  1.0000
  H   H2        1.0  0.38367  0.54158  0.54628  1.0000
  H   H3        1.0  0.38367  0.04158  0.95372  1.0000
  H   H4        1.0  0.61633  0.45842  0.45371  1.0000
  H   H5        1.0  0.51663  0.67263  0.00453  1.0000
  H   H6        1.0  0.48337  0.82736  0.50452  1.0000
  H   H7        1.0  0.48337  0.32737  0.99547  1.0000
  H   H8        1.0  0.51665  0.17264  0.49547  1.0000
  H   H9        1.0  0.94018  0.91836  0.84121  1.0000
  H   H10       1.0  0.05981  0.58162  0.34121  1.0000
  H   H11       1.0  0.05981  0.08164  0.15879  1.0000
  H   H12       1.0  0.94020  0.41838  0.65879  1.0000
  H   H13       1.0  0.01584  0.15655  0.90231  1.0000
  H   H14       1.0  0.98415  0.34345  0.40231  1.0000
  H   H15       1.0  0.98415  0.84345  0.09769  1.0000
  H   H16       1.0  0.01585  0.65655  0.59768  1.0000
  H   H17       1.0  0.93228  0.17120  0.01154  1.0000
  H   H18       1.0  0.06771  0.32879  0.51154  1.0000
  H   H19       1.0  0.06772  0.82880  0.98846  1.0000
  H   H20       1.0  0.93229  0.67121  0.48846  1.0000
  H   H21       1.0  0.54653  0.27962  0.76972  1.0000
  H   H22       1.0  0.45347  0.22039  0.26973  1.0000
  H   H23       1.0  0.45346  0.72038  0.23027  1.0000
  H   H24       1.0  0.54653  0.77961  0.73028  1.0000
  H   H25       1.0  0.62195  0.05280  0.81171  1.0000
  H   H26       1.0  0.37805  0.44721  0.31171  1.0000
  H   H27       1.0  0.37805  0.94720  0.18829  1.0000
  H   H28       1.0  0.62195  0.55278  0.68829  1.0000
  H   H29       1.0  0.93374  0.40409  0.97024  1.0000
  H   H30       1.0  0.06625  0.09592  0.47024  1.0000
  H   H31       1.0  0.06625  0.59591  0.02976  1.0000
  H   H32       1.0  0.93375  0.90408  0.52977  1.0000
  C   C1        1.0  0.66352  0.90489  0.99747  1.0000
  C   C2        1.0  0.33647  0.59510  0.49747  1.0000
  C   C3        1.0  0.33647  0.09511  0.00253  1.0000
  C   C4        1.0  0.66354  0.40489  0.50253  1.0000
  C   C5        1.0  0.61830  0.76583  0.97667  1.0000
  C   C6        1.0  0.38170  0.73416  0.47666  1.0000
  C   C7        1.0  0.38170  0.23417  0.02333  1.0000
  C   C8        1.0  0.61831  0.26584  0.52334  1.0000
  C   C9        1.0  0.83660  0.88761  0.89003  1.0000
  C   C10       1.0  0.16341  0.61237  0.39003  1.0000
  C   C11       1.0  0.16340  0.11239  0.10997  1.0000
  C   C12       1.0  0.83659  0.38763  0.60997  1.0000
  C   C13       1.0  0.89881  0.13182  0.94214  1.0000
  C   C14       1.0  0.10118  0.36817  0.44215  1.0000
  C   C15       1.0  0.10119  0.86817  0.05785  1.0000
  C   C16       1.0  0.89882  0.63183  0.55785  1.0000
  C   C17       1.0  0.64097  0.27375  0.81624  1.0000
  C   C18       1.0  0.35902  0.22626  0.31623  1.0000
  C   C19       1.0  0.35902  0.72625  0.18376  1.0000
  C   C20       1.0  0.64098  0.77373  0.68377  1.0000
  C   C21       1.0  0.67834  0.16042  0.83613  1.0000
  C   C22       1.0  0.32166  0.33960  0.33613  1.0000
  C   C23       1.0  0.32166  0.83958  0.16387  1.0000
  C   C24       1.0  0.67834  0.66040  0.66387  1.0000
  C   C25       1.0  0.83959  0.34341  0.92064  1.0000
  C   C26       1.0  0.16040  0.15659  0.42063  1.0000
  C   C27       1.0  0.16040  0.65659  0.07936  1.0000
  C   C28       1.0  0.83961  0.84341  0.57937  1.0000
  N   N1        1.0  0.72779  0.75678  0.91049  1.0000
  N   N2        1.0  0.27222  0.74319  0.41047  1.0000
  N   N3        1.0  0.27222  0.24321  0.08951  1.0000
  N   N4        1.0  0.72779  0.25681  0.58953  1.0000
  N   N5        1.0  0.80161  0.98074  0.94210  1.0000
  N   N6        1.0  0.19839  0.51924  0.44210  1.0000
  N   N7        1.0  0.19839  0.01925  0.05790  1.0000
  N   N8        1.0  0.80162  0.48076  0.55790  1.0000
  N   N9        1.0  0.80303  0.20645  0.90259  1.0000
  N   N10       1.0  0.19697  0.29356  0.40259  1.0000
  N   N11       1.0  0.19697  0.79355  0.09741  1.0000
  N   N12       1.0  0.80303  0.70644  0.59741  1.0000
  N   N13       1.0  0.74334  0.38708  0.86896  1.0000
  N   N14       1.0  0.25664  0.11292  0.36894  1.0000
  N   N15       1.0  0.25665  0.61292  0.13104  1.0000
  N   N16       1.0  0.74336  0.88707  0.63106  1.0000
  O   O1        1.0  0.32243  0.36042  0.62824  1.0000
  O   O2        1.0  0.67756  0.13958  0.12824  1.0000
  O   O3        1.0  0.67756  0.63958  0.37176  1.0000
  O   O4        1.0  0.32243  0.86042  0.87176  1.0000
  O   O5        1.0  0.25189  0.09430  0.70201  1.0000
  O   O6        1.0  0.74812  0.40572  0.20200  1.0000
  O   O7        1.0  0.74812  0.90571  0.29799  1.0000
  O   O8        1.0  0.25188  0.59428  0.79800  1.0000
  O   O9        1.0  0.24249  0.44976  0.95970  1.0000
  O   O10       1.0  0.75737  0.05023  0.45970  1.0000
  O   O11       1.0  0.75751  0.55023  0.04029  1.0000
  O   O12       1.0  0.24263  0.94978  0.54030  1.0000
  O   O13       1.0  0.99033  0.17284  0.63058  1.0000
  O   O14       1.0  0.00966  0.32715  0.13058  1.0000
  O   O15       1.0  0.00967  0.82716  0.36942  1.0000
  O   O16       1.0  0.99034  0.67286  0.86942  1.0000
  O   O17       1.0  0.16072  0.29416  0.79792  1.0000
  O   O18       1.0  0.83927  0.20585  0.29792  1.0000
  O   O19       1.0  0.83926  0.70584  0.20208  1.0000
  O   O20       1.0  0.16071  0.79415  0.70209  1.0000
  O   O21       1.0  0.50411  0.49388  0.84157  1.0000
  O   O22       1.0  0.49587  0.00611  0.34164  1.0000
  O   O23       1.0  0.49590  0.50613  0.15844  1.0000
  O   O24       1.0  0.50414  0.99390  0.65835  1.0000
