data_image0
_chemical_formula_structural       Cu4H44Pt4C56N28
_chemical_formula_sum              "Cu4 H44 Pt4 C56 N28"
_cell_length_a       10.636
_cell_length_b       10.6422
_cell_length_c       14.89
_cell_angle_alpha    74.3628
_cell_angle_beta     74.3533
_cell_angle_gamma    80.3843

_space_group_name_H-M_alt    "P 1"
_space_group_IT_number       1

loop_
  _space_group_symop_operation_xyz
  'x, y, z'

loop_
  _atom_site_type_symbol
  _atom_site_label
  _atom_site_symmetry_multiplicity
  _atom_site_fract_x
  _atom_site_fract_y
  _atom_site_fract_z
  _atom_site_occupancy
  Cu  Cu1       1.0  0.69050  0.21880  0.59035  1.0000
  Cu  Cu2       1.0  0.78115  0.30947  0.90961  1.0000
  Cu  Cu3       1.0  0.30951  0.78120  0.40965  1.0000
  Cu  Cu4       1.0  0.21884  0.69053  0.09039  1.0000
  H   H1        1.0  0.76249  0.46941  0.61602  1.0000
  H   H2        1.0  0.53039  0.23743  0.88396  1.0000
  H   H3        1.0  0.23752  0.53059  0.38398  1.0000
  H   H4        1.0  0.46960  0.76256  0.11605  1.0000
  H   H5        1.0  0.96715  0.54025  0.63360  1.0000
  H   H6        1.0  0.45953  0.03286  0.86639  1.0000
  H   H7        1.0  0.03286  0.45976  0.36639  1.0000
  H   H8        1.0  0.54046  0.96713  0.13362  1.0000
  H   H9        1.0  0.16610  0.37707  0.63896  1.0000
  H   H10       1.0  0.62281  0.83402  0.86105  1.0000
  H   H11       1.0  0.83391  0.62294  0.36104  1.0000
  H   H12       1.0  0.37718  0.16597  0.13895  1.0000
  H   H13       1.0  0.15181  0.14759  0.63464  1.0000
  H   H14       1.0  0.85241  0.84833  0.86537  1.0000
  H   H15       1.0  0.84820  0.85241  0.36536  1.0000
  H   H16       1.0  0.14759  0.15167  0.13462  1.0000
  H   H17       1.0  0.11459  0.95505  0.64553  1.0000
  H   H18       1.0  0.04499  0.88552  0.85449  1.0000
  H   H19       1.0  0.88542  0.04496  0.35448  1.0000
  H   H20       1.0  0.95501  0.11448  0.14550  1.0000
  H   H21       1.0  0.05964  0.74032  0.64049  1.0000
  H   H22       1.0  0.25986  0.94042  0.85952  1.0000
  H   H23       1.0  0.94037  0.25969  0.35951  1.0000
  H   H24       1.0  0.74013  0.05959  0.14047  1.0000
  H   H25       1.0  0.83600  0.72644  0.61418  1.0000
  H   H26       1.0  0.27374  0.16396  0.88583  1.0000
  H   H27       1.0  0.16401  0.27356  0.38583  1.0000
  H   H28       1.0  0.72626  0.83605  0.11417  1.0000
  H   H29       1.0  0.68333  0.92629  0.59394  1.0000
  H   H30       1.0  0.07379  0.31656  0.90605  1.0000
  H   H31       1.0  0.31668  0.07370  0.40606  1.0000
  H   H32       1.0  0.92620  0.68344  0.09395  1.0000
  H   H33       1.0  0.59334  0.10815  0.49444  1.0000
  H   H34       1.0  0.89186  0.40663  0.00554  1.0000
  H   H35       1.0  0.40667  0.89185  0.50556  1.0000
  H   H36       1.0  0.10813  0.59336  0.99446  1.0000
  H   H37       1.0  0.48470  0.22166  0.53450  1.0000
  H   H38       1.0  0.77828  0.51519  0.96550  1.0000
  H   H39       1.0  0.51531  0.77834  0.46550  1.0000
  H   H40       1.0  0.22171  0.48481  0.03450  1.0000
  H   H41       1.0  0.50022  0.07527  0.60580  1.0000
  H   H42       1.0  0.92476  0.49970  0.89419  1.0000
  H   H43       1.0  0.49979  0.92472  0.39420  1.0000
  H   H44       1.0  0.07523  0.50029  0.10581  1.0000
  Pt  Pt1       1.0  0.30092  0.49565  0.75320  1.0000
  Pt  Pt2       1.0  0.50438  0.69903  0.74681  1.0000
  Pt  Pt3       1.0  0.69908  0.50435  0.24681  1.0000
  Pt  Pt4       1.0  0.49562  0.30097  0.25319  1.0000
  C   C1        1.0  0.45554  0.38538  0.69759  1.0000
  C   C2        1.0  0.61460  0.54440  0.80240  1.0000
  C   C3        1.0  0.54446  0.61462  0.30241  1.0000
  C   C4        1.0  0.38540  0.45560  0.19760  1.0000
  C   C5        1.0  0.31636  0.39896  0.88439  1.0000
  C   C6        1.0  0.60109  0.68358  0.61559  1.0000
  C   C7        1.0  0.68363  0.60104  0.11561  1.0000
  C   C8        1.0  0.39892  0.31643  0.38441  1.0000
  C   C9        1.0  0.14518  0.60237  0.81235  1.0000
  C   C10       1.0  0.39768  0.85476  0.68768  1.0000
  C   C11       1.0  0.85483  0.39762  0.18765  1.0000
  C   C12       1.0  0.60232  0.14525  0.31232  1.0000
  C   C13       1.0  0.28442  0.59456  0.62304  1.0000
  C   C14       1.0  0.40545  0.71556  0.87697  1.0000
  C   C15       1.0  0.71557  0.40544  0.37695  1.0000
  C   C16       1.0  0.59455  0.28443  0.12303  1.0000
  C   C17       1.0  0.84974  0.40105  0.62280  1.0000
  C   C18       1.0  0.59880  0.15024  0.87718  1.0000
  C   C19       1.0  0.15027  0.59895  0.37720  1.0000
  C   C20       1.0  0.40119  0.84976  0.12282  1.0000
  C   C21       1.0  0.96417  0.43946  0.63150  1.0000
  C   C22       1.0  0.56037  0.03586  0.86849  1.0000
  C   C23       1.0  0.03584  0.56055  0.36849  1.0000
  C   C24       1.0  0.43962  0.96414  0.13153  1.0000
  C   C25       1.0  0.07425  0.34838  0.63545  1.0000
  C   C26       1.0  0.65150  0.92582  0.86456  1.0000
  C   C27       1.0  0.92575  0.65162  0.36455  1.0000
  C   C28       1.0  0.34849  0.07417  0.13545  1.0000
  C   C29       1.0  0.06641  0.22005  0.63294  1.0000
  C   C30       1.0  0.77990  0.93367  0.86707  1.0000
  C   C31       1.0  0.93359  0.77996  0.36706  1.0000
  C   C32       1.0  0.22009  0.06633  0.13293  1.0000
  C   C33       1.0  0.94810  0.18709  0.62607  1.0000
  C   C34       1.0  0.81286  0.05192  0.87394  1.0000
  C   C35       1.0  0.05190  0.81291  0.37393  1.0000
  C   C36       1.0  0.18713  0.94808  0.12606  1.0000
  C   C37       1.0  0.92671  0.05579  0.62302  1.0000
  C   C38       1.0  0.94422  0.07330  0.87699  1.0000
  C   C39       1.0  0.07329  0.94421  0.37698  1.0000
  C   C40       1.0  0.05577  0.92671  0.12301  1.0000
  C   C41       1.0  0.01919  0.94651  0.63472  1.0000
  C   C42       1.0  0.05355  0.98086  0.86530  1.0000
  C   C43       1.0  0.98082  0.05350  0.36528  1.0000
  C   C44       1.0  0.94644  0.01914  0.13469  1.0000
  C   C45       1.0  0.98801  0.82577  0.63212  1.0000
  C   C46       1.0  0.17437  0.01201  0.86789  1.0000
  C   C47       1.0  0.01200  0.17423  0.36788  1.0000
  C   C48       1.0  0.82563  0.98799  0.13211  1.0000
  C   C49       1.0  0.86601  0.81742  0.61765  1.0000
  C   C50       1.0  0.18272  0.13396  0.88236  1.0000
  C   C51       1.0  0.13400  0.18258  0.38235  1.0000
  C   C52       1.0  0.81727  0.86605  0.11764  1.0000
  C   C53       1.0  0.77885  0.93031  0.60591  1.0000
  C   C54       1.0  0.06977  0.22107  0.89410  1.0000
  C   C55       1.0  0.22116  0.06969  0.39410  1.0000
  C   C56       1.0  0.93022  0.77893  0.10590  1.0000
  N   N1        1.0  0.54895  0.32072  0.66653  1.0000
  N   N2        1.0  0.67921  0.45099  0.83345  1.0000
  N   N3        1.0  0.45105  0.67928  0.33347  1.0000
  N   N4        1.0  0.32078  0.54901  0.16655  1.0000
  N   N5        1.0  0.32218  0.34331  0.96311  1.0000
  N   N6        1.0  0.65672  0.67779  0.53687  1.0000
  N   N7        1.0  0.67781  0.65669  0.03689  1.0000
  N   N8        1.0  0.34330  0.32222  0.46312  1.0000
  N   N9        1.0  0.05318  0.66230  0.85129  1.0000
  N   N10       1.0  0.33778  0.94675  0.64874  1.0000
  N   N11       1.0  0.94682  0.33769  0.14872  1.0000
  N   N12       1.0  0.66222  0.05326  0.35125  1.0000
  N   N13       1.0  0.27413  0.65647  0.54689  1.0000
  N   N14       1.0  0.34355  0.72589  0.95312  1.0000
  N   N15       1.0  0.72588  0.34352  0.45311  1.0000
  N   N16       1.0  0.65645  0.27410  0.04687  1.0000
  N   N17       1.0  0.84280  0.27776  0.62028  1.0000
  N   N18       1.0  0.72215  0.15719  0.87970  1.0000
  N   N19       1.0  0.15721  0.72225  0.37972  1.0000
  N   N20       1.0  0.27784  0.84281  0.12030  1.0000
  N   N21       1.0  0.80799  0.04685  0.60845  1.0000
  N   N22       1.0  0.95317  0.19197  0.89155  1.0000
  N   N23       1.0  0.19201  0.95315  0.39155  1.0000
  N   N24       1.0  0.04683  0.80803  0.10845  1.0000
  N   N25       1.0  0.55271  0.14508  0.55418  1.0000
  N   N26       1.0  0.85492  0.44722  0.94580  1.0000
  N   N27       1.0  0.44730  0.85492  0.44581  1.0000
  N   N28       1.0  0.14507  0.55278  0.05421  1.0000
