data_image0
_chemical_formula_structural       Cd2H36C40N8O8
_chemical_formula_sum              "Cd2 H36 C40 N8 O8"
_cell_length_a       9.52053
_cell_length_b       9.73843
_cell_length_c       10.7249
_cell_angle_alpha    90.0001
_cell_angle_beta     89.9999
_cell_angle_gamma    114.09

_space_group_name_H-M_alt    "P 1"
_space_group_IT_number       1

loop_
  _space_group_symop_operation_xyz
  'x, y, z'

loop_
  _atom_site_type_symbol
  _atom_site_label
  _atom_site_symmetry_multiplicity
  _atom_site_fract_x
  _atom_site_fract_y
  _atom_site_fract_z
  _atom_site_occupancy
  Cd  Cd1       1.0  0.50000  0.50000  0.50000  1.0000
  Cd  Cd2       1.0  0.00000  0.00000  0.00000  1.0000
  H   H1        1.0  0.21446  0.59003  0.59043  1.0000
  H   H2        1.0  0.28554  0.90997  0.09043  1.0000
  H   H3        1.0  0.78554  0.40997  0.40957  1.0000
  H   H4        1.0  0.71446  0.09003  0.90957  1.0000
  H   H5        1.0  0.40871  0.03666  0.74843  1.0000
  H   H6        1.0  0.09129  0.46334  0.24843  1.0000
  H   H7        1.0  0.59129  0.96334  0.25157  1.0000
  H   H8        1.0  0.90871  0.53666  0.75157  1.0000
  H   H9        1.0  0.66127  0.06668  0.66100  1.0000
  H   H10       1.0  0.83873  0.43332  0.16100  1.0000
  H   H11       1.0  0.33873  0.93331  0.33900  1.0000
  H   H12       1.0  0.16127  0.56668  0.83900  1.0000
  H   H13       1.0  0.68101  0.85179  0.54372  1.0000
  H   H14       1.0  0.81899  0.64821  0.04372  1.0000
  H   H15       1.0  0.31899  0.14821  0.45628  1.0000
  H   H16       1.0  0.18101  0.35179  0.95628  1.0000
  H   H17       1.0  0.12599  0.24285  0.22784  1.0000
  H   H18       1.0  0.37401  0.25715  0.72784  1.0000
  H   H19       1.0  0.87401  0.75715  0.77216  1.0000
  H   H20       1.0  0.62599  0.74285  0.27216  1.0000
  H   H21       1.0  0.61410  0.50353  0.18977  1.0000
  H   H22       1.0  0.88590  0.99647  0.68977  1.0000
  H   H23       1.0  0.38590  0.49647  0.81023  1.0000
  H   H24       1.0  0.11410  0.00353  0.31023  1.0000
  H   H25       1.0  0.61146  0.32953  0.01489  1.0000
  H   H26       1.0  0.88854  0.17047  0.51489  1.0000
  H   H27       1.0  0.38854  0.67047  0.98511  1.0000
  H   H28       1.0  0.11147  0.82953  0.48511  1.0000
  H   H29       1.0  0.36064  0.12410  0.95158  1.0000
  H   H30       1.0  0.13936  0.37590  0.45158  1.0000
  H   H31       1.0  0.63936  0.87590  0.04842  1.0000
  H   H32       1.0  0.86064  0.62410  0.54842  1.0000
  H   H33       1.0  0.14621  0.87946  0.75931  1.0000
  H   H34       1.0  0.35379  0.62054  0.25931  1.0000
  H   H35       1.0  0.85379  0.12054  0.24069  1.0000
  H   H36       1.0  0.64621  0.37946  0.74069  1.0000
  C   C1        1.0  0.31176  0.69730  0.60673  1.0000
  C   C2        1.0  0.18824  0.80270  0.10673  1.0000
  C   C3        1.0  0.68824  0.30270  0.39327  1.0000
  C   C4        1.0  0.81176  0.19730  0.89327  1.0000
  C   C5        1.0  0.29021  0.81100  0.67460  1.0000
  C   C6        1.0  0.20979  0.68900  0.17459  1.0000
  C   C7        1.0  0.70979  0.18900  0.32541  1.0000
  C   C8        1.0  0.79021  0.31100  0.82541  1.0000
  C   C9        1.0  0.41936  0.94604  0.69551  1.0000
  C   C10       1.0  0.08065  0.55396  0.19551  1.0000
  C   C11       1.0  0.58064  0.05396  0.30449  1.0000
  C   C12       1.0  0.91936  0.44604  0.80449  1.0000
  C   C13       1.0  0.56052  0.96183  0.64742  1.0000
  C   C14       1.0  0.93948  0.53817  0.14742  1.0000
  C   C15       1.0  0.43948  0.03817  0.35258  1.0000
  C   C16       1.0  0.06052  0.46183  0.85258  1.0000
  C   C17       1.0  0.57200  0.84363  0.58176  1.0000
  C   C18       1.0  0.92800  0.65637  0.08176  1.0000
  C   C19       1.0  0.42800  0.15637  0.41824  1.0000
  C   C20       1.0  0.07200  0.34363  0.91824  1.0000
  C   C21       1.0  0.23603  0.26614  0.18257  1.0000
  C   C22       1.0  0.26397  0.23386  0.68257  1.0000
  C   C23       1.0  0.76397  0.73386  0.81743  1.0000
  C   C24       1.0  0.73603  0.76614  0.31743  1.0000
  C   C25       1.0  0.36982  0.38978  0.22257  1.0000
  C   C26       1.0  0.13018  0.11022  0.72257  1.0000
  C   C27       1.0  0.63018  0.61022  0.77743  1.0000
  C   C28       1.0  0.86982  0.88978  0.27743  1.0000
  C   C29       1.0  0.50808  0.41077  0.16079  1.0000
  C   C30       1.0  0.99192  0.08924  0.66079  1.0000
  C   C31       1.0  0.49192  0.58923  0.83921  1.0000
  C   C32       1.0  0.00808  0.91077  0.33921  1.0000
  C   C33       1.0  0.50674  0.31445  0.06493  1.0000
  C   C34       1.0  0.99326  0.18555  0.56493  1.0000
  C   C35       1.0  0.49326  0.68555  0.93507  1.0000
  C   C36       1.0  0.00674  0.81445  0.43507  1.0000
  C   C37       1.0  0.36843  0.19817  0.02981  1.0000
  C   C38       1.0  0.13157  0.30183  0.52981  1.0000
  C   C39       1.0  0.63157  0.80183  0.97019  1.0000
  C   C40       1.0  0.86843  0.69817  0.47019  1.0000
  N   N1        1.0  0.44938  0.71317  0.56248  1.0000
  N   N2        1.0  0.05062  0.78683  0.06248  1.0000
  N   N3        1.0  0.55062  0.28683  0.43752  1.0000
  N   N4        1.0  0.94938  0.21317  0.93752  1.0000
  N   N5        1.0  0.23559  0.17466  0.08868  1.0000
  N   N6        1.0  0.26441  0.32534  0.58868  1.0000
  N   N7        1.0  0.76441  0.82534  0.91132  1.0000
  N   N8        1.0  0.73559  0.67466  0.41132  1.0000
  O   O1        1.0  0.14833  0.78462  0.71669  1.0000
  O   O2        1.0  0.35167  0.71538  0.21669  1.0000
  O   O3        1.0  0.85167  0.21538  0.28331  1.0000
  O   O4        1.0  0.64833  0.28462  0.78331  1.0000
  O   O5        1.0  0.36294  0.48092  0.31242  1.0000
  O   O6        1.0  0.13706  0.01908  0.81242  1.0000
  O   O7        1.0  0.63706  0.51908  0.68758  1.0000
  O   O8        1.0  0.86294  0.98092  0.18758  1.0000
