data_image0
_chemical_formula_structural       Cd4H48C40N16O20
_chemical_formula_sum              "Cd4 H48 C40 N16 O20"
_cell_length_a       8.08051
_cell_length_b       12.3218
_cell_length_c       12.8795
_cell_angle_alpha    90
_cell_angle_beta     95.1014
_cell_angle_gamma    90

_space_group_name_H-M_alt    "P 1"
_space_group_IT_number       1

loop_
  _space_group_symop_operation_xyz
  'x, y, z'

loop_
  _atom_site_type_symbol
  _atom_site_label
  _atom_site_symmetry_multiplicity
  _atom_site_fract_x
  _atom_site_fract_y
  _atom_site_fract_z
  _atom_site_occupancy
  Cd  Cd1       1.0  0.87220  0.41547  0.82286  1.0000
  Cd  Cd2       1.0  0.62779  0.91547  0.67714  1.0000
  Cd  Cd3       1.0  0.12780  0.58453  0.17714  1.0000
  Cd  Cd4       1.0  0.37221  0.08453  0.32286  1.0000
  H   H1        1.0  0.86006  0.64760  0.66258  1.0000
  H   H2        1.0  0.63994  0.14760  0.83742  1.0000
  H   H3        1.0  0.13994  0.35240  0.33742  1.0000
  H   H4        1.0  0.36007  0.85240  0.16258  1.0000
  H   H5        1.0  0.24595  0.53712  0.88039  1.0000
  H   H6        1.0  0.25405  0.03712  0.61961  1.0000
  H   H7        1.0  0.75405  0.46288  0.11961  1.0000
  H   H8        1.0  0.74595  0.96288  0.38039  1.0000
  H   H9        1.0  0.98053  0.79713  0.57938  1.0000
  H   H10       1.0  0.51947  0.29713  0.92062  1.0000
  H   H11       1.0  0.01947  0.20287  0.42062  1.0000
  H   H12       1.0  0.48053  0.70287  0.07938  1.0000
  H   H13       1.0  0.19753  0.77840  0.56389  1.0000
  H   H14       1.0  0.30246  0.27840  0.93611  1.0000
  H   H15       1.0  0.80246  0.22160  0.43611  1.0000
  H   H16       1.0  0.69754  0.72160  0.06389  1.0000
  H   H17       1.0  0.13651  0.87031  0.65894  1.0000
  H   H18       1.0  0.36349  0.37031  0.84106  1.0000
  H   H19       1.0  0.86349  0.12969  0.34106  1.0000
  H   H20       1.0  0.63650  0.62969  0.15894  1.0000
  H   H21       1.0  0.49157  0.52611  0.71330  1.0000
  H   H22       1.0  0.00843  0.02611  0.78670  1.0000
  H   H23       1.0  0.50843  0.47389  0.28670  1.0000
  H   H24       1.0  0.99157  0.97389  0.21330  1.0000
  H   H25       1.0  0.75442  0.24748  0.63301  1.0000
  H   H26       1.0  0.74558  0.74747  0.86699  1.0000
  H   H27       1.0  0.24558  0.75252  0.36699  1.0000
  H   H28       1.0  0.25442  0.25253  0.13301  1.0000
  H   H29       1.0  0.23351  0.51478  0.60330  1.0000
  H   H30       1.0  0.26649  0.01478  0.89670  1.0000
  H   H31       1.0  0.76649  0.48522  0.39670  1.0000
  H   H32       1.0  0.73351  0.98522  0.10330  1.0000
  H   H33       1.0  0.17007  0.38331  0.55767  1.0000
  H   H34       1.0  0.32993  0.88331  0.94233  1.0000
  H   H35       1.0  0.82993  0.61669  0.44233  1.0000
  H   H36       1.0  0.67007  0.11669  0.05767  1.0000
  H   H37       1.0  0.26909  0.47341  0.47344  1.0000
  H   H38       1.0  0.23091  0.97341  0.02656  1.0000
  H   H39       1.0  0.73091  0.52659  0.52657  1.0000
  H   H40       1.0  0.76909  0.02659  0.97344  1.0000
  H   H41       1.0  0.63455  0.56757  0.89608  1.0000
  H   H42       1.0  0.86545  0.06757  0.60392  1.0000
  H   H43       1.0  0.36545  0.43243  0.10392  1.0000
  H   H44       1.0  0.13455  0.93243  0.39608  1.0000
  H   H45       1.0  0.80688  0.57390  0.96399  1.0000
  H   H46       1.0  0.69312  0.07390  0.53601  1.0000
  H   H47       1.0  0.19312  0.42610  0.03601  1.0000
  H   H48       1.0  0.30688  0.92610  0.46399  1.0000
  C   C1        1.0  0.97943  0.63828  0.70768  1.0000
  C   C2        1.0  0.52057  0.13828  0.79231  1.0000
  C   C3        1.0  0.02057  0.36172  0.29231  1.0000
  C   C4        1.0  0.47943  0.86172  0.20769  1.0000
  C   C5        1.0  0.24136  0.67158  0.76529  1.0000
  C   C6        1.0  0.25864  0.17158  0.73471  1.0000
  C   C7        1.0  0.75864  0.32842  0.23471  1.0000
  C   C8        1.0  0.74137  0.82842  0.26529  1.0000
  C   C9        1.0  0.18226  0.58330  0.81713  1.0000
  C   C10       1.0  0.31773  0.08330  0.68287  1.0000
  C   C11       1.0  0.81773  0.41670  0.18287  1.0000
  C   C12       1.0  0.68227  0.91670  0.31713  1.0000
  C   C13       1.0  0.40842  0.72284  0.78027  1.0000
  C   C14       1.0  0.09157  0.22284  0.71973  1.0000
  C   C15       1.0  0.59157  0.27716  0.21973  1.0000
  C   C16       1.0  0.90843  0.77716  0.28027  1.0000
  C   C17       1.0  0.10550  0.79340  0.61968  1.0000
  C   C18       1.0  0.39450  0.29340  0.88032  1.0000
  C   C19       1.0  0.89450  0.20660  0.38032  1.0000
  C   C20       1.0  0.60551  0.70660  0.11968  1.0000
  C   C21       1.0  0.52339  0.45197  0.67350  1.0000
  C   C22       1.0  0.97661  0.95197  0.82650  1.0000
  C   C23       1.0  0.47661  0.54803  0.32650  1.0000
  C   C24       1.0  0.02339  0.04803  0.17350  1.0000
  C   C25       1.0  0.50741  0.31106  0.56587  1.0000
  C   C26       1.0  0.99259  0.81106  0.93413  1.0000
  C   C27       1.0  0.49259  0.68894  0.43413  1.0000
  C   C28       1.0  0.00741  0.18894  0.06587  1.0000
  C   C29       1.0  0.65454  0.30699  0.62935  1.0000
  C   C30       1.0  0.84546  0.80699  0.87065  1.0000
  C   C31       1.0  0.34546  0.69301  0.37065  1.0000
  C   C32       1.0  0.15454  0.19301  0.12935  1.0000
  C   C33       1.0  0.44626  0.23419  0.48378  1.0000
  C   C34       1.0  0.05374  0.73419  0.01622  1.0000
  C   C35       1.0  0.55374  0.76581  0.51622  1.0000
  C   C36       1.0  0.94626  0.26581  0.98378  1.0000
  C   C37       1.0  0.26447  0.44650  0.55420  1.0000
  C   C38       1.0  0.23553  0.94650  0.94580  1.0000
  C   C39       1.0  0.73553  0.55350  0.44580  1.0000
  C   C40       1.0  0.76447  0.05350  0.05420  1.0000
  N   N1        1.0  0.02020  0.56388  0.78103  1.0000
  N   N2        1.0  0.47980  0.06388  0.71897  1.0000
  N   N3        1.0  0.97980  0.43612  0.21897  1.0000
  N   N4        1.0  0.52020  0.93612  0.28103  1.0000
  N   N5        1.0  0.10891  0.70563  0.69605  1.0000
  N   N6        1.0  0.39109  0.20563  0.80395  1.0000
  N   N7        1.0  0.89109  0.29437  0.30395  1.0000
  N   N8        1.0  0.60891  0.79437  0.19605  1.0000
  N   N9        1.0  0.66286  0.39452  0.69535  1.0000
  N   N10       1.0  0.83714  0.89452  0.80465  1.0000
  N   N11       1.0  0.33714  0.60548  0.30465  1.0000
  N   N12       1.0  0.16286  0.10548  0.19535  1.0000
  N   N13       1.0  0.42612  0.40477  0.59539  1.0000
  N   N14       1.0  0.07388  0.90476  0.90461  1.0000
  N   N15       1.0  0.57388  0.59524  0.40461  1.0000
  N   N16       1.0  0.92612  0.09524  0.09539  1.0000
  O   O1        1.0  0.52693  0.66289  0.81754  1.0000
  O   O2        1.0  0.97306  0.16289  0.68246  1.0000
  O   O3        1.0  0.47306  0.33711  0.18246  1.0000
  O   O4        1.0  0.02694  0.83711  0.31754  1.0000
  O   O5        1.0  0.41823  0.82241  0.75516  1.0000
  O   O6        1.0  0.08176  0.32242  0.74484  1.0000
  O   O7        1.0  0.58177  0.17758  0.24484  1.0000
  O   O8        1.0  0.91824  0.67758  0.25515  1.0000
  O   O9        1.0  0.31731  0.25558  0.42389  1.0000
  O   O10       1.0  0.18269  0.75558  0.07611  1.0000
  O   O11       1.0  0.68269  0.74442  0.57611  1.0000
  O   O12       1.0  0.81731  0.24442  0.92389  1.0000
  O   O13       1.0  0.53126  0.14695  0.47500  1.0000
  O   O14       1.0  0.96874  0.64695  0.02500  1.0000
  O   O15       1.0  0.46874  0.85305  0.52500  1.0000
  O   O16       1.0  0.03126  0.35305  0.97500  1.0000
  O   O17       1.0  0.71974  0.52201  0.93545  1.0000
  O   O18       1.0  0.78026  0.02201  0.56455  1.0000
  O   O19       1.0  0.28026  0.47799  0.06455  1.0000
  O   O20       1.0  0.21974  0.97799  0.43545  1.0000
