data_image0
_chemical_formula_structural       Co4H40C40N16O16
_chemical_formula_sum              "Co4 H40 C40 N16 O16"
_cell_length_a       7.37599
_cell_length_b       12.4775
_cell_length_c       13.4196
_cell_angle_alpha    90
_cell_angle_beta     90
_cell_angle_gamma    100.037

_space_group_name_H-M_alt    "P 1"
_space_group_IT_number       1

loop_
  _space_group_symop_operation_xyz
  'x, y, z'

loop_
  _atom_site_type_symbol
  _atom_site_label
  _atom_site_symmetry_multiplicity
  _atom_site_fract_x
  _atom_site_fract_y
  _atom_site_fract_z
  _atom_site_occupancy
  Co  Co1       1.0  0.21837  0.15324  0.07291  1.0000
  Co  Co2       1.0  0.28163  0.84676  0.57291  1.0000
  Co  Co3       1.0  0.78163  0.84676  0.92709  1.0000
  Co  Co4       1.0  0.71837  0.15324  0.42709  1.0000
  H   H1        1.0  0.65864  0.55809  0.12103  1.0000
  H   H2        1.0  0.84136  0.44191  0.62103  1.0000
  H   H3        1.0  0.34136  0.44191  0.87897  1.0000
  H   H4        1.0  0.15864  0.55809  0.37897  1.0000
  H   H5        1.0  0.87197  0.52648  0.07863  1.0000
  H   H6        1.0  0.62803  0.47352  0.57863  1.0000
  H   H7        1.0  0.12804  0.47352  0.92137  1.0000
  H   H8        1.0  0.37197  0.52648  0.42137  1.0000
  H   H9        1.0  0.81782  0.51841  0.20832  1.0000
  H   H10       1.0  0.68218  0.48159  0.70832  1.0000
  H   H11       1.0  0.18218  0.48159  0.79168  1.0000
  H   H12       1.0  0.31782  0.51841  0.29168  1.0000
  H   H13       1.0  0.38509  0.41000  0.11563  1.0000
  H   H14       1.0  0.11491  0.59000  0.61563  1.0000
  H   H15       1.0  0.61491  0.59000  0.88437  1.0000
  H   H16       1.0  0.88509  0.41000  0.38437  1.0000
  H   H17       1.0  0.62438  0.12835  0.09604  1.0000
  H   H18       1.0  0.87562  0.87165  0.59604  1.0000
  H   H19       1.0  0.37562  0.87165  0.90396  1.0000
  H   H20       1.0  0.12438  0.12835  0.40396  1.0000
  H   H21       1.0  0.11948  0.68098  0.22383  1.0000
  H   H22       1.0  0.38052  0.31902  0.72383  1.0000
  H   H23       1.0  0.88052  0.31902  0.77617  1.0000
  H   H24       1.0  0.61948  0.68098  0.27617  1.0000
  H   H25       1.0  0.32838  0.70276  0.15404  1.0000
  H   H26       1.0  0.17161  0.29724  0.65404  1.0000
  H   H27       1.0  0.67162  0.29724  0.84596  1.0000
  H   H28       1.0  0.82838  0.70276  0.34596  1.0000
  H   H29       1.0  0.11323  0.70805  0.09294  1.0000
  H   H30       1.0  0.38677  0.29195  0.59294  1.0000
  H   H31       1.0  0.88677  0.29195  0.90706  1.0000
  H   H32       1.0  0.61323  0.70805  0.40706  1.0000
  H   H33       1.0  0.16657  0.89811  0.03280  1.0000
  H   H34       1.0  0.33343  0.10189  0.53281  1.0000
  H   H35       1.0  0.83343  0.10189  0.96719  1.0000
  H   H36       1.0  0.66657  0.89811  0.46720  1.0000
  H   H37       1.0  0.30873  0.07569  0.29790  1.0000
  H   H38       1.0  0.19127  0.92431  0.79790  1.0000
  H   H39       1.0  0.69127  0.92431  0.70210  1.0000
  H   H40       1.0  0.80873  0.07569  0.20210  1.0000
  C   C1        1.0  0.76089  0.50575  0.13294  1.0000
  C   C2        1.0  0.73911  0.49425  0.63294  1.0000
  C   C3        1.0  0.23911  0.49425  0.86706  1.0000
  C   C4        1.0  0.26089  0.50575  0.36706  1.0000
  C   C5        1.0  0.48948  0.35841  0.11318  1.0000
  C   C6        1.0  0.01052  0.64159  0.61318  1.0000
  C   C7        1.0  0.51053  0.64159  0.88682  1.0000
  C   C8        1.0  0.98948  0.35841  0.38682  1.0000
  C   C9        1.0  0.61672  0.21383  0.10393  1.0000
  C   C10       1.0  0.88328  0.78617  0.60394  1.0000
  C   C11       1.0  0.38329  0.78617  0.89606  1.0000
  C   C12       1.0  0.11672  0.21383  0.39607  1.0000
  C   C13       1.0  0.75819  0.30162  0.11467  1.0000
  C   C14       1.0  0.74181  0.69838  0.61468  1.0000
  C   C15       1.0  0.24181  0.69838  0.88533  1.0000
  C   C16       1.0  0.25819  0.30162  0.38533  1.0000
  C   C17       1.0  0.95920  0.30189  0.11486  1.0000
  C   C18       1.0  0.54080  0.69811  0.61486  1.0000
  C   C19       1.0  0.04081  0.69811  0.88515  1.0000
  C   C20       1.0  0.45920  0.30189  0.38514  1.0000
  C   C21       1.0  0.19207  0.72594  0.16174  1.0000
  C   C22       1.0  0.30793  0.27406  0.66174  1.0000
  C   C23       1.0  0.80793  0.27406  0.83826  1.0000
  C   C24       1.0  0.69207  0.72594  0.33826  1.0000
  C   C25       1.0  0.20205  0.91785  0.10992  1.0000
  C   C26       1.0  0.29795  0.08215  0.60992  1.0000
  C   C27       1.0  0.79795  0.08215  0.89008  1.0000
  C   C28       1.0  0.70205  0.91785  0.39008  1.0000
  C   C29       1.0  0.26970  0.00671  0.24855  1.0000
  C   C30       1.0  0.23029  0.99329  0.74855  1.0000
  C   C31       1.0  0.73030  0.99329  0.75145  1.0000
  C   C32       1.0  0.76970  0.00671  0.25145  1.0000
  C   C33       1.0  0.25358  0.89735  0.27085  1.0000
  C   C34       1.0  0.24642  0.10265  0.77085  1.0000
  C   C35       1.0  0.74642  0.10264  0.72915  1.0000
  C   C36       1.0  0.75358  0.89735  0.22915  1.0000
  C   C37       1.0  0.26438  0.84599  0.36897  1.0000
  C   C38       1.0  0.23561  0.15401  0.86897  1.0000
  C   C39       1.0  0.73562  0.15400  0.63103  1.0000
  C   C40       1.0  0.76438  0.84599  0.13103  1.0000
  N   N1        1.0  0.67313  0.39265  0.12029  1.0000
  N   N2        1.0  0.82687  0.60735  0.62029  1.0000
  N   N3        1.0  0.32687  0.60735  0.87971  1.0000
  N   N4        1.0  0.17313  0.39265  0.37971  1.0000
  N   N5        1.0  0.45151  0.24996  0.10296  1.0000
  N   N6        1.0  0.04849  0.75004  0.60296  1.0000
  N   N7        1.0  0.54849  0.75004  0.89704  1.0000
  N   N8        1.0  0.95151  0.24996  0.39704  1.0000
  N   N9        1.0  0.21242  0.84253  0.18089  1.0000
  N   N10       1.0  0.28758  0.15747  0.68089  1.0000
  N   N11       1.0  0.78758  0.15747  0.81911  1.0000
  N   N12       1.0  0.71242  0.84253  0.31911  1.0000
  N   N13       1.0  0.23584  0.01835  0.14894  1.0000
  N   N14       1.0  0.26416  0.98165  0.64894  1.0000
  N   N15       1.0  0.76416  0.98165  0.85106  1.0000
  N   N16       1.0  0.73584  0.01835  0.35106  1.0000
  O   O1        1.0  0.99358  0.20309  0.10406  1.0000
  O   O2        1.0  0.50642  0.79691  0.60406  1.0000
  O   O3        1.0  0.00642  0.79691  0.89594  1.0000
  O   O4        1.0  0.49358  0.20309  0.39594  1.0000
  O   O5        1.0  0.07448  0.38717  0.12325  1.0000
  O   O6        1.0  0.42552  0.61283  0.62325  1.0000
  O   O7        1.0  0.92553  0.61283  0.87675  1.0000
  O   O8        1.0  0.57448  0.38717  0.37675  1.0000
  O   O9        1.0  0.27945  0.91491  0.44277  1.0000
  O   O10       1.0  0.22054  0.08509  0.94278  1.0000
  O   O11       1.0  0.72055  0.08509  0.55722  1.0000
  O   O12       1.0  0.77945  0.91491  0.05722  1.0000
  O   O13       1.0  0.25803  0.74575  0.37905  1.0000
  O   O14       1.0  0.24198  0.25425  0.87906  1.0000
  O   O15       1.0  0.74197  0.25425  0.62094  1.0000
  O   O16       1.0  0.75802  0.74575  0.12094  1.0000
