data_image0
_chemical_formula_structural       Ho4H32C36O24
_chemical_formula_sum              "Ho4 H32 C36 O24"
_cell_length_a       6.04752
_cell_length_b       7.73044
_cell_length_c       20.9642
_cell_angle_alpha    93.306
_cell_angle_beta     89.9998
_cell_angle_gamma    90.0002

_space_group_name_H-M_alt    "P 1"
_space_group_IT_number       1

loop_
  _space_group_symop_operation_xyz
  'x, y, z'

loop_
  _atom_site_type_symbol
  _atom_site_label
  _atom_site_symmetry_multiplicity
  _atom_site_fract_x
  _atom_site_fract_y
  _atom_site_fract_z
  _atom_site_occupancy
  Ho  Ho1       1.0  0.72620  0.19169  0.80452  1.0000
  Ho  Ho2       1.0  0.22620  0.30831  0.19547  1.0000
  Ho  Ho3       1.0  0.27380  0.80831  0.19548  1.0000
  Ho  Ho4       1.0  0.77380  0.69169  0.80452  1.0000
  H   H1        1.0  0.35997  0.20332  0.62040  1.0000
  H   H2        1.0  0.85997  0.29669  0.37960  1.0000
  H   H3        1.0  0.64003  0.79670  0.37960  1.0000
  H   H4        1.0  0.14003  0.70331  0.62040  1.0000
  H   H5        1.0  0.64354  0.51931  0.63793  1.0000
  H   H6        1.0  0.14355  0.98069  0.36207  1.0000
  H   H7        1.0  0.35645  0.48070  0.36207  1.0000
  H   H8        1.0  0.85646  0.01931  0.63793  1.0000
  H   H9        1.0  0.28267  0.12654  0.83842  1.0000
  H   H10       1.0  0.78267  0.37346  0.16158  1.0000
  H   H11       1.0  0.71733  0.87346  0.16158  1.0000
  H   H12       1.0  0.21733  0.62653  0.83842  1.0000
  H   H13       1.0  0.40059  0.16051  0.90563  1.0000
  H   H14       1.0  0.90059  0.33949  0.09436  1.0000
  H   H15       1.0  0.59941  0.83949  0.09436  1.0000
  H   H16       1.0  0.09941  0.66051  0.90563  1.0000
  H   H17       1.0  0.16953  0.29201  0.52144  1.0000
  H   H18       1.0  0.66954  0.20800  0.47856  1.0000
  H   H19       1.0  0.83047  0.70801  0.47856  1.0000
  H   H20       1.0  0.33047  0.79200  0.52144  1.0000
  H   H21       1.0  0.81147  0.45287  0.53131  1.0000
  H   H22       1.0  0.31149  0.04713  0.46869  1.0000
  H   H23       1.0  0.18853  0.54714  0.46869  1.0000
  H   H24       1.0  0.68853  0.95287  0.53131  1.0000
  H   H25       1.0  0.57782  0.32169  0.97180  1.0000
  H   H26       1.0  0.07783  0.17830  0.02820  1.0000
  H   H27       1.0  0.42217  0.67830  0.02820  1.0000
  H   H28       1.0  0.92217  0.82170  0.97180  1.0000
  H   H29       1.0  0.31686  0.41622  0.95710  1.0000
  H   H30       1.0  0.81686  0.08377  0.04290  1.0000
  H   H31       1.0  0.68313  0.58377  0.04290  1.0000
  H   H32       1.0  0.18313  0.91622  0.95710  1.0000
  C   C1        1.0  0.22039  0.24194  0.74018  1.0000
  C   C2        1.0  0.72039  0.25806  0.25982  1.0000
  C   C3        1.0  0.77961  0.75806  0.25982  1.0000
  C   C4        1.0  0.27961  0.74194  0.74018  1.0000
  C   C5        1.0  0.10580  0.30458  0.68351  1.0000
  C   C6        1.0  0.60580  0.19542  0.31649  1.0000
  C   C7        1.0  0.89420  0.69542  0.31649  1.0000
  C   C8        1.0  0.39420  0.80458  0.68351  1.0000
  C   C9        1.0  0.20221  0.27160  0.62306  1.0000
  C   C10       1.0  0.70221  0.22841  0.37694  1.0000
  C   C11       1.0  0.79779  0.72842  0.37694  1.0000
  C   C12       1.0  0.29779  0.77159  0.62306  1.0000
  C   C13       1.0  0.90213  0.39560  0.68937  1.0000
  C   C14       1.0  0.40213  0.10440  0.31064  1.0000
  C   C15       1.0  0.09786  0.60440  0.31063  1.0000
  C   C16       1.0  0.59787  0.89560  0.68937  1.0000
  C   C17       1.0  0.79917  0.44856  0.63350  1.0000
  C   C18       1.0  0.29918  0.05144  0.36650  1.0000
  C   C19       1.0  0.20082  0.55144  0.36650  1.0000
  C   C20       1.0  0.70083  0.94856  0.63350  1.0000
  C   C21       1.0  0.09620  0.32163  0.56827  1.0000
  C   C22       1.0  0.59620  0.17838  0.43173  1.0000
  C   C23       1.0  0.90380  0.67838  0.43173  1.0000
  C   C24       1.0  0.40380  0.82163  0.56827  1.0000
  C   C25       1.0  0.89445  0.41068  0.57393  1.0000
  C   C26       1.0  0.39446  0.08932  0.42607  1.0000
  C   C27       1.0  0.10554  0.58932  0.42607  1.0000
  C   C28       1.0  0.60555  0.91068  0.57393  1.0000
  C   C29       1.0  0.49139  0.44588  0.96863  1.0000
  C   C30       1.0  0.99139  0.05411  0.03137  1.0000
  C   C31       1.0  0.50861  0.55411  0.03137  1.0000
  C   C32       1.0  0.00861  0.94588  0.96863  1.0000
  C   C33       1.0  0.58584  0.53359  0.91225  1.0000
  C   C34       1.0  0.08583  0.96640  0.08775  1.0000
  C   C35       1.0  0.41416  0.46641  0.08775  1.0000
  C   C36       1.0  0.91417  0.03359  0.91225  1.0000
  O   O1        1.0  0.80965  0.43289  0.74706  1.0000
  O   O2        1.0  0.30965  0.06711  0.25294  1.0000
  O   O3        1.0  0.19035  0.56711  0.25294  1.0000
  O   O4        1.0  0.69035  0.93289  0.74706  1.0000
  O   O5        1.0  0.10441  0.19341  0.78792  1.0000
  O   O6        1.0  0.60441  0.30659  0.21208  1.0000
  O   O7        1.0  0.89559  0.80659  0.21208  1.0000
  O   O8        1.0  0.39559  0.69341  0.78792  1.0000
  O   O9        1.0  0.42911  0.23354  0.74011  1.0000
  O   O10       1.0  0.92912  0.26647  0.25988  1.0000
  O   O11       1.0  0.57088  0.76646  0.25988  1.0000
  O   O12       1.0  0.07088  0.73353  0.74012  1.0000
  O   O13       1.0  0.63469  0.69292  0.91582  1.0000
  O   O14       1.0  0.13469  0.80707  0.08417  1.0000
  O   O15       1.0  0.36531  0.30707  0.08418  1.0000
  O   O16       1.0  0.86532  0.19293  0.91582  1.0000
  O   O17       1.0  0.41457  0.09287  0.86529  1.0000
  O   O18       1.0  0.91457  0.40713  0.13471  1.0000
  O   O19       1.0  0.58543  0.90712  0.13471  1.0000
  O   O20       1.0  0.08543  0.59287  0.86529  1.0000
  O   O21       1.0  0.61310  0.44512  0.85896  1.0000
  O   O22       1.0  0.11310  0.05487  0.14104  1.0000
  O   O23       1.0  0.38689  0.55487  0.14104  1.0000
  O   O24       1.0  0.88690  0.94513  0.85896  1.0000
