data_image0
_chemical_formula_structural       Sr5H20C32N2O24
_chemical_formula_sum              "Sr5 H20 C32 N2 O24"
_cell_length_a       7.06302
_cell_length_b       10.403
_cell_length_c       12.7148
_cell_angle_alpha    90.944
_cell_angle_beta     91.694
_cell_angle_gamma    103.778

_space_group_name_H-M_alt    "P 1"
_space_group_IT_number       1

loop_
  _space_group_symop_operation_xyz
  'x, y, z'

loop_
  _atom_site_type_symbol
  _atom_site_label
  _atom_site_symmetry_multiplicity
  _atom_site_fract_x
  _atom_site_fract_y
  _atom_site_fract_z
  _atom_site_occupancy
  Sr  Sr1       1.0  1.00000  1.00000  1.00000  1.0000
  Sr  Sr2       1.0  0.44020  0.79901  0.05815  1.0000
  Sr  Sr3       1.0  0.55980  0.20099  0.94185  1.0000
  Sr  Sr4       1.0  0.12808  0.37311  0.11124  1.0000
  Sr  Sr5       1.0  0.87192  0.62689  0.88876  1.0000
  H   H1        1.0  0.21652  0.15740  0.36028  1.0000
  H   H2        1.0  0.78348  0.84260  0.63971  1.0000
  H   H3        1.0  0.41493  0.18187  0.53056  1.0000
  H   H4        1.0  0.58506  0.81813  0.46943  1.0000
  H   H5        1.0  0.75379  0.15914  0.52964  1.0000
  H   H6        1.0  0.24621  0.84086  0.47036  1.0000
  H   H7        1.0  0.90080  0.11196  0.36062  1.0000
  H   H8        1.0  0.09920  0.88805  0.63938  1.0000
  H   H9        1.0  0.55636  0.37166  0.30406  1.0000
  H   H10       1.0  0.44365  0.62834  0.69594  1.0000
  H   H11       1.0  0.65958  0.47836  0.47898  1.0000
  H   H12       1.0  0.34043  0.52164  0.52102  1.0000
  H   H13       1.0  0.88605  0.70206  0.49183  1.0000
  H   H14       1.0  0.11395  0.29795  0.50817  1.0000
  H   H15       1.0  0.00413  0.81930  0.32639  1.0000
  H   H16       1.0  0.99587  0.18070  0.67361  1.0000
  H   H17       1.0  0.93544  0.36337  0.33478  1.0000
  H   H18       1.0  0.06456  0.63663  0.66522  1.0000
  H   H19       1.0  0.14055  0.46580  0.33537  1.0000
  H   H20       1.0  0.85944  0.53420  0.66463  1.0000
  C   C1        1.0  0.44692  0.11972  0.26751  1.0000
  C   C2        1.0  0.55308  0.88027  0.73249  1.0000
  C   C3        1.0  0.36619  0.14651  0.36263  1.0000
  C   C4        1.0  0.63381  0.85349  0.63737  1.0000
  C   C5        1.0  0.47633  0.16128  0.45641  1.0000
  C   C6        1.0  0.52367  0.83872  0.54359  1.0000
  C   C7        1.0  0.66887  0.14845  0.45580  1.0000
  C   C8        1.0  0.33113  0.85155  0.54420  1.0000
  C   C9        1.0  0.75087  0.12221  0.36178  1.0000
  C   C10       1.0  0.24914  0.87779  0.63822  1.0000
  C   C11       1.0  0.64150  0.10967  0.26697  1.0000
  C   C12       1.0  0.35850  0.89033  0.73303  1.0000
  C   C13       1.0  0.32537  0.10302  0.16846  1.0000
  C   C14       1.0  0.67463  0.89698  0.83153  1.0000
  C   C15       1.0  0.73451  0.08603  0.16621  1.0000
  C   C16       1.0  0.26549  0.91397  0.83379  1.0000
  C   C17       1.0  0.72409  0.53265  0.21688  1.0000
  C   C18       1.0  0.27592  0.46735  0.78312  1.0000
  C   C19       1.0  0.65462  0.46982  0.30953  1.0000
  C   C20       1.0  0.34538  0.53018  0.69048  1.0000
  C   C21       1.0  0.71295  0.53015  0.40799  1.0000
  C   C22       1.0  0.28706  0.46986  0.59201  1.0000
  C   C23       1.0  0.84022  0.65555  0.41482  1.0000
  C   C24       1.0  0.15979  0.34446  0.58519  1.0000
  C   C25       1.0  0.90774  0.72022  0.32314  1.0000
  C   C26       1.0  0.09226  0.27978  0.67686  1.0000
  C   C27       1.0  0.85069  0.66011  0.22426  1.0000
  C   C28       1.0  0.14932  0.33989  0.77574  1.0000
  C   C29       1.0  0.91530  0.73867  0.12891  1.0000
  C   C30       1.0  0.08470  0.26133  0.87109  1.0000
  C   C31       1.0  0.67629  0.45543  0.11423  1.0000
  C   C32       1.0  0.32371  0.54457  0.88578  1.0000
  N   N1        1.0  0.34942  0.66890  0.27425  1.0000
  N   N2        1.0  0.65058  0.33109  0.72575  1.0000
  O   O1        1.0  0.38012  0.04747  0.08702  1.0000
  O   O2        1.0  0.61988  0.95253  0.91298  1.0000
  O   O3        1.0  0.16906  0.14295  0.16666  1.0000
  O   O4        1.0  0.83093  0.85705  0.83334  1.0000
  O   O5        1.0  0.79939  0.18432  0.10704  1.0000
  O   O6        1.0  0.20061  0.81568  0.89296  1.0000
  O   O7        1.0  0.74924  0.96949  0.14605  1.0000
  O   O8        1.0  0.25076  0.03051  0.85395  1.0000
  O   O9        1.0  0.78692  0.73805  0.05493  1.0000
  O   O10       1.0  0.21308  0.26195  0.94507  1.0000
  O   O11       1.0  0.08935  0.80658  0.12465  1.0000
  O   O12       1.0  0.91065  0.19341  0.87535  1.0000
  O   O13       1.0  0.50685  0.38235  0.09682  1.0000
  O   O14       1.0  0.49316  0.61765  0.90318  1.0000
  O   O15       1.0  0.81615  0.46102  0.05051  1.0000
  O   O16       1.0  0.18385  0.53898  0.94949  1.0000
  O   O17       1.0  0.29012  0.61590  0.35912  1.0000
  O   O18       1.0  0.70988  0.38409  0.64088  1.0000
  O   O19       1.0  0.44539  0.78676  0.27174  1.0000
  O   O20       1.0  0.55460  0.21324  0.72826  1.0000
  O   O21       1.0  0.31130  0.60211  0.18653  1.0000
  O   O22       1.0  0.68870  0.39789  0.81347  1.0000
  O   O23       1.0  0.06743  0.37594  0.30960  1.0000
  O   O24       1.0  0.93257  0.62406  0.69040  1.0000
