data_image0
_chemical_formula_structural       Mn2H8C10N4O10
_chemical_formula_sum              "Mn2 H8 C10 N4 O10"
_cell_length_a       7.06283
_cell_length_b       7.50285
_cell_length_c       7.56466
_cell_angle_alpha    89.9998
_cell_angle_beta     117.231
_cell_angle_gamma    90

_space_group_name_H-M_alt    "P 1"
_space_group_IT_number       1

loop_
  _space_group_symop_operation_xyz
  'x, y, z'

loop_
  _atom_site_type_symbol
  _atom_site_label
  _atom_site_symmetry_multiplicity
  _atom_site_fract_x
  _atom_site_fract_y
  _atom_site_fract_z
  _atom_site_occupancy
  Mn  Mn1       1.0  0.28082  0.74166  0.15706  1.0000
  Mn  Mn2       1.0  0.71918  0.24166  0.84294  1.0000
  H   H1        1.0  0.84655  0.63223  0.28337  1.0000
  H   H2        1.0  0.15345  0.13223  0.71663  1.0000
  H   H3        1.0  0.95105  0.53540  0.63599  1.0000
  H   H4        1.0  0.04895  0.03540  0.36401  1.0000
  H   H5        1.0  0.86108  0.86060  0.95464  1.0000
  H   H6        1.0  0.13892  0.36060  0.04535  1.0000
  H   H7        1.0  0.87755  0.67348  0.86033  1.0000
  H   H8        1.0  0.12245  0.17348  0.13967  1.0000
  C   C1        1.0  0.00913  0.60743  0.39384  1.0000
  C   C2        1.0  0.99087  0.10743  0.60616  1.0000
  C   C3        1.0  0.56518  0.57139  0.55439  1.0000
  C   C4        1.0  0.43482  0.07139  0.44561  1.0000
  C   C5        1.0  0.35200  0.56594  0.54541  1.0000
  C   C6        1.0  0.64800  0.06594  0.45459  1.0000
  C   C7        1.0  0.27637  0.52527  0.68202  1.0000
  C   C8        1.0  0.72363  0.02527  0.31798  1.0000
  C   C9        1.0  0.37690  0.46867  0.89280  1.0000
  C   C10       1.0  0.62310  0.96867  0.10720  1.0000
  N   N1        1.0  0.18326  0.61900  0.36890  1.0000
  N   N2        1.0  0.81674  0.11900  0.63110  1.0000
  N   N3        1.0  0.05982  0.55436  0.58093  1.0000
  N   N4        1.0  0.94018  0.05436  0.41907  1.0000
  O   O1        1.0  0.57944  0.64525  0.41047  1.0000
  O   O2        1.0  0.42055  0.14525  0.58953  1.0000
  O   O3        1.0  0.72793  0.50348  0.70429  1.0000
  O   O4        1.0  0.27207  0.00348  0.29571  1.0000
  O   O5        1.0  0.55173  0.38519  0.96810  1.0000
  O   O6        1.0  0.44827  0.88519  0.03190  1.0000
  O   O7        1.0  0.27205  0.50754  0.98931  1.0000
  O   O8        1.0  0.72795  0.00754  0.01069  1.0000
  O   O9        1.0  0.96094  0.77779  0.93612  1.0000
  O   O10       1.0  0.03906  0.27779  0.06387  1.0000
