data_image0
_chemical_formula_structural       Mn8H32C40N16O40
_chemical_formula_sum              "Mn8 H32 C40 N16 O40"
_cell_length_a       7.07451
_cell_length_b       13.5573
_cell_length_c       14.25
_cell_angle_alpha    90
_cell_angle_beta     90
_cell_angle_gamma    90

_space_group_name_H-M_alt    "P 1"
_space_group_IT_number       1

loop_
  _space_group_symop_operation_xyz
  'x, y, z'

loop_
  _atom_site_type_symbol
  _atom_site_label
  _atom_site_symmetry_multiplicity
  _atom_site_fract_x
  _atom_site_fract_y
  _atom_site_fract_z
  _atom_site_occupancy
  Mn  Mn1       1.0  0.56515  0.64117  0.41609  1.0000
  Mn  Mn2       1.0  0.93485  0.35884  0.91609  1.0000
  Mn  Mn3       1.0  0.43485  0.14116  0.08391  1.0000
  Mn  Mn4       1.0  0.06515  0.85884  0.58391  1.0000
  Mn  Mn5       1.0  0.43485  0.35884  0.58391  1.0000
  Mn  Mn6       1.0  0.06515  0.64116  0.08390  1.0000
  Mn  Mn7       1.0  0.56515  0.85884  0.91610  1.0000
  Mn  Mn8       1.0  0.93485  0.14116  0.41609  1.0000
  H   H1        1.0  0.46364  0.82334  0.49494  1.0000
  H   H2        1.0  0.03636  0.17667  0.99494  1.0000
  H   H3        1.0  0.53637  0.32333  0.00506  1.0000
  H   H4        1.0  0.96364  0.67667  0.50506  1.0000
  H   H5        1.0  0.53636  0.17667  0.50506  1.0000
  H   H6        1.0  0.96364  0.82333  0.00506  1.0000
  H   H7        1.0  0.46364  0.67667  0.99494  1.0000
  H   H8        1.0  0.03636  0.32333  0.49494  1.0000
  H   H9        1.0  0.64671  0.78464  0.55113  1.0000
  H   H10       1.0  0.85329  0.21536  0.05113  1.0000
  H   H11       1.0  0.35329  0.28464  0.94887  1.0000
  H   H12       1.0  0.14671  0.71536  0.44887  1.0000
  H   H13       1.0  0.35329  0.21536  0.44887  1.0000
  H   H14       1.0  0.14671  0.78464  0.94887  1.0000
  H   H15       1.0  0.64671  0.71536  0.05113  1.0000
  H   H16       1.0  0.85329  0.28464  0.55113  1.0000
  H   H17       1.0  0.85782  0.66283  0.67691  1.0000
  H   H18       1.0  0.64217  0.33717  0.17691  1.0000
  H   H19       1.0  0.14217  0.16283  0.82309  1.0000
  H   H20       1.0  0.35783  0.83717  0.32309  1.0000
  H   H21       1.0  0.14218  0.33717  0.32309  1.0000
  H   H22       1.0  0.35782  0.66283  0.82309  1.0000
  H   H23       1.0  0.85783  0.83717  0.17691  1.0000
  H   H24       1.0  0.64218  0.16283  0.67692  1.0000
  H   H25       1.0  0.93188  0.62247  0.84696  1.0000
  H   H26       1.0  0.56811  0.37754  0.34696  1.0000
  H   H27       1.0  0.06811  0.12247  0.65304  1.0000
  H   H28       1.0  0.43189  0.87753  0.15304  1.0000
  H   H29       1.0  0.06812  0.37753  0.15304  1.0000
  H   H30       1.0  0.43188  0.62247  0.65304  1.0000
  H   H31       1.0  0.93188  0.87753  0.34696  1.0000
  H   H32       1.0  0.56812  0.12247  0.84696  1.0000
  C   C1        1.0  0.89878  0.56798  0.79373  1.0000
  C   C2        1.0  0.60122  0.43203  0.29373  1.0000
  C   C3        1.0  0.10122  0.06798  0.70628  1.0000
  C   C4        1.0  0.39878  0.93202  0.20627  1.0000
  C   C5        1.0  0.10122  0.43202  0.20627  1.0000
  C   C6        1.0  0.39878  0.56798  0.70627  1.0000
  C   C7        1.0  0.89878  0.93203  0.29373  1.0000
  C   C8        1.0  0.60123  0.06798  0.79373  1.0000
  C   C9        1.0  0.75169  0.51067  0.55713  1.0000
  C   C10       1.0  0.74830  0.48933  0.05713  1.0000
  C   C11       1.0  0.24831  0.01067  0.94287  1.0000
  C   C12       1.0  0.25170  0.98933  0.44287  1.0000
  C   C13       1.0  0.24830  0.48933  0.44287  1.0000
  C   C14       1.0  0.25170  0.51067  0.94287  1.0000
  C   C15       1.0  0.75170  0.98933  0.05713  1.0000
  C   C16       1.0  0.74830  0.01067  0.55713  1.0000
  C   C17       1.0  0.81586  0.50605  0.65567  1.0000
  C   C18       1.0  0.68414  0.49395  0.15567  1.0000
  C   C19       1.0  0.18414  0.00605  0.84433  1.0000
  C   C20       1.0  0.31587  0.99395  0.34433  1.0000
  C   C21       1.0  0.18413  0.49395  0.34433  1.0000
  C   C22       1.0  0.31586  0.50605  0.84433  1.0000
  C   C23       1.0  0.81587  0.99395  0.15567  1.0000
  C   C24       1.0  0.68414  0.00605  0.65567  1.0000
  C   C25       1.0  0.82076  0.43125  0.72343  1.0000
  C   C26       1.0  0.67924  0.56875  0.22343  1.0000
  C   C27       1.0  0.17924  0.93125  0.77658  1.0000
  C   C28       1.0  0.32076  0.06874  0.27657  1.0000
  C   C29       1.0  0.17924  0.56875  0.27657  1.0000
  C   C30       1.0  0.32076  0.43125  0.77657  1.0000
  C   C31       1.0  0.82076  0.06875  0.22342  1.0000
  C   C32       1.0  0.67924  0.93125  0.72343  1.0000
  C   C33       1.0  0.76752  0.32570  0.72532  1.0000
  C   C34       1.0  0.73248  0.67430  0.22532  1.0000
  C   C35       1.0  0.23248  0.82570  0.77468  1.0000
  C   C36       1.0  0.26752  0.17430  0.27468  1.0000
  C   C37       1.0  0.23248  0.67430  0.27468  1.0000
  C   C38       1.0  0.26752  0.32570  0.77468  1.0000
  C   C39       1.0  0.76752  0.17430  0.22532  1.0000
  C   C40       1.0  0.73248  0.82570  0.72532  1.0000
  N   N1        1.0  0.87497  0.47167  0.80807  1.0000
  N   N2        1.0  0.62503  0.52834  0.30807  1.0000
  N   N3        1.0  0.12502  0.97167  0.69193  1.0000
  N   N4        1.0  0.37497  0.02833  0.19193  1.0000
  N   N5        1.0  0.12503  0.52833  0.19192  1.0000
  N   N6        1.0  0.37497  0.47166  0.69193  1.0000
  N   N7        1.0  0.87498  0.02833  0.30807  1.0000
  N   N8        1.0  0.62503  0.97167  0.80808  1.0000
  N   N9        1.0  0.86741  0.59066  0.70286  1.0000
  N   N10       1.0  0.63259  0.40934  0.20286  1.0000
  N   N11       1.0  0.13259  0.09066  0.79714  1.0000
  N   N12       1.0  0.36742  0.90934  0.29714  1.0000
  N   N13       1.0  0.13259  0.40934  0.29714  1.0000
  N   N14       1.0  0.36741  0.59066  0.79714  1.0000
  N   N15       1.0  0.86741  0.90934  0.20286  1.0000
  N   N16       1.0  0.63259  0.09066  0.70286  1.0000
  O   O1        1.0  0.78156  0.59225  0.51314  1.0000
  O   O2        1.0  0.71844  0.40775  0.01314  1.0000
  O   O3        1.0  0.21844  0.09225  0.98686  1.0000
  O   O4        1.0  0.28156  0.90775  0.48686  1.0000
  O   O5        1.0  0.21844  0.40775  0.48686  1.0000
  O   O6        1.0  0.28156  0.59225  0.98686  1.0000
  O   O7        1.0  0.78156  0.90775  0.01314  1.0000
  O   O8        1.0  0.71844  0.09225  0.51314  1.0000
  O   O9        1.0  0.54559  0.76537  0.50704  1.0000
  O   O10       1.0  0.95441  0.23463  0.00704  1.0000
  O   O11       1.0  0.45441  0.26537  0.99296  1.0000
  O   O12       1.0  0.04559  0.73463  0.49296  1.0000
  O   O13       1.0  0.45441  0.23463  0.49296  1.0000
  O   O14       1.0  0.04559  0.76537  0.99296  1.0000
  O   O15       1.0  0.54559  0.73463  0.00704  1.0000
  O   O16       1.0  0.95441  0.26537  0.50704  1.0000
  O   O17       1.0  0.66360  0.43848  0.52159  1.0000
  O   O18       1.0  0.83639  0.56152  0.02159  1.0000
  O   O19       1.0  0.33640  0.93848  0.97841  1.0000
  O   O20       1.0  0.16361  0.06151  0.47841  1.0000
  O   O21       1.0  0.33639  0.56152  0.47841  1.0000
  O   O22       1.0  0.16360  0.43848  0.97841  1.0000
  O   O23       1.0  0.66361  0.06152  0.02159  1.0000
  O   O24       1.0  0.83640  0.93848  0.52159  1.0000
  O   O25       1.0  0.69573  0.28497  0.65186  1.0000
  O   O26       1.0  0.80427  0.71503  0.15186  1.0000
  O   O27       1.0  0.30427  0.78497  0.84814  1.0000
  O   O28       1.0  0.19573  0.21503  0.34814  1.0000
  O   O29       1.0  0.30427  0.71503  0.34814  1.0000
  O   O30       1.0  0.19573  0.28497  0.84814  1.0000
  O   O31       1.0  0.69573  0.21503  0.15186  1.0000
  O   O32       1.0  0.80427  0.78497  0.65186  1.0000
  O   O33       1.0  0.79007  0.28036  0.80243  1.0000
  O   O34       1.0  0.70993  0.71964  0.30242  1.0000
  O   O35       1.0  0.20993  0.78036  0.69758  1.0000
  O   O36       1.0  0.29007  0.21964  0.19758  1.0000
  O   O37       1.0  0.20993  0.71964  0.19757  1.0000
  O   O38       1.0  0.29007  0.28036  0.69758  1.0000
  O   O39       1.0  0.79007  0.21964  0.30242  1.0000
  O   O40       1.0  0.70993  0.78036  0.80243  1.0000
