data_image0
_chemical_formula_structural       Rb8Mo8P8H24C12O44
_chemical_formula_sum              "Rb8 Mo8 P8 H24 C12 O44"
_cell_length_a       9.74884
_cell_length_b       9.9703
_cell_length_c       13.97
_cell_angle_alpha    97.3946
_cell_angle_beta     90
_cell_angle_gamma    90

_space_group_name_H-M_alt    "P 1"
_space_group_IT_number       1

loop_
  _space_group_symop_operation_xyz
  'x, y, z'

loop_
  _atom_site_type_symbol
  _atom_site_label
  _atom_site_symmetry_multiplicity
  _atom_site_fract_x
  _atom_site_fract_y
  _atom_site_fract_z
  _atom_site_occupancy
  Rb  Rb1       1.0  0.16635  0.81224  0.49959  1.0000
  Rb  Rb2       1.0  0.66635  0.68776  0.50041  1.0000
  Rb  Rb3       1.0  0.83365  0.18776  0.50041  1.0000
  Rb  Rb4       1.0  0.33365  0.31224  0.49959  1.0000
  Rb  Rb5       1.0  0.00254  0.45692  0.26982  1.0000
  Rb  Rb6       1.0  0.50254  0.04308  0.73018  1.0000
  Rb  Rb7       1.0  0.99746  0.54308  0.73018  1.0000
  Rb  Rb8       1.0  0.49746  0.95692  0.26982  1.0000
  Mo  Mo1       1.0  0.35692  0.58737  0.31455  1.0000
  Mo  Mo2       1.0  0.85692  0.91262  0.68545  1.0000
  Mo  Mo3       1.0  0.64308  0.41262  0.68545  1.0000
  Mo  Mo4       1.0  0.14307  0.08738  0.31455  1.0000
  Mo  Mo5       1.0  0.35422  0.65829  0.69204  1.0000
  Mo  Mo6       1.0  0.85422  0.84171  0.30796  1.0000
  Mo  Mo7       1.0  0.64578  0.34171  0.30796  1.0000
  Mo  Mo8       1.0  0.14578  0.15829  0.69204  1.0000
  P   P1        1.0  0.35345  0.27433  0.17972  1.0000
  P   P2        1.0  0.85345  0.22567  0.82028  1.0000
  P   P3        1.0  0.64655  0.72567  0.82028  1.0000
  P   P4        1.0  0.14655  0.77433  0.17972  1.0000
  P   P5        1.0  0.36173  0.39053  0.82614  1.0000
  P   P6        1.0  0.86173  0.10947  0.17386  1.0000
  P   P7        1.0  0.63827  0.60947  0.17386  1.0000
  P   P8        1.0  0.13827  0.89053  0.82614  1.0000
  H   H1        1.0  0.18948  0.19718  0.05979  1.0000
  H   H2        1.0  0.68948  0.30282  0.94020  1.0000
  H   H3        1.0  0.81052  0.80282  0.94021  1.0000
  H   H4        1.0  0.31052  0.69718  0.05979  1.0000
  H   H5        1.0  0.32332  0.08243  0.06889  1.0000
  H   H6        1.0  0.82332  0.41757  0.93111  1.0000
  H   H7        1.0  0.67668  0.91757  0.93111  1.0000
  H   H8        1.0  0.17668  0.58243  0.06889  1.0000
  H   H9        1.0  0.21107  0.37829  0.95601  1.0000
  H   H10       1.0  0.71106  0.12171  0.04399  1.0000
  H   H11       1.0  0.78893  0.62171  0.04399  1.0000
  H   H12       1.0  0.28893  0.87829  0.95601  1.0000
  H   H13       1.0  0.36837  0.45432  0.99824  1.0000
  H   H14       1.0  0.86837  0.04568  0.00176  1.0000
  H   H15       1.0  0.63163  0.54568  0.00176  1.0000
  H   H16       1.0  0.13163  0.95432  0.99824  1.0000
  H   H17       1.0  0.34510  0.15480  0.91387  1.0000
  H   H18       1.0  0.84510  0.34520  0.08613  1.0000
  H   H19       1.0  0.65490  0.84520  0.08613  1.0000
  H   H20       1.0  0.15490  0.65480  0.91387  1.0000
  H   H21       1.0  0.48296  0.23247  0.98387  1.0000
  H   H22       1.0  0.98296  0.26753  0.01613  1.0000
  H   H23       1.0  0.51704  0.76753  0.01613  1.0000
  H   H24       1.0  0.01704  0.73247  0.98387  1.0000
  C   C1        1.0  0.30189  0.18964  0.06373  1.0000
  C   C2        1.0  0.80189  0.31036  0.93627  1.0000
  C   C3        1.0  0.69811  0.81036  0.93627  1.0000
  C   C4        1.0  0.19811  0.68964  0.06373  1.0000
  C   C5        1.0  0.37096  0.23229  0.97445  1.0000
  C   C6        1.0  0.87096  0.26771  0.02555  1.0000
  C   C7        1.0  0.62904  0.76771  0.02555  1.0000
  C   C8        1.0  0.12904  0.73229  0.97445  1.0000
  C   C9        1.0  0.32354  0.37025  0.94970  1.0000
  C   C10       1.0  0.82354  0.12975  0.05030  1.0000
  C   C11       1.0  0.67646  0.62975  0.05030  1.0000
  C   C12       1.0  0.17646  0.87025  0.94970  1.0000
  O   O1        1.0  0.29477  0.41799  0.19950  1.0000
  O   O2        1.0  0.79477  0.08201  0.80050  1.0000
  O   O3        1.0  0.70523  0.58201  0.80050  1.0000
  O   O4        1.0  0.20523  0.91799  0.19950  1.0000
  O   O5        1.0  0.28886  0.26735  0.76574  1.0000
  O   O6        1.0  0.78886  0.23265  0.23426  1.0000
  O   O7        1.0  0.71114  0.73265  0.23426  1.0000
  O   O8        1.0  0.21114  0.76735  0.76574  1.0000
  O   O9        1.0  0.28895  0.18341  0.25169  1.0000
  O   O10       1.0  0.78895  0.31658  0.74830  1.0000
  O   O11       1.0  0.71105  0.81659  0.74831  1.0000
  O   O12       1.0  0.21105  0.68341  0.25169  1.0000
  O   O13       1.0  0.23909  0.52958  0.39274  1.0000
  O   O14       1.0  0.73909  0.97042  0.60726  1.0000
  O   O15       1.0  0.76091  0.47043  0.60726  1.0000
  O   O16       1.0  0.26091  0.02957  0.39275  1.0000
  O   O17       1.0  0.50001  0.46758  0.33957  1.0000
  O   O18       1.0  0.00001  0.03242  0.66043  1.0000
  O   O19       1.0  0.49999  0.53242  0.66043  1.0000
  O   O20       1.0  0.99999  0.96758  0.33957  1.0000
  O   O21       1.0  0.42258  0.73185  0.38153  1.0000
  O   O22       1.0  0.92258  0.76815  0.61847  1.0000
  O   O23       1.0  0.57742  0.26815  0.61847  1.0000
  O   O24       1.0  0.07742  0.23185  0.38153  1.0000
  O   O25       1.0  0.51692  0.37388  0.80990  1.0000
  O   O26       1.0  0.01692  0.12612  0.19010  1.0000
  O   O27       1.0  0.48308  0.62612  0.19010  1.0000
  O   O28       1.0  0.98308  0.87388  0.80990  1.0000
  O   O29       1.0  0.23654  0.57434  0.61275  1.0000
  O   O30       1.0  0.73654  0.92566  0.38725  1.0000
  O   O31       1.0  0.76346  0.42566  0.38725  1.0000
  O   O32       1.0  0.26346  0.07434  0.61275  1.0000
  O   O33       1.0  0.41329  0.78444  0.62796  1.0000
  O   O34       1.0  0.91329  0.71556  0.37204  1.0000
  O   O35       1.0  0.58671  0.21556  0.37204  1.0000
  O   O36       1.0  0.08671  0.28444  0.62796  1.0000
  O   O37       1.0  0.51026  0.26422  0.18640  1.0000
  O   O38       1.0  0.01026  0.23578  0.81360  1.0000
  O   O39       1.0  0.48974  0.73578  0.81360  1.0000
  O   O40       1.0  0.98974  0.76422  0.18640  1.0000
  O   O41       1.0  0.30003  0.52276  0.80141  1.0000
  O   O42       1.0  0.80003  0.97724  0.19859  1.0000
  O   O43       1.0  0.69996  0.47725  0.19859  1.0000
  O   O44       1.0  0.19997  0.02276  0.80141  1.0000
