data_image0
_chemical_formula_structural       Cd3H10C18O14
_chemical_formula_sum              "Cd3 H10 C18 O14"
_cell_length_a       6.28886
_cell_length_b       9.67157
_cell_length_c       9.79346
_cell_angle_alpha    63.6638
_cell_angle_beta     81.926
_cell_angle_gamma    77.9428

_space_group_name_H-M_alt    "P 1"
_space_group_IT_number       1

loop_
  _space_group_symop_operation_xyz
  'x, y, z'

loop_
  _atom_site_type_symbol
  _atom_site_label
  _atom_site_symmetry_multiplicity
  _atom_site_fract_x
  _atom_site_fract_y
  _atom_site_fract_z
  _atom_site_occupancy
  Cd  Cd1       1.0  0.21105  0.43627  0.36011  1.0000
  Cd  Cd2       1.0  0.78895  0.56373  0.63990  1.0000
  Cd  Cd3       1.0  0.50000  0.50000  0.00000  1.0000
  H   H1        1.0  0.14326  0.39054  0.90538  1.0000
  H   H2        1.0  0.85675  0.60946  0.09462  1.0000
  H   H3        1.0  0.29934  0.97979  0.82097  1.0000
  H   H4        1.0  0.70065  0.02022  0.17903  1.0000
  H   H5        1.0  0.19205  0.93475  0.28259  1.0000
  H   H6        1.0  0.80795  0.06525  0.71741  1.0000
  H   H7        1.0  0.31693  0.53581  0.69961  1.0000
  H   H8        1.0  0.68308  0.46419  0.30040  1.0000
  H   H9        1.0  0.27789  0.69915  0.70003  1.0000
  H   H10       1.0  0.72211  0.30085  0.29997  1.0000
  C   C1        1.0  0.12415  0.25086  0.20791  1.0000
  C   C2        1.0  0.87585  0.74914  0.79209  1.0000
  C   C3        1.0  0.22194  0.29763  0.67800  1.0000
  C   C4        1.0  0.77806  0.70237  0.32200  1.0000
  C   C5        1.0  0.29167  0.76574  0.11215  1.0000
  C   C6        1.0  0.70833  0.23426  0.88785  1.0000
  C   C7        1.0  0.17123  0.17106  0.10430  1.0000
  C   C8        1.0  0.82877  0.82894  0.89570  1.0000
  C   C9        1.0  0.17902  0.26399  0.94721  1.0000
  C   C10       1.0  0.82098  0.73601  0.05279  1.0000
  C   C11       1.0  0.22326  0.19645  0.84454  1.0000
  C   C12       1.0  0.77674  0.80355  0.15546  1.0000
  C   C13       1.0  0.26377  0.03340  0.90027  1.0000
  C   C14       1.0  0.73623  0.96660  0.09973  1.0000
  C   C15       1.0  0.25386  0.93957  0.05727  1.0000
  C   C16       1.0  0.74614  0.06043  0.94273  1.0000
  C   C17       1.0  0.20413  0.00810  0.16019  1.0000
  C   C18       1.0  0.79587  0.99190  0.83981  1.0000
  O   O1        1.0  0.26895  0.23439  0.58623  1.0000
  O   O2        1.0  0.73105  0.76561  0.41377  1.0000
  O   O3        1.0  0.17068  0.44824  0.62975  1.0000
  O   O4        1.0  0.82933  0.55176  0.37025  1.0000
  O   O5        1.0  0.00985  0.19996  0.32899  1.0000
  O   O6        1.0  0.99015  0.80004  0.67101  1.0000
  O   O7        1.0  0.20805  0.37898  0.16168  1.0000
  O   O8        1.0  0.79196  0.62101  0.83832  1.0000
  O   O9        1.0  0.33112  0.71678  0.00822  1.0000
  O   O10       1.0  0.66888  0.28322  0.99178  1.0000
  O   O11       1.0  0.27903  0.68136  0.25557  1.0000
  O   O12       1.0  0.72097  0.31864  0.74443  1.0000
  O   O13       1.0  0.38518  0.60094  0.73131  1.0000
  O   O14       1.0  0.61482  0.39906  0.26869  1.0000
