data_image0
_chemical_formula_structural       Ag4H36C48S4N12O16F12
_chemical_formula_sum              "Ag4 H36 C48 S4 N12 O16 F12"
_cell_length_a       10.4856
_cell_length_b       11.1407
_cell_length_c       13.2918
_cell_angle_alpha    91.0678
_cell_angle_beta     90
_cell_angle_gamma    90

_space_group_name_H-M_alt    "P 1"
_space_group_IT_number       1

loop_
  _space_group_symop_operation_xyz
  'x, y, z'

loop_
  _atom_site_type_symbol
  _atom_site_label
  _atom_site_symmetry_multiplicity
  _atom_site_fract_x
  _atom_site_fract_y
  _atom_site_fract_z
  _atom_site_occupancy
  Ag  Ag1       1.0  0.92247  0.40153  0.96395  1.0000
  Ag  Ag2       1.0  0.42247  0.09846  0.53605  1.0000
  Ag  Ag3       1.0  0.07753  0.59847  0.03605  1.0000
  Ag  Ag4       1.0  0.57753  0.90153  0.46395  1.0000
  H   H1        1.0  0.96555  0.49785  0.75846  1.0000
  H   H2        1.0  0.46555  0.00215  0.74153  1.0000
  H   H3        1.0  0.03445  0.50216  0.24154  1.0000
  H   H4        1.0  0.53446  0.99785  0.25846  1.0000
  H   H5        1.0  0.85667  0.62632  0.63217  1.0000
  H   H6        1.0  0.35668  0.87367  0.86782  1.0000
  H   H7        1.0  0.14334  0.37368  0.36783  1.0000
  H   H8        1.0  0.64334  0.12632  0.13218  1.0000
  H   H9        1.0  0.56538  0.69829  0.85526  1.0000
  H   H10       1.0  0.06538  0.80172  0.64474  1.0000
  H   H11       1.0  0.43461  0.30170  0.14473  1.0000
  H   H12       1.0  0.93462  0.19831  0.35528  1.0000
  H   H13       1.0  0.68568  0.56768  0.97203  1.0000
  H   H14       1.0  0.18568  0.93234  0.52797  1.0000
  H   H15       1.0  0.31430  0.43230  0.02797  1.0000
  H   H16       1.0  0.81431  0.06769  0.47205  1.0000
  H   H17       1.0  0.51789  0.52782  0.69208  1.0000
  H   H18       1.0  0.01790  0.97217  0.80792  1.0000
  H   H19       1.0  0.48210  0.47217  0.30791  1.0000
  H   H20       1.0  0.98209  0.02782  0.19210  1.0000
  H   H21       1.0  0.33118  0.44426  0.60061  1.0000
  H   H22       1.0  0.83118  0.05574  0.89937  1.0000
  H   H23       1.0  0.66881  0.55574  0.39937  1.0000
  H   H24       1.0  0.16881  0.94425  0.10064  1.0000
  H   H25       1.0  0.23480  0.56418  0.45928  1.0000
  H   H26       1.0  0.73479  0.93582  0.04070  1.0000
  H   H27       1.0  0.76521  0.43584  0.54070  1.0000
  H   H28       1.0  0.26520  0.06416  0.95931  1.0000
  H   H29       1.0  0.34057  0.75576  0.41213  1.0000
  H   H30       1.0  0.84056  0.74424  0.08786  1.0000
  H   H31       1.0  0.65944  0.24425  0.58786  1.0000
  H   H32       1.0  0.15943  0.25573  0.91214  1.0000
  H   H33       1.0  0.72367  0.99506  0.71151  1.0000
  H   H34       1.0  0.22367  0.50493  0.78848  1.0000
  H   H35       1.0  0.27633  0.00492  0.28849  1.0000
  H   H36       1.0  0.77633  0.49507  0.21151  1.0000
  C   C1        1.0  0.87712  0.54459  0.77660  1.0000
  C   C2        1.0  0.37712  0.95542  0.72340  1.0000
  C   C3        1.0  0.12288  0.45542  0.22340  1.0000
  C   C4        1.0  0.62289  0.04459  0.27661  1.0000
  C   C5        1.0  0.81608  0.61623  0.70699  1.0000
  C   C6        1.0  0.31608  0.88377  0.79300  1.0000
  C   C7        1.0  0.18392  0.38378  0.29301  1.0000
  C   C8        1.0  0.68393  0.11622  0.20700  1.0000
  C   C9        1.0  0.70182  0.67274  0.73390  1.0000
  C   C10       1.0  0.20182  0.82726  0.76609  1.0000
  C   C11       1.0  0.29818  0.32726  0.26610  1.0000
  C   C12       1.0  0.79818  0.17275  0.23391  1.0000
  C   C13       1.0  0.65432  0.65644  0.83101  1.0000
  C   C14       1.0  0.15432  0.84356  0.66898  1.0000
  C   C15       1.0  0.34567  0.34355  0.16899  1.0000
  C   C16       1.0  0.84568  0.15646  0.33103  1.0000
  C   C17       1.0  0.72084  0.58332  0.89622  1.0000
  C   C18       1.0  0.22084  0.91669  0.60378  1.0000
  C   C19       1.0  0.27915  0.41667  0.10378  1.0000
  C   C20       1.0  0.77917  0.08332  0.39623  1.0000
  C   C21       1.0  0.62983  0.74544  0.66055  1.0000
  C   C22       1.0  0.12985  0.75455  0.83945  1.0000
  C   C23       1.0  0.37016  0.25455  0.33946  1.0000
  C   C24       1.0  0.87016  0.24545  0.16055  1.0000
  C   C25       1.0  0.52582  0.68817  0.60242  1.0000
  C   C26       1.0  0.02584  0.81183  0.89758  1.0000
  C   C27       1.0  0.47417  0.31183  0.39758  1.0000
  C   C28       1.0  0.97417  0.18816  0.10243  1.0000
  C   C29       1.0  0.47539  0.57756  0.63082  1.0000
  C   C30       1.0  0.97540  0.92244  0.86917  1.0000
  C   C31       1.0  0.52459  0.42244  0.36918  1.0000
  C   C32       1.0  0.02458  0.07755  0.13083  1.0000
  C   C33       1.0  0.36978  0.53114  0.57967  1.0000
  C   C34       1.0  0.86978  0.96886  0.92032  1.0000
  C   C35       1.0  0.63021  0.46887  0.42032  1.0000
  C   C36       1.0  0.13020  0.03113  0.07969  1.0000
  C   C37       1.0  0.31707  0.59637  0.50175  1.0000
  C   C38       1.0  0.81706  0.90363  0.99824  1.0000
  C   C39       1.0  0.68293  0.40365  0.49824  1.0000
  C   C40       1.0  0.18293  0.09635  0.00177  1.0000
  C   C41       1.0  0.37465  0.70385  0.47511  1.0000
  C   C42       1.0  0.87465  0.79615  0.02489  1.0000
  C   C43       1.0  0.62535  0.29617  0.52489  1.0000
  C   C44       1.0  0.12533  0.20382  0.97512  1.0000
  C   C45       1.0  0.54103  0.20942  0.89698  1.0000
  C   C46       1.0  0.04104  0.29056  0.60301  1.0000
  C   C47       1.0  0.45898  0.79056  0.10301  1.0000
  C   C48       1.0  0.95897  0.70946  0.39697  1.0000
  S   S1        1.0  0.66666  0.23517  0.79992  1.0000
  S   S2        1.0  0.16667  0.26484  0.70007  1.0000
  S   S3        1.0  0.33334  0.76482  0.20007  1.0000
  S   S4        1.0  0.83333  0.73518  0.29993  1.0000
  N   N1        1.0  0.83022  0.52794  0.86967  1.0000
  N   N2        1.0  0.33022  0.97206  0.63033  1.0000
  N   N3        1.0  0.16978  0.47206  0.13033  1.0000
  N   N4        1.0  0.66979  0.02795  0.36968  1.0000
  N   N5        1.0  0.47744  0.74797  0.52306  1.0000
  N   N6        1.0  0.97745  0.75203  0.97694  1.0000
  N   N7        1.0  0.52256  0.25204  0.47695  1.0000
  N   N8        1.0  0.02255  0.24795  0.02306  1.0000
  N   N9        1.0  0.64726  0.85980  0.64987  1.0000
  N   N10       1.0  0.14727  0.64019  0.85012  1.0000
  N   N11       1.0  0.35274  0.14019  0.35013  1.0000
  N   N12       1.0  0.85274  0.35981  0.14988  1.0000
  O   O1        1.0  0.74386  0.90722  0.70901  1.0000
  O   O2        1.0  0.24386  0.59277  0.79099  1.0000
  O   O3        1.0  0.25614  0.09277  0.29100  1.0000
  O   O4        1.0  0.75614  0.40723  0.20901  1.0000
  O   O5        1.0  0.78391  0.23071  0.85857  1.0000
  O   O6        1.0  0.28391  0.26930  0.64141  1.0000
  O   O7        1.0  0.21609  0.76928  0.14143  1.0000
  O   O8        1.0  0.71609  0.73071  0.35858  1.0000
  O   O9        1.0  0.63241  0.35028  0.75892  1.0000
  O   O10       1.0  0.13243  0.14973  0.74109  1.0000
  O   O11       1.0  0.36761  0.64972  0.24109  1.0000
  O   O12       1.0  0.86758  0.85029  0.25891  1.0000
  O   O13       1.0  0.64956  0.13217  0.72984  1.0000
  O   O14       1.0  0.14955  0.36784  0.77016  1.0000
  O   O15       1.0  0.35046  0.86782  0.27015  1.0000
  O   O16       1.0  0.85044  0.63219  0.22984  1.0000
  F   F1        1.0  0.55586  0.10009  0.94066  1.0000
  F   F2        1.0  0.05587  0.39989  0.55934  1.0000
  F   F3        1.0  0.44415  0.89989  0.05934  1.0000
  F   F4        1.0  0.94416  0.60012  0.44065  1.0000
  F   F5        1.0  0.54832  0.29467  0.97189  1.0000
  F   F6        1.0  0.04832  0.20531  0.52811  1.0000
  F   F7        1.0  0.45167  0.70532  0.02809  1.0000
  F   F8        1.0  0.95168  0.79469  0.47189  1.0000
  F   F9        1.0  0.42189  0.21329  0.85771  1.0000
  F   F10       1.0  0.92190  0.28670  0.64229  1.0000
  F   F11       1.0  0.57811  0.78668  0.14228  1.0000
  F   F12       1.0  0.07812  0.71332  0.35770  1.0000
