data_image0
_chemical_formula_structural       Ag4H18C26S4N6O14F12
_chemical_formula_sum              "Ag4 H18 C26 S4 N6 O14 F12"
_cell_length_a       10.2822
_cell_length_b       10.2798
_cell_length_c       11.1123
_cell_angle_alpha    96.2071
_cell_angle_beta     103.236
_cell_angle_gamma    116.666

_space_group_name_H-M_alt    "P 1"
_space_group_IT_number       1

loop_
  _space_group_symop_operation_xyz
  'x, y, z'

loop_
  _atom_site_type_symbol
  _atom_site_label
  _atom_site_symmetry_multiplicity
  _atom_site_fract_x
  _atom_site_fract_y
  _atom_site_fract_z
  _atom_site_occupancy
  Ag  Ag1       1.0  0.27277  0.18504  0.43909  1.0000
  Ag  Ag2       1.0  0.72723  0.81496  0.56092  1.0000
  Ag  Ag3       1.0  0.19869  0.80554  0.52954  1.0000
  Ag  Ag4       1.0  0.80131  0.19446  0.47046  1.0000
  H   H1        1.0  0.57724  0.58198  0.20621  1.0000
  H   H2        1.0  0.42276  0.41803  0.79379  1.0000
  H   H3        1.0  0.35615  0.58649  0.06035  1.0000
  H   H4        1.0  0.64385  0.41351  0.93965  1.0000
  H   H5        1.0  0.08980  0.41243  0.06335  1.0000
  H   H6        1.0  0.91020  0.58757  0.93665  1.0000
  H   H7        1.0  0.06032  0.24957  0.21916  1.0000
  H   H8        1.0  0.93968  0.75043  0.78083  1.0000
  H   H9        1.0  0.85517  0.63594  0.51156  1.0000
  H   H10       1.0  0.14483  0.36406  0.48844  1.0000
  H   H11       1.0  0.60294  0.28747  0.16272  1.0000
  H   H12       1.0  0.39706  0.71253  0.83728  1.0000
  H   H13       1.0  0.85206  0.36439  0.11779  1.0000
  H   H14       1.0  0.14794  0.63561  0.88222  1.0000
  H   H15       1.0  0.09244  0.57487  0.27562  1.0000
  H   H16       1.0  0.90756  0.42513  0.72438  1.0000
  H   H17       1.0  0.62334  0.29526  0.61189  1.0000
  H   H18       1.0  0.37666  0.70473  0.38810  1.0000
  C   C1        1.0  0.43450  0.41111  0.28595  1.0000
  C   C2        1.0  0.56550  0.58889  0.71405  1.0000
  C   C3        1.0  0.46072  0.50753  0.20377  1.0000
  C   C4        1.0  0.53928  0.49247  0.79623  1.0000
  C   C5        1.0  0.33712  0.51075  0.12369  1.0000
  C   C6        1.0  0.66288  0.48925  0.87631  1.0000
  C   C7        1.0  0.19026  0.41685  0.12708  1.0000
  C   C8        1.0  0.80974  0.58315  0.87291  1.0000
  C   C9        1.0  0.17282  0.32483  0.21237  1.0000
  C   C10       1.0  0.82718  0.67517  0.78763  1.0000
  C   C11       1.0  0.56498  0.40779  0.37267  1.0000
  C   C12       1.0  0.43502  0.59221  0.62733  1.0000
  C   C13       1.0  0.84971  0.57249  0.42351  1.0000
  C   C14       1.0  0.15029  0.42751  0.57649  1.0000
  C   C15       1.0  0.70967  0.45594  0.34101  1.0000
  C   C16       1.0  0.29033  0.54406  0.65899  1.0000
  C   C17       1.0  0.70953  0.38026  0.22822  1.0000
  C   C18       1.0  0.29047  0.61974  0.77178  1.0000
  C   C19       1.0  0.84793  0.42264  0.20353  1.0000
  C   C20       1.0  0.15207  0.57736  0.79647  1.0000
  C   C21       1.0  0.98192  0.53935  0.29106  1.0000
  C   C22       1.0  0.01808  0.46064  0.70895  1.0000
  C   C23       1.0  0.18115  0.15058  0.85346  1.0000
  C   C24       1.0  0.81885  0.84942  0.14654  1.0000
  C   C25       1.0  0.29602  0.92010  0.14178  1.0000
  C   C26       1.0  0.70398  0.07990  0.85822  1.0000
  S   S1        1.0  0.11262  0.05898  0.68068  1.0000
  S   S2        1.0  0.88738  0.94102  0.31932  1.0000
  S   S3        1.0  0.42597  0.94861  0.30194  1.0000
  S   S4        1.0  0.57403  0.05139  0.69806  1.0000
  N   N1        1.0  0.29159  0.32150  0.29002  1.0000
  N   N2        1.0  0.70841  0.67850  0.70998  1.0000
  N   N3        1.0  0.54257  0.35628  0.47199  1.0000
  N   N4        1.0  0.45743  0.64372  0.52801  1.0000
  N   N5        1.0  0.98292  0.61357  0.39917  1.0000
  N   N6        1.0  0.01708  0.38643  0.60083  1.0000
  O   O1        1.0  0.23844  0.15966  0.63864  1.0000
  O   O2        1.0  0.76156  0.84034  0.36136  1.0000
  O   O3        1.0  0.09521  0.90927  0.67826  1.0000
  O   O4        1.0  0.90479  0.09073  0.32175  1.0000
  O   O5        1.0  0.96928  0.06185  0.63352  1.0000
  O   O6        1.0  0.03072  0.93815  0.36648  1.0000
  O   O7        1.0  0.35089  0.97393  0.39155  1.0000
  O   O8        1.0  0.64911  0.02607  0.60845  1.0000
  O   O9        1.0  0.42964  0.80716  0.29200  1.0000
  O   O10       1.0  0.57036  0.19284  0.70800  1.0000
  O   O11       1.0  0.56882  0.07856  0.30619  1.0000
  O   O12       1.0  0.43118  0.92144  0.69381  1.0000
  O   O13       1.0  0.66572  0.35403  0.54995  1.0000
  O   O14       1.0  0.33428  0.64597  0.45005  1.0000
  F   F1        1.0  0.19402  0.28956  0.86744  1.0000
  F   F2        1.0  0.80598  0.71045  0.13256  1.0000
  F   F3        1.0  0.08185  0.07040  0.91293  1.0000
  F   F4        1.0  0.91815  0.92960  0.08707  1.0000
  F   F5        1.0  0.32077  0.16716  0.91204  1.0000
  F   F6        1.0  0.67923  0.83284  0.08796  1.0000
  F   F7        1.0  0.15666  0.79642  0.11799  1.0000
  F   F8        1.0  0.84334  0.20358  0.88201  1.0000
  F   F9        1.0  0.27515  0.04004  0.13536  1.0000
  F   F10       1.0  0.72485  0.95996  0.86464  1.0000
  F   F11       1.0  0.35479  0.89888  0.04840  1.0000
  F   F12       1.0  0.64522  0.10111  0.95160  1.0000
