data_image0
_chemical_formula_structural       CdH38C38S2N6O8
_chemical_formula_sum              "Cd1 H38 C38 S2 N6 O8"
_cell_length_a       9.62575
_cell_length_b       9.60092
_cell_length_c       10.1342
_cell_angle_alpha    81.0157
_cell_angle_beta     87.3735
_cell_angle_gamma    85.2693

_space_group_name_H-M_alt    "P 1"
_space_group_IT_number       1

loop_
  _space_group_symop_operation_xyz
  'x, y, z'

loop_
  _atom_site_type_symbol
  _atom_site_label
  _atom_site_symmetry_multiplicity
  _atom_site_fract_x
  _atom_site_fract_y
  _atom_site_fract_z
  _atom_site_occupancy
  Cd  Cd1       1.0  0.50000  1.00000  0.00000  1.0000
  H   H1        1.0  0.56293  0.15135  0.28453  1.0000
  H   H2        1.0  0.43707  0.84865  0.71547  1.0000
  H   H3        1.0  0.24569  0.94909  0.40342  1.0000
  H   H4        1.0  0.75431  0.05091  0.59658  1.0000
  H   H5        1.0  0.70228  0.71900  0.36439  1.0000
  H   H6        1.0  0.29772  0.28099  0.63561  1.0000
  H   H7        1.0  0.14571  0.15500  0.50595  1.0000
  H   H8        1.0  0.85429  0.84499  0.49405  1.0000
  H   H9        1.0  0.32300  0.58292  0.83977  1.0000
  H   H10       1.0  0.67699  0.41707  0.16023  1.0000
  H   H11       1.0  0.27596  0.62883  0.60079  1.0000
  H   H12       1.0  0.72403  0.37117  0.39921  1.0000
  H   H13       1.0  0.15185  0.45649  0.31730  1.0000
  H   H14       1.0  0.84814  0.54352  0.68270  1.0000
  H   H15       1.0  0.33314  0.61225  0.02442  1.0000
  H   H16       1.0  0.66685  0.38776  0.97558  1.0000
  H   H17       1.0  0.26519  0.58287  0.18858  1.0000
  H   H18       1.0  0.73481  0.41713  0.81143  1.0000
  H   H19       1.0  0.33541  0.31641  0.94189  1.0000
  H   H20       1.0  0.66459  0.68360  0.05811  1.0000
  H   H21       1.0  0.43670  0.41640  0.31689  1.0000
  H   H22       1.0  0.56329  0.58361  0.68311  1.0000
  H   H23       1.0  0.78311  0.13370  0.11994  1.0000
  H   H24       1.0  0.21689  0.86631  0.88006  1.0000
  H   H25       1.0  0.03428  0.05287  0.32261  1.0000
  H   H26       1.0  0.96572  0.94713  0.67739  1.0000
  H   H27       1.0  0.98108  0.18354  0.18590  1.0000
  H   H28       1.0  0.01892  0.81647  0.81409  1.0000
  H   H29       1.0  0.13181  0.06405  0.16781  1.0000
  H   H30       1.0  0.86819  0.93595  0.83218  1.0000
  H   H31       1.0  0.92763  0.77356  0.12224  1.0000
  H   H32       1.0  0.07237  0.22644  0.87776  1.0000
  H   H33       1.0  0.98521  0.77806  0.28637  1.0000
  H   H34       1.0  0.01480  0.22194  0.71363  1.0000
  H   H35       1.0  0.10072  0.82201  0.14746  1.0000
  H   H36       1.0  0.89928  0.17799  0.85253  1.0000
  H   H37       1.0  0.03883  0.61221  0.52304  1.0000
  H   H38       1.0  0.96117  0.38779  0.47697  1.0000
  C   C1        1.0  0.49601  0.22410  0.21853  1.0000
  C   C2        1.0  0.50399  0.77590  0.78147  1.0000
  C   C3        1.0  0.31151  0.00699  0.45642  1.0000
  C   C4        1.0  0.68849  0.99301  0.54357  1.0000
  C   C5        1.0  0.45585  0.96298  0.46395  1.0000
  C   C6        1.0  0.54415  0.03701  0.53605  1.0000
  C   C7        1.0  0.51855  0.84860  0.40146  1.0000
  C   C8        1.0  0.48145  0.15139  0.59854  1.0000
  C   C9        1.0  0.65881  0.80698  0.41322  1.0000
  C   C10       1.0  0.34120  0.19302  0.58678  1.0000
  C   C11       1.0  0.25624  0.12035  0.51505  1.0000
  C   C12       1.0  0.74377  0.87964  0.48495  1.0000
  C   C13       1.0  0.13430  0.51828  0.04542  1.0000
  C   C14       1.0  0.86569  0.48172  0.95458  1.0000
  C   C15       1.0  0.02735  0.47529  0.13924  1.0000
  C   C16       1.0  0.97264  0.52471  0.86077  1.0000
  C   C17       1.0  0.10974  0.54109  0.90694  1.0000
  C   C18       1.0  0.89025  0.45891  0.09306  1.0000
  C   C19       1.0  0.21736  0.57722  0.80882  1.0000
  C   C20       1.0  0.78263  0.42278  0.19119  1.0000
  C   C21       1.0  0.19273  0.60188  0.67460  1.0000
  C   C22       1.0  0.80726  0.39812  0.32540  1.0000
  C   C23       1.0  0.04925  0.44707  0.28005  1.0000
  C   C24       1.0  0.95074  0.55294  0.71996  1.0000
  C   C25       1.0  0.27528  0.53824  0.09532  1.0000
  C   C26       1.0  0.72471  0.46177  0.90468  1.0000
  C   C27       1.0  0.37881  0.30518  0.03992  1.0000
  C   C28       1.0  0.62120  0.69483  0.96008  1.0000
  C   C29       1.0  0.43285  0.35334  0.23756  1.0000
  C   C30       1.0  0.56715  0.64666  0.76244  1.0000
  C   C31       1.0  0.81013  0.01881  0.12489  1.0000
  C   C32       1.0  0.18988  0.98119  0.87511  1.0000
  C   C33       1.0  0.02651  0.07505  0.21325  1.0000
  C   C34       1.0  0.97349  0.92496  0.78675  1.0000
  C   C35       1.0  0.99080  0.82890  0.18129  1.0000
  C   C36       1.0  0.00921  0.17110  0.81871  1.0000
  C   C37       1.0  0.05710  0.59143  0.62996  1.0000
  C   C38       1.0  0.94289  0.40856  0.37005  1.0000
  S   S1        1.0  0.42097  0.76072  0.29635  1.0000
  S   S2        1.0  0.57903  0.23928  0.70365  1.0000
  N   N1        1.0  0.35995  0.40324  0.12308  1.0000
  N   N2        1.0  0.64005  0.59676  0.87692  1.0000
  N   N3        1.0  0.46160  0.19549  0.09511  1.0000
  N   N4        1.0  0.53840  0.80451  0.90488  1.0000
  N   N5        1.0  0.93861  0.97688  0.16794  1.0000
  N   N6        1.0  0.06140  0.02313  0.83206  1.0000
  O   O1        1.0  0.37317  0.87398  0.18647  1.0000
  O   O2        1.0  0.62683  0.12602  0.81353  1.0000
  O   O3        1.0  0.51957  0.65306  0.25046  1.0000
  O   O4        1.0  0.48043  0.34694  0.74953  1.0000
  O   O5        1.0  0.30135  0.70379  0.37586  1.0000
  O   O6        1.0  0.69865  0.29620  0.62414  1.0000
  O   O7        1.0  0.72696  0.93750  0.09234  1.0000
  O   O8        1.0  0.27305  0.06250  0.90766  1.0000
