data_image0
_chemical_formula_structural       Ag2H14C20N6Cl2O4
_chemical_formula_sum              "Ag2 H14 C20 N6 Cl2 O4"
_cell_length_a       6.39294
_cell_length_b       7.88621
_cell_length_c       11.4292
_cell_angle_alpha    104.412
_cell_angle_beta     108.474
_cell_angle_gamma    96.1549

_space_group_name_H-M_alt    "P 1"
_space_group_IT_number       1

loop_
  _space_group_symop_operation_xyz
  'x, y, z'

loop_
  _atom_site_type_symbol
  _atom_site_label
  _atom_site_symmetry_multiplicity
  _atom_site_fract_x
  _atom_site_fract_y
  _atom_site_fract_z
  _atom_site_occupancy
  Ag  Ag1       1.0  0.48186  0.80253  0.46113  1.0000
  Ag  Ag2       1.0  0.51813  0.19747  0.53885  1.0000
  H   H1        1.0  0.20613  0.10902  0.07895  1.0000
  H   H2        1.0  0.79389  0.89098  0.92104  1.0000
  H   H3        1.0  0.04359  0.88826  0.55233  1.0000
  H   H4        1.0  0.95643  0.11177  0.44768  1.0000
  H   H5        1.0  0.64264  0.39096  0.30440  1.0000
  H   H6        1.0  0.35737  0.60906  0.69563  1.0000
  H   H7        1.0  0.93837  0.27723  0.21578  1.0000
  H   H8        1.0  0.06162  0.72276  0.78424  1.0000
  H   H9        1.0  0.21697  0.40213  0.29026  1.0000
  H   H10       1.0  0.78303  0.59787  0.70974  1.0000
  H   H11       1.0  0.65917  0.36541  0.03067  1.0000
  H   H12       1.0  0.34080  0.63457  0.96934  1.0000
  H   H13       1.0  0.62317  0.43691  0.82806  1.0000
  H   H14       1.0  0.37683  0.56308  0.17196  1.0000
  C   C1        1.0  0.33580  0.06208  0.04411  1.0000
  C   C2        1.0  0.66421  0.93793  0.95588  1.0000
  C   C3        1.0  0.31811  0.04630  0.91701  1.0000
  C   C4        1.0  0.68191  0.95370  0.08298  1.0000
  C   C5        1.0  0.48416  0.98439  0.87098  1.0000
  C   C6        1.0  0.51586  0.01562  0.12900  1.0000
  C   C7        1.0  0.48645  0.97157  0.73754  1.0000
  C   C8        1.0  0.51357  0.02842  0.26244  1.0000
  C   C9        1.0  0.98220  0.76015  0.47746  1.0000
  C   C10       1.0  0.01781  0.23986  0.52255  1.0000
  C   C11       1.0  0.77537  0.51079  0.35131  1.0000
  C   C12       1.0  0.22463  0.48922  0.64870  1.0000
  C   C13       1.0  0.04306  0.40900  0.23812  1.0000
  C   C14       1.0  0.95691  0.59100  0.76191  1.0000
  C   C15       1.0  0.02092  0.45745  0.11532  1.0000
  C   C16       1.0  0.97904  0.54253  0.88467  1.0000
  C   C17       1.0  0.80955  0.42503  0.01798  1.0000
  C   C18       1.0  0.19040  0.57495  0.98201  1.0000
  C   C19       1.0  0.78868  0.46711  0.90382  1.0000
  C   C20       1.0  0.21129  0.53288  0.09617  1.0000
  N   N1        1.0  0.77857  0.65287  0.44519  1.0000
  N   N2        1.0  0.22145  0.34713  0.55482  1.0000
  N   N3        1.0  0.96949  0.53236  0.32867  1.0000
  N   N4        1.0  0.03050  0.46764  0.67135  1.0000
  N   N5        1.0  0.10383  0.69183  0.40907  1.0000
  N   N6        1.0  0.89616  0.30816  0.59093  1.0000
  Cl  Cl1       1.0  0.08197  0.09755  0.81844  1.0000
  Cl  Cl2       1.0  0.91805  0.90247  0.18156  1.0000
  O   O1        1.0  0.42736  0.09777  0.69299  1.0000
  O   O2        1.0  0.57265  0.90223  0.30700  1.0000
  O   O3        1.0  0.55004  0.83631  0.68287  1.0000
  O   O4        1.0  0.44999  0.16370  0.31713  1.0000
