data_image0
_chemical_formula_structural       Cu2H10C12I2N2O2
_chemical_formula_sum              "Cu2 H10 C12 I2 N2 O2"
_cell_length_a       4.04817
_cell_length_b       7.56584
_cell_length_c       12.0993
_cell_angle_alpha    96.9124
_cell_angle_beta     91.168
_cell_angle_gamma    100.173

_space_group_name_H-M_alt    "P 1"
_space_group_IT_number       1

loop_
  _space_group_symop_operation_xyz
  'x, y, z'

loop_
  _atom_site_type_symbol
  _atom_site_label
  _atom_site_symmetry_multiplicity
  _atom_site_fract_x
  _atom_site_fract_y
  _atom_site_fract_z
  _atom_site_occupancy
  Cu  Cu1       1.0  0.27559  0.08631  0.45819  1.0000
  Cu  Cu2       1.0  0.72442  0.91370  0.54181  1.0000
  H   H1        1.0  0.89143  0.93123  0.24765  1.0000
  H   H2        1.0  0.10859  0.06877  0.75235  1.0000
  H   H3        1.0  0.73954  0.03727  0.06971  1.0000
  H   H4        1.0  0.26045  0.96272  0.93029  1.0000
  H   H5        1.0  0.00912  0.34981  0.03125  1.0000
  H   H6        1.0  0.99086  0.65019  0.96875  1.0000
  H   H7        1.0  0.56922  0.40421  0.34608  1.0000
  H   H8        1.0  0.43077  0.59581  0.65392  1.0000
  H   H9        1.0  0.68872  0.64220  0.23796  1.0000
  H   H10       1.0  0.31128  0.35779  0.76204  1.0000
  C   C1        1.0  0.00817  0.06368  0.22716  1.0000
  C   C2        1.0  0.99185  0.93632  0.77284  1.0000
  C   C3        1.0  0.92424  0.12479  0.12803  1.0000
  C   C4        1.0  0.07577  0.87520  0.87197  1.0000
  C   C5        1.0  0.07447  0.29698  0.10705  1.0000
  C   C6        1.0  0.92554  0.70302  0.89294  1.0000
  C   C7        1.0  0.31037  0.40073  0.18645  1.0000
  C   C8        1.0  0.68965  0.59926  0.81355  1.0000
  C   C9        1.0  0.38423  0.32774  0.28298  1.0000
  C   C10       1.0  0.61579  0.67226  0.71702  1.0000
  C   C11       1.0  0.48381  0.58531  0.17378  1.0000
  C   C12       1.0  0.51618  0.41469  0.82622  1.0000
  I   I1        1.0  0.16826  0.73469  0.43688  1.0000
  I   I2        1.0  0.83172  0.26532  0.56313  1.0000
  N   N1        1.0  0.23339  0.16334  0.30447  1.0000
  N   N2        1.0  0.76661  0.83666  0.69554  1.0000
  O   O1        1.0  0.41827  0.67323  0.09965  1.0000
  O   O2        1.0  0.58169  0.32676  0.90035  1.0000
