data_image0
_chemical_formula_structural       Cd2H36C36N12Cl4
_chemical_formula_sum              "Cd2 H36 C36 N12 Cl4"
_cell_length_a       7.50814
_cell_length_b       8.28242
_cell_length_c       16.8851
_cell_angle_alpha    90
_cell_angle_beta     90
_cell_angle_gamma    111.81

_space_group_name_H-M_alt    "P 1"
_space_group_IT_number       1

loop_
  _space_group_symop_operation_xyz
  'x, y, z'

loop_
  _atom_site_type_symbol
  _atom_site_label
  _atom_site_symmetry_multiplicity
  _atom_site_fract_x
  _atom_site_fract_y
  _atom_site_fract_z
  _atom_site_occupancy
  Cd  Cd1       1.0  0.50000  0.50000  1.00000  1.0000
  Cd  Cd2       1.0  0.50000  0.00000  0.50000  1.0000
  H   H1        1.0  0.35707  0.50273  0.17224  1.0000
  H   H2        1.0  0.64293  0.99727  0.67224  1.0000
  H   H3        1.0  0.64293  0.49727  0.82776  1.0000
  H   H4        1.0  0.35707  0.00273  0.32776  1.0000
  H   H5        1.0  0.42977  0.49129  0.31626  1.0000
  H   H6        1.0  0.57023  0.00871  0.81626  1.0000
  H   H7        1.0  0.57023  0.50871  0.68374  1.0000
  H   H8        1.0  0.42977  0.99129  0.18374  1.0000
  H   H9        1.0  0.01035  0.56519  0.24897  1.0000
  H   H10       1.0  0.98965  0.93481  0.74896  1.0000
  H   H11       1.0  0.98965  0.43481  0.75104  1.0000
  H   H12       1.0  0.01035  0.06519  0.25104  1.0000
  H   H13       1.0  0.90896  0.55894  0.10809  1.0000
  H   H14       1.0  0.09104  0.94106  0.60809  1.0000
  H   H15       1.0  0.09104  0.44106  0.89191  1.0000
  H   H16       1.0  0.90896  0.05894  0.39191  1.0000
  H   H17       1.0  0.69725  0.39098  0.40456  1.0000
  H   H18       1.0  0.30275  0.10902  0.90456  1.0000
  H   H19       1.0  0.30275  0.60902  0.59544  1.0000
  H   H20       1.0  0.69725  0.89098  0.09544  1.0000
  H   H21       1.0  0.70709  0.60523  0.41530  1.0000
  H   H22       1.0  0.29291  0.89477  0.91530  1.0000
  H   H23       1.0  0.29291  0.39477  0.58470  1.0000
  H   H24       1.0  0.70709  0.10523  0.08470  1.0000
  H   H25       1.0  0.04184  0.35960  0.38010  1.0000
  H   H26       1.0  0.95816  0.14040  0.88010  1.0000
  H   H27       1.0  0.95816  0.64040  0.61990  1.0000
  H   H28       1.0  0.04184  0.85960  0.11990  1.0000
  H   H29       1.0  0.39316  0.57727  0.44145  1.0000
  H   H30       1.0  0.60685  0.92273  0.94145  1.0000
  H   H31       1.0  0.60684  0.42273  0.55855  1.0000
  H   H32       1.0  0.39316  0.07727  0.05855  1.0000
  H   H33       1.0  0.01123  0.84295  0.44502  1.0000
  H   H34       1.0  0.98877  0.65705  0.94502  1.0000
  H   H35       1.0  0.98877  0.15705  0.55498  1.0000
  H   H36       1.0  0.01122  0.34295  0.05498  1.0000
  C   C1        1.0  0.49886  0.51218  0.19227  1.0000
  C   C2        1.0  0.50114  0.98782  0.69226  1.0000
  C   C3        1.0  0.50114  0.48782  0.80773  1.0000
  C   C4        1.0  0.49886  0.01218  0.30773  1.0000
  C   C5        1.0  0.54105  0.50843  0.27211  1.0000
  C   C6        1.0  0.45894  0.99157  0.77210  1.0000
  C   C7        1.0  0.45894  0.49157  0.72789  1.0000
  C   C8        1.0  0.54106  0.00843  0.22789  1.0000
  C   C9        1.0  0.72738  0.52837  0.29493  1.0000
  C   C10       1.0  0.27262  0.97163  0.79492  1.0000
  C   C11       1.0  0.27262  0.47163  0.70507  1.0000
  C   C12       1.0  0.72739  0.02837  0.20508  1.0000
  C   C13       1.0  0.86266  0.54831  0.23505  1.0000
  C   C14       1.0  0.13735  0.95169  0.73504  1.0000
  C   C15       1.0  0.13735  0.45168  0.76495  1.0000
  C   C16       1.0  0.86266  0.04831  0.26496  1.0000
  C   C17       1.0  0.80679  0.54613  0.15608  1.0000
  C   C18       1.0  0.19321  0.95387  0.65608  1.0000
  C   C19       1.0  0.19321  0.45386  0.84392  1.0000
  C   C20       1.0  0.80679  0.04613  0.34392  1.0000
  C   C21       1.0  0.76888  0.52426  0.38206  1.0000
  C   C22       1.0  0.23111  0.97574  0.88206  1.0000
  C   C23       1.0  0.23111  0.47574  0.61794  1.0000
  C   C24       1.0  0.76889  0.02426  0.11794  1.0000
  C   C25       1.0  0.09053  0.49302  0.40032  1.0000
  C   C26       1.0  0.90947  0.00698  0.90032  1.0000
  C   C27       1.0  0.90947  0.50698  0.59968  1.0000
  C   C28       1.0  0.09053  0.99302  0.09968  1.0000
  C   C29       1.0  0.26357  0.60205  0.43028  1.0000
  C   C30       1.0  0.73643  0.89795  0.93028  1.0000
  C   C31       1.0  0.73642  0.39795  0.56972  1.0000
  C   C32       1.0  0.26358  0.10205  0.06972  1.0000
  C   C33       1.0  0.07260  0.74553  0.43347  1.0000
  C   C34       1.0  0.92740  0.75447  0.93347  1.0000
  C   C35       1.0  0.92740  0.25447  0.56653  1.0000
  C   C36       1.0  0.07260  0.24553  0.06653  1.0000
  N   N1        1.0  0.62866  0.52989  0.13473  1.0000
  N   N2        1.0  0.37134  0.97011  0.63473  1.0000
  N   N3        1.0  0.37134  0.47011  0.86527  1.0000
  N   N4        1.0  0.62866  0.02989  0.36527  1.0000
  N   N5        1.0  0.25020  0.75839  0.45068  1.0000
  N   N6        1.0  0.74980  0.74161  0.95068  1.0000
  N   N7        1.0  0.74980  0.24161  0.54932  1.0000
  N   N8        1.0  0.25019  0.25839  0.04932  1.0000
  N   N9        1.0  0.97088  0.58596  0.40278  1.0000
  N   N10       1.0  0.02912  0.91404  0.90277  1.0000
  N   N11       1.0  0.02912  0.41404  0.59723  1.0000
  N   N12       1.0  0.97088  0.08596  0.09723  1.0000
  Cl  Cl1       1.0  0.30031  0.69177  0.04090  1.0000
  Cl  Cl2       1.0  0.69969  0.80823  0.54090  1.0000
  Cl  Cl3       1.0  0.69969  0.30823  0.95910  1.0000
  Cl  Cl4       1.0  0.30031  0.19177  0.45910  1.0000
