data_image0
_chemical_formula_structural       Cd2H36C36I4N12
_chemical_formula_sum              "Cd2 H36 C36 I4 N12"
_cell_length_a       8.17288
_cell_length_b       8.88404
_cell_length_c       16.4495
_cell_angle_alpha    90
_cell_angle_beta     89.9999
_cell_angle_gamma    115.576

_space_group_name_H-M_alt    "P 1"
_space_group_IT_number       1

loop_
  _space_group_symop_operation_xyz
  'x, y, z'

loop_
  _atom_site_type_symbol
  _atom_site_label
  _atom_site_symmetry_multiplicity
  _atom_site_fract_x
  _atom_site_fract_y
  _atom_site_fract_z
  _atom_site_occupancy
  Cd  Cd1       1.0  0.50000  0.50000  0.00000  1.0000
  Cd  Cd2       1.0  0.50000  1.00000  0.50000  1.0000
  H   H1        1.0  0.96773  0.17203  0.55643  1.0000
  H   H2        1.0  0.03227  0.32797  0.05643  1.0000
  H   H3        1.0  0.03227  0.82796  0.44357  1.0000
  H   H4        1.0  0.96773  0.67204  0.94357  1.0000
  H   H5        1.0  0.60660  0.39570  0.57097  1.0000
  H   H6        1.0  0.39340  0.10430  0.07097  1.0000
  H   H7        1.0  0.39339  0.60430  0.42903  1.0000
  H   H8        1.0  0.60661  0.89570  0.92903  1.0000
  H   H9        1.0  0.99574  0.43405  0.76267  1.0000
  H   H10       1.0  0.00426  0.06596  0.26267  1.0000
  H   H11       1.0  0.00426  0.56596  0.23733  1.0000
  H   H12       1.0  0.99574  0.93404  0.73733  1.0000
  H   H13       1.0  0.94507  0.62025  0.62962  1.0000
  H   H14       1.0  0.05493  0.87975  0.12962  1.0000
  H   H15       1.0  0.05493  0.37974  0.37038  1.0000
  H   H16       1.0  0.94507  0.12025  0.87038  1.0000
  H   H17       1.0  0.26521  0.61743  0.60018  1.0000
  H   H18       1.0  0.73478  0.88257  0.10018  1.0000
  H   H19       1.0  0.73478  0.38257  0.39982  1.0000
  H   H20       1.0  0.26522  0.11743  0.89982  1.0000
  H   H21       1.0  0.26290  0.42262  0.57854  1.0000
  H   H22       1.0  0.73710  0.07738  0.07854  1.0000
  H   H23       1.0  0.73710  0.57737  0.42146  1.0000
  H   H24       1.0  0.26290  0.92262  0.92146  1.0000
  H   H25       1.0  0.11043  0.43560  0.90259  1.0000
  H   H26       1.0  0.88956  0.06440  0.40259  1.0000
  H   H27       1.0  0.88957  0.56440  0.09741  1.0000
  H   H28       1.0  0.11043  0.93560  0.59741  1.0000
  H   H29       1.0  0.38933  0.50938  0.18213  1.0000
  H   H30       1.0  0.61067  0.99062  0.68213  1.0000
  H   H31       1.0  0.61066  0.49062  0.81787  1.0000
  H   H32       1.0  0.38933  0.00938  0.31787  1.0000
  H   H33       1.0  0.52252  0.50658  0.67366  1.0000
  H   H34       1.0  0.47748  0.99342  0.17366  1.0000
  H   H35       1.0  0.47748  0.49341  0.32634  1.0000
  H   H36       1.0  0.52252  0.00659  0.82634  1.0000
  C   C1        1.0  0.91142  0.26014  0.56932  1.0000
  C   C2        1.0  0.08858  0.23985  0.06932  1.0000
  C   C3        1.0  0.08858  0.73985  0.43068  1.0000
  C   C4        1.0  0.91142  0.76015  0.93068  1.0000
  C   C5        1.0  0.73084  0.38151  0.57903  1.0000
  C   C6        1.0  0.26916  0.11849  0.07903  1.0000
  C   C7        1.0  0.26917  0.61849  0.42097  1.0000
  C   C8        1.0  0.73084  0.88151  0.92097  1.0000
  C   C9        1.0  0.13427  0.44916  0.77140  1.0000
  C   C10       1.0  0.86572  0.05085  0.27140  1.0000
  C   C11       1.0  0.86573  0.55085  0.22860  1.0000
  C   C12       1.0  0.13428  0.94915  0.72860  1.0000
  C   C13       1.0  0.25128  0.47155  0.70575  1.0000
  C   C14       1.0  0.74872  0.02845  0.20575  1.0000
  C   C15       1.0  0.74872  0.52845  0.29425  1.0000
  C   C16       1.0  0.25128  0.97155  0.79425  1.0000
  C   C17       1.0  0.89717  0.49356  0.60744  1.0000
  C   C18       1.0  0.10282  0.00643  0.10744  1.0000
  C   C19       1.0  0.10282  0.50643  0.39256  1.0000
  C   C20       1.0  0.89718  0.99357  0.89256  1.0000
  C   C21       1.0  0.20336  0.48529  0.61849  1.0000
  C   C22       1.0  0.79664  0.01471  0.11849  1.0000
  C   C23       1.0  0.79664  0.51471  0.38151  1.0000
  C   C24       1.0  0.20336  0.98529  0.88151  1.0000
  C   C25       1.0  0.19721  0.44776  0.85008  1.0000
  C   C26       1.0  0.80279  0.05225  0.35008  1.0000
  C   C27       1.0  0.80279  0.55225  0.14992  1.0000
  C   C28       1.0  0.19721  0.94776  0.64992  1.0000
  C   C29       1.0  0.47664  0.48140  0.80260  1.0000
  C   C30       1.0  0.52335  0.01861  0.30260  1.0000
  C   C31       1.0  0.52336  0.51860  0.19740  1.0000
  C   C32       1.0  0.47665  0.98140  0.69740  1.0000
  C   C33       1.0  0.42591  0.48738  0.72261  1.0000
  C   C34       1.0  0.57409  0.01263  0.22261  1.0000
  C   C35       1.0  0.57409  0.51263  0.27739  1.0000
  C   C36       1.0  0.42591  0.98738  0.77739  1.0000
  I   I1        1.0  0.70141  0.29995  0.95245  1.0000
  I   I2        1.0  0.29859  0.20006  0.45245  1.0000
  I   I3        1.0  0.29859  0.70005  0.04755  1.0000
  I   I4        1.0  0.70141  0.79994  0.54755  1.0000
  N   N1        1.0  0.74170  0.23690  0.55544  1.0000
  N   N2        1.0  0.25830  0.26309  0.05544  1.0000
  N   N3        1.0  0.25830  0.76309  0.44456  1.0000
  N   N4        1.0  0.74170  0.73691  0.94456  1.0000
  N   N5        1.0  0.01031  0.41479  0.60072  1.0000
  N   N6        1.0  0.98969  0.08521  0.10072  1.0000
  N   N7        1.0  0.98969  0.58521  0.39928  1.0000
  N   N8        1.0  0.01031  0.91479  0.89928  1.0000
  N   N9        1.0  0.36510  0.46314  0.86577  1.0000
  N   N10       1.0  0.63490  0.03687  0.36577  1.0000
  N   N11       1.0  0.63490  0.53687  0.13423  1.0000
  N   N12       1.0  0.36510  0.96313  0.63423  1.0000
