data_image0
_chemical_formula_structural       Cd2H36C36Br4N12
_chemical_formula_sum              "Cd2 H36 C36 Br4 N12"
_cell_length_a       7.74586
_cell_length_b       8.50986
_cell_length_c       16.714
_cell_angle_alpha    90.0003
_cell_angle_beta     90
_cell_angle_gamma    113.124

_space_group_name_H-M_alt    "P 1"
_space_group_IT_number       1

loop_
  _space_group_symop_operation_xyz
  'x, y, z'

loop_
  _atom_site_type_symbol
  _atom_site_label
  _atom_site_symmetry_multiplicity
  _atom_site_fract_x
  _atom_site_fract_y
  _atom_site_fract_z
  _atom_site_occupancy
  Cd  Cd1       1.0  1.00000  0.00000  1.00000  1.0000
  Cd  Cd2       1.0  0.00000  0.50000  0.50000  1.0000
  H   H1        1.0  0.51913  0.33575  0.55562  1.0000
  H   H2        1.0  0.48087  0.16424  0.05562  1.0000
  H   H3        1.0  0.48087  0.66424  0.44438  1.0000
  H   H4        1.0  0.51913  0.83576  0.94438  1.0000
  H   H5        1.0  0.55135  0.86788  0.62329  1.0000
  H   H6        1.0  0.44865  0.63212  0.12329  1.0000
  H   H7        1.0  0.44865  0.13212  0.37671  1.0000
  H   H8        1.0  0.55135  0.36788  0.87671  1.0000
  H   H9        1.0  0.89624  0.08909  0.56316  1.0000
  H   H10       1.0  0.10376  0.41091  0.06316  1.0000
  H   H11       1.0  0.10376  0.91091  0.43684  1.0000
  H   H12       1.0  0.89624  0.58909  0.93684  1.0000
  H   H13       1.0  0.21401  0.88591  0.59686  1.0000
  H   H14       1.0  0.78599  0.61409  0.09686  1.0000
  H   H15       1.0  0.78599  0.11409  0.40315  1.0000
  H   H16       1.0  0.21401  0.38591  0.90314  1.0000
  H   H17       1.0  0.21879  0.09209  0.58231  1.0000
  H   H18       1.0  0.78121  0.40791  0.08231  1.0000
  H   H19       1.0  0.78122  0.90791  0.41769  1.0000
  H   H20       1.0  0.21878  0.59209  0.91769  1.0000
  H   H21       1.0  0.40145  0.06036  0.89626  1.0000
  H   H22       1.0  0.59855  0.43964  0.39626  1.0000
  H   H23       1.0  0.59855  0.93964  0.10374  1.0000
  H   H24       1.0  0.40145  0.56036  0.60374  1.0000
  H   H25       1.0  0.50926  0.06632  0.75556  1.0000
  H   H26       1.0  0.49073  0.43368  0.25556  1.0000
  H   H27       1.0  0.49074  0.93368  0.24445  1.0000
  H   H28       1.0  0.50926  0.56632  0.74444  1.0000
  H   H29       1.0  0.86706  0.99822  0.82404  1.0000
  H   H30       1.0  0.13293  0.50178  0.32404  1.0000
  H   H31       1.0  0.13294  0.00178  0.17596  1.0000
  H   H32       1.0  0.86706  0.49822  0.67596  1.0000
  H   H33       1.0  0.94667  0.98405  0.67991  1.0000
  H   H34       1.0  0.05333  0.51596  0.17992  1.0000
  H   H35       1.0  0.05333  0.01596  0.32008  1.0000
  H   H36       1.0  0.94667  0.48405  0.82008  1.0000
  C   C1        1.0  0.57926  0.24243  0.56761  1.0000
  C   C2        1.0  0.42074  0.25757  0.06761  1.0000
  C   C3        1.0  0.42074  0.75757  0.43239  1.0000
  C   C4        1.0  0.57926  0.74243  0.93239  1.0000
  C   C5        1.0  0.59815  0.99854  0.60260  1.0000
  C   C6        1.0  0.40186  0.50146  0.10260  1.0000
  C   C7        1.0  0.40186  0.00146  0.39740  1.0000
  C   C8        1.0  0.59814  0.49854  0.89740  1.0000
  C   C9        1.0  0.76813  0.10912  0.57324  1.0000
  C   C10       1.0  0.23187  0.39088  0.07323  1.0000
  C   C11       1.0  0.23187  0.89088  0.42677  1.0000
  C   C12       1.0  0.76813  0.60912  0.92677  1.0000
  C   C13       1.0  0.23585  0.02558  0.70534  1.0000
  C   C14       1.0  0.76415  0.47443  0.20534  1.0000
  C   C15       1.0  0.76415  0.97442  0.29467  1.0000
  C   C16       1.0  0.23585  0.52558  0.79466  1.0000
  C   C17       1.0  0.28082  0.01872  0.61802  1.0000
  C   C18       1.0  0.71918  0.48128  0.11802  1.0000
  C   C19       1.0  0.71919  0.98128  0.38198  1.0000
  C   C20       1.0  0.28082  0.51872  0.88198  1.0000
  C   C21       1.0  0.30499  0.04667  0.84647  1.0000
  C   C22       1.0  0.69501  0.45333  0.34647  1.0000
  C   C23       1.0  0.69501  0.95333  0.15353  1.0000
  C   C24       1.0  0.30499  0.54667  0.65353  1.0000
  C   C25       1.0  0.36423  0.04815  0.76751  1.0000
  C   C26       1.0  0.63577  0.45185  0.26751  1.0000
  C   C27       1.0  0.63577  0.95185  0.23249  1.0000
  C   C28       1.0  0.36423  0.54815  0.73249  1.0000
  C   C29       1.0  0.00669  0.00907  0.80588  1.0000
  C   C30       1.0  0.99331  0.49093  0.30589  1.0000
  C   C31       1.0  0.99331  0.99093  0.19411  1.0000
  C   C32       1.0  0.00669  0.50907  0.69411  1.0000
  C   C33       1.0  0.05275  0.00434  0.72594  1.0000
  C   C34       1.0  0.94725  0.49566  0.22594  1.0000
  C   C35       1.0  0.94725  0.99565  0.27406  1.0000
  C   C36       1.0  0.05275  0.50434  0.77406  1.0000
  Br  Br1       1.0  0.79876  0.19532  0.95492  1.0000
  Br  Br2       1.0  0.20124  0.30468  0.45492  1.0000
  Br  Br3       1.0  0.20124  0.80469  0.04508  1.0000
  Br  Br4       1.0  0.79876  0.69531  0.54508  1.0000
  N   N1        1.0  0.75425  0.26024  0.55162  1.0000
  N   N2        1.0  0.24575  0.23976  0.05162  1.0000
  N   N3        1.0  0.24575  0.73976  0.44838  1.0000
  N   N4        1.0  0.75425  0.76024  0.94838  1.0000
  N   N5        1.0  0.47964  0.08487  0.59858  1.0000
  N   N6        1.0  0.52036  0.41513  0.09858  1.0000
  N   N7        1.0  0.52036  0.91513  0.40142  1.0000
  N   N8        1.0  0.47964  0.58487  0.90142  1.0000
  N   N9        1.0  0.12987  0.02891  0.86563  1.0000
  N   N10       1.0  0.87013  0.47109  0.36563  1.0000
  N   N11       1.0  0.87013  0.97109  0.13437  1.0000
  N   N12       1.0  0.12987  0.52891  0.63437  1.0000
