data_image0
_chemical_formula_structural       Zn4H36C36N4O12
_chemical_formula_sum              "Zn4 H36 C36 N4 O12"
_cell_length_a       8.10127
_cell_length_b       10.4526
_cell_length_c       10.7178
_cell_angle_alpha    95.8489
_cell_angle_beta     90.0064
_cell_angle_gamma    112.809

_space_group_name_H-M_alt    "P 1"
_space_group_IT_number       1

loop_
  _space_group_symop_operation_xyz
  'x, y, z'

loop_
  _atom_site_type_symbol
  _atom_site_label
  _atom_site_symmetry_multiplicity
  _atom_site_fract_x
  _atom_site_fract_y
  _atom_site_fract_z
  _atom_site_occupancy
  Zn  Zn1       1.0  0.96470  0.99996  0.49993  1.0000
  Zn  Zn2       1.0  0.34631  0.00002  0.50002  1.0000
  Zn  Zn3       1.0  0.00552  0.00005  0.99999  1.0000
  Zn  Zn4       1.0  0.39029  0.99999  0.00001  1.0000
  H   H1        1.0  0.70274  0.74296  0.48254  1.0000
  H   H2        1.0  0.95977  0.25693  0.51742  1.0000
  H   H3        1.0  0.61360  0.85955  0.50016  1.0000
  H   H4        1.0  0.75399  0.14036  0.49970  1.0000
  H   H5        1.0  0.56382  0.80318  0.69951  1.0000
  H   H6        1.0  0.76074  0.19691  0.30038  1.0000
  H   H7        1.0  0.42816  0.75351  0.97424  1.0000
  H   H8        1.0  0.67475  0.24644  0.02583  1.0000
  H   H9        1.0  0.61249  0.87691  0.03981  1.0000
  H   H10       1.0  0.73561  0.12304  0.96024  1.0000
  H   H11       1.0  0.26451  0.74619  0.15493  1.0000
  H   H12       1.0  0.51838  0.25380  0.84513  1.0000
  H   H13       1.0  0.13070  0.31999  0.93063  1.0000
  H   H14       1.0  0.81064  0.67999  0.06941  1.0000
  H   H15       1.0  0.53268  0.28879  0.39986  1.0000
  H   H16       1.0  0.24401  0.71115  0.60011  1.0000
  H   H17       1.0  0.22398  0.56243  0.02327  1.0000
  H   H18       1.0  0.66148  0.43752  0.97679  1.0000
  H   H19       1.0  0.49716  0.25827  0.18424  1.0000
  H   H20       1.0  0.23878  0.74185  0.81580  1.0000
  H   H21       1.0  0.60422  0.50692  0.27071  1.0000
  H   H22       1.0  0.09729  0.49317  0.72945  1.0000
  H   H23       1.0  0.20609  0.28427  0.71587  1.0000
  H   H24       1.0  0.92185  0.71567  0.28409  1.0000
  H   H25       1.0  0.41823  0.52341  0.79670  1.0000
  H   H26       1.0  0.89474  0.47652  0.20323  1.0000
  H   H27       1.0  0.75040  0.52457  0.48313  1.0000
  H   H28       1.0  0.22574  0.47535  0.51687  1.0000
  H   H29       1.0  0.86687  0.69794  0.66285  1.0000
  H   H30       1.0  0.16904  0.30210  0.33726  1.0000
  H   H31       1.0  0.74343  0.68864  0.79928  1.0000
  H   H32       1.0  0.05507  0.31135  0.20072  1.0000
  H   H33       1.0  0.63267  0.75221  0.22839  1.0000
  H   H34       1.0  0.88056  0.24788  0.77167  1.0000
  H   H35       1.0  0.43966  0.69288  0.31716  1.0000
  H   H36       1.0  0.74680  0.30715  0.68293  1.0000
  C   C1        1.0  0.31013  0.27217  0.04854  1.0000
  C   C2        1.0  0.03785  0.72789  0.95148  1.0000
  C   C3        1.0  0.35269  0.27200  0.55031  1.0000
  C   C4        1.0  0.08079  0.72797  0.44962  1.0000
  C   C5        1.0  0.83450  0.94069  0.74954  1.0000
  C   C6        1.0  0.89379  0.05934  0.25035  1.0000
  C   C7        1.0  0.44213  0.93206  0.25223  1.0000
  C   C8        1.0  0.50997  0.06798  0.74783  1.0000
  C   C9        1.0  0.69766  0.81413  0.66838  1.0000
  C   C10       1.0  0.88358  0.18588  0.33153  1.0000
  C   C11       1.0  0.41203  0.79847  0.16483  1.0000
  C   C12       1.0  0.61358  0.20150  0.83522  1.0000
  C   C13       1.0  0.23604  0.36140  0.00473  1.0000
  C   C14       1.0  0.87452  0.63862  0.99527  1.0000
  C   C15       1.0  0.50756  0.34246  0.48593  1.0000
  C   C16       1.0  0.16519  0.65751  0.51403  1.0000
  C   C17       1.0  0.29207  0.50012  0.05732  1.0000
  C   C18       1.0  0.79186  0.49987  0.94272  1.0000
  C   C19       1.0  0.44481  0.32782  0.14508  1.0000
  C   C20       1.0  0.11691  0.67228  0.85495  1.0000
  C   C21       1.0  0.50157  0.46701  0.19472  1.0000
  C   C22       1.0  0.03453  0.53307  0.80539  1.0000
  C   C23       1.0  0.32171  0.34036  0.66260  1.0000
  C   C24       1.0  0.98141  0.65957  0.33733  1.0000
  C   C25       1.0  0.44245  0.47463  0.70734  1.0000
  C   C26       1.0  0.96783  0.52530  0.29258  1.0000
  C   C27       1.0  0.62756  0.47548  0.53237  1.0000
  C   C28       1.0  0.15209  0.52448  0.46759  1.0000
  C   C29       1.0  0.59727  0.54501  0.64346  1.0000
  C   C30       1.0  0.05227  0.45494  0.35648  1.0000
  C   C31       1.0  0.73385  0.68509  0.69688  1.0000
  C   C32       1.0  0.04888  0.31491  0.30311  1.0000
  C   C33       1.0  0.42635  0.55601  0.15302  1.0000
  C   C34       1.0  0.87034  0.44401  0.84707  1.0000
  C   C35       1.0  0.48501  0.70165  0.22042  1.0000
  C   C36       1.0  0.78339  0.29837  0.77966  1.0000
  N   N1        1.0  0.71397  0.83416  0.53389  1.0000
  N   N2        1.0  0.87978  0.16578  0.46601  1.0000
  N   N3        1.0  0.47537  0.83856  0.04003  1.0000
  N   N4        1.0  0.63686  0.16141  0.96002  1.0000
  O   O1        1.0  0.25266  0.13678  0.00021  1.0000
  O   O2        1.0  0.11581  0.86328  0.99986  1.0000
  O   O3        1.0  0.96105  0.03217  0.70111  1.0000
  O   O4        1.0  0.92890  0.96787  0.29876  1.0000
  O   O5        1.0  0.24297  0.14039  0.50555  1.0000
  O   O6        1.0  0.10263  0.85954  0.49438  1.0000
  O   O7        1.0  0.43303  0.03512  0.20630  1.0000
  O   O8        1.0  0.39761  0.96499  0.79372  1.0000
  O   O9        1.0  0.47052  0.92920  0.37003  1.0000
  O   O10       1.0  0.54127  0.07085  0.63004  1.0000
  O   O11       1.0  0.81016  0.94165  0.86880  1.0000
  O   O12       1.0  0.86845  0.05838  0.13110  1.0000
