data_image0
_chemical_formula_structural       Cd2H36C52N4O16
_chemical_formula_sum              "Cd2 H36 C52 N4 O16"
_cell_length_a       8.29387
_cell_length_b       8.29509
_cell_length_c       17.8667
_cell_angle_alpha    103.419
_cell_angle_beta     103.421
_cell_angle_gamma    89.9999

_space_group_name_H-M_alt    "P 1"
_space_group_IT_number       1

loop_
  _space_group_symop_operation_xyz
  'x, y, z'

loop_
  _atom_site_type_symbol
  _atom_site_label
  _atom_site_symmetry_multiplicity
  _atom_site_fract_x
  _atom_site_fract_y
  _atom_site_fract_z
  _atom_site_occupancy
  Cd  Cd1       1.0  0.50007  0.49993  1.00000  1.0000
  Cd  Cd2       1.0  0.74994  0.25006  0.50000  1.0000
  H   H1        1.0  0.84809  0.52002  0.95577  1.0000
  H   H2        1.0  0.68571  0.59770  0.45594  1.0000
  H   H3        1.0  0.10881  0.43566  0.95607  1.0000
  H   H4        1.0  0.77010  0.85832  0.45608  1.0000
  H   H5        1.0  0.40228  0.31433  0.54405  1.0000
  H   H6        1.0  0.56430  0.89116  0.04393  1.0000
  H   H7        1.0  0.14171  0.22984  0.54392  1.0000
  H   H8        1.0  0.48003  0.15193  0.04423  1.0000
  H   H9        1.0  0.07287  0.72524  0.95708  1.0000
  H   H10       1.0  0.48184  0.82261  0.45712  1.0000
  H   H11       1.0  0.88485  0.23190  0.95708  1.0000
  H   H12       1.0  0.97510  0.63463  0.45727  1.0000
  H   H13       1.0  0.17736  0.51820  0.54288  1.0000
  H   H14       1.0  0.76807  0.11510  0.04291  1.0000
  H   H15       1.0  0.36542  0.02486  0.54273  1.0000
  H   H16       1.0  0.27480  0.92716  0.04292  1.0000
  H   H17       1.0  0.98071  0.41098  0.11356  1.0000
  H   H18       1.0  0.95232  0.73080  0.61361  1.0000
  H   H19       1.0  0.13270  0.70280  0.11357  1.0000
  H   H20       1.0  0.66056  0.88237  0.61359  1.0000
  H   H21       1.0  0.26918  0.04768  0.38639  1.0000
  H   H22       1.0  0.29720  0.86728  0.88643  1.0000
  H   H23       1.0  0.11767  0.33944  0.38642  1.0000
  H   H24       1.0  0.58901  0.01929  0.88644  1.0000
  H   H25       1.0  0.27653  0.39502  0.18064  1.0000
  H   H26       1.0  0.03570  0.02647  0.68074  1.0000
  H   H27       1.0  0.90422  0.78586  0.18075  1.0000
  H   H28       1.0  0.64472  0.65404  0.68083  1.0000
  H   H29       1.0  0.97347  0.96429  0.31925  1.0000
  H   H30       1.0  0.21413  0.09573  0.81925  1.0000
  H   H31       1.0  0.34603  0.35528  0.31917  1.0000
  H   H32       1.0  0.60497  0.72352  0.81936  1.0000
  H   H33       1.0  0.60992  0.37510  0.25005  1.0000
  H   H34       1.0  0.12516  0.35968  0.74986  1.0000
  H   H35       1.0  0.64036  0.87484  0.25015  1.0000
  H   H36       1.0  0.62489  0.39005  0.74994  1.0000
  C   C1        1.0  0.83807  0.65312  0.97591  1.0000
  C   C2        1.0  0.57264  0.58782  0.47602  1.0000
  C   C3        1.0  0.13870  0.32256  0.97612  1.0000
  C   C4        1.0  0.90324  0.88837  0.47613  1.0000
  C   C5        1.0  0.41217  0.42738  0.52397  1.0000
  C   C6        1.0  0.67742  0.86129  0.02388  1.0000
  C   C7        1.0  0.11164  0.09672  0.52388  1.0000
  C   C8        1.0  0.34691  0.16194  0.02409  1.0000
  C   C9        1.0  0.96084  0.76718  0.97602  1.0000
  C   C10       1.0  0.45873  0.71063  0.47605  1.0000
  C   C11       1.0  0.01576  0.20870  0.97608  1.0000
  C   C12       1.0  0.01718  0.76557  0.47618  1.0000
  C   C13       1.0  0.28936  0.54130  0.52395  1.0000
  C   C14       1.0  0.79127  0.98421  0.02391  1.0000
  C   C15       1.0  0.23446  0.98279  0.52383  1.0000
  C   C16       1.0  0.23285  0.03918  0.02398  1.0000
  C   C17       1.0  0.93733  0.93707  0.99998  1.0000
  C   C18       1.0  0.31272  0.68729  0.50000  1.0000
  C   C19       1.0  0.06293  0.06267  0.00001  1.0000
  C   C20       1.0  0.18714  0.81286  0.50000  1.0000
  C   C21       1.0  0.71238  0.39348  0.15802  1.0000
  C   C22       1.0  0.01418  0.46240  0.65804  1.0000
  C   C23       1.0  0.44576  0.76444  0.15806  1.0000
  C   C24       1.0  0.64304  0.19536  0.65789  1.0000
  C   C25       1.0  0.53762  0.98583  0.34196  1.0000
  C   C26       1.0  0.23556  0.55427  0.84195  1.0000
  C   C27       1.0  0.80464  0.35695  0.34210  1.0000
  C   C28       1.0  0.60651  0.28760  0.84198  1.0000
  C   C29       1.0  0.88224  0.38428  0.21033  1.0000
  C   C30       1.0  0.07606  0.63215  0.71031  1.0000
  C   C31       1.0  0.32812  0.82635  0.21025  1.0000
  C   C32       1.0  0.63359  0.07786  0.71018  1.0000
  C   C33       1.0  0.36785  0.92394  0.28969  1.0000
  C   C34       1.0  0.17364  0.67188  0.78975  1.0000
  C   C35       1.0  0.92215  0.36640  0.28982  1.0000
  C   C36       1.0  0.61570  0.11776  0.78967  1.0000
  C   C37       1.0  0.01346  0.39457  0.17374  1.0000
  C   C38       1.0  0.02906  0.76342  0.67376  1.0000
  C   C39       1.0  0.16027  0.77951  0.17372  1.0000
  C   C40       1.0  0.64399  0.91002  0.67373  1.0000
  C   C41       1.0  0.23656  0.97094  0.32623  1.0000
  C   C42       1.0  0.22048  0.83972  0.82629  1.0000
  C   C43       1.0  0.09003  0.35601  0.32627  1.0000
  C   C44       1.0  0.60541  0.98655  0.82626  1.0000
  C   C45       1.0  0.17890  0.38550  0.21131  1.0000
  C   C46       1.0  0.07589  0.92877  0.71138  1.0000
  C   C47       1.0  0.03252  0.82619  0.21136  1.0000
  C   C48       1.0  0.63502  0.78235  0.71141  1.0000
  C   C49       1.0  0.07118  0.92409  0.28861  1.0000
  C   C50       1.0  0.17380  0.96744  0.78864  1.0000
  C   C51       1.0  0.21770  0.36497  0.28860  1.0000
  C   C52       1.0  0.61447  0.82115  0.78869  1.0000
  N   N1        1.0  0.69935  0.69874  0.99986  1.0000
  N   N2        1.0  0.55080  0.44921  0.50000  1.0000
  N   N3        1.0  0.30127  0.30064  0.00014  1.0000
  N   N4        1.0  0.94901  0.05098  0.50000  1.0000
  O   O1        1.0  0.70579  0.39851  0.08735  1.0000
  O   O2        1.0  0.93808  0.45597  0.58744  1.0000
  O   O3        1.0  0.38164  0.68883  0.08736  1.0000
  O   O4        1.0  0.64805  0.13116  0.58723  1.0000
  O   O5        1.0  0.54405  0.06193  0.41256  1.0000
  O   O6        1.0  0.31115  0.61838  0.91264  1.0000
  O   O7        1.0  0.86884  0.35195  0.41277  1.0000
  O   O8        1.0  0.60148  0.29420  0.91265  1.0000
  O   O9        1.0  0.57952  0.39284  0.18389  1.0000
  O   O10       1.0  0.04083  0.32948  0.68383  1.0000
  O   O11       1.0  0.60450  0.79055  0.18407  1.0000
  O   O12       1.0  0.64262  0.35410  0.68380  1.0000
  O   O13       1.0  0.67057  0.95917  0.31618  1.0000
  O   O14       1.0  0.20945  0.39555  0.81595  1.0000
  O   O15       1.0  0.64587  0.35736  0.31619  1.0000
  O   O16       1.0  0.60717  0.42045  0.81611  1.0000
