data_image0
_chemical_formula_structural       Ag4H40C52S4N4O8
_chemical_formula_sum              "Ag4 H40 C52 S4 N4 O8"
_cell_length_a       9.00744
_cell_length_b       9.13513
_cell_length_c       15.7139
_cell_angle_alpha    97.9786
_cell_angle_beta     98.4236
_cell_angle_gamma    107.217

_space_group_name_H-M_alt    "P 1"
_space_group_IT_number       1

loop_
  _space_group_symop_operation_xyz
  'x, y, z'

loop_
  _atom_site_type_symbol
  _atom_site_label
  _atom_site_symmetry_multiplicity
  _atom_site_fract_x
  _atom_site_fract_y
  _atom_site_fract_z
  _atom_site_occupancy
  Ag  Ag1       1.0  0.38899  0.73404  0.75235  1.0000
  Ag  Ag2       1.0  0.61101  0.26597  0.24764  1.0000
  Ag  Ag3       1.0  0.20726  0.14925  0.73483  1.0000
  Ag  Ag4       1.0  0.79274  0.85076  0.26518  1.0000
  H   H1        1.0  0.50094  0.88785  0.03663  1.0000
  H   H2        1.0  0.49906  0.11216  0.96337  1.0000
  H   H3        1.0  0.51241  0.96462  0.19647  1.0000
  H   H4        1.0  0.48759  0.03539  0.80352  1.0000
  H   H5        1.0  0.00863  0.62379  0.00065  1.0000
  H   H6        1.0  0.99137  0.37621  0.99935  1.0000
  H   H7        1.0  0.02002  0.69073  0.16117  1.0000
  H   H8        1.0  0.97997  0.30927  0.83883  1.0000
  H   H9        1.0  0.39826  0.93673  0.32121  1.0000
  H   H10       1.0  0.60174  0.06327  0.67879  1.0000
  H   H11       1.0  0.22227  0.77535  0.31347  1.0000
  H   H12       1.0  0.77773  0.22466  0.68653  1.0000
  H   H13       1.0  0.06977  0.22524  0.41879  1.0000
  H   H14       1.0  0.93022  0.77476  0.58122  1.0000
  H   H15       1.0  0.09420  0.27702  0.57910  1.0000
  H   H16       1.0  0.90580  0.72297  0.42090  1.0000
  H   H17       1.0  0.32283  0.89223  0.45125  1.0000
  H   H18       1.0  0.67716  0.10776  0.54874  1.0000
  H   H19       1.0  0.32971  0.95049  0.60811  1.0000
  H   H20       1.0  0.67029  0.04951  0.39189  1.0000
  H   H21       1.0  0.43574  0.32316  0.50624  1.0000
  H   H22       1.0  0.56426  0.67683  0.49377  1.0000
  H   H23       1.0  0.43242  0.39855  0.66436  1.0000
  H   H24       1.0  0.56759  0.60144  0.33564  1.0000
  H   H25       1.0  0.94609  0.49339  0.56570  1.0000
  H   H26       1.0  0.05391  0.50661  0.43430  1.0000
  H   H27       1.0  0.94358  0.55874  0.72368  1.0000
  H   H28       1.0  0.05642  0.44127  0.27632  1.0000
  H   H29       1.0  0.77533  0.48895  0.84027  1.0000
  H   H30       1.0  0.22469  0.51106  0.15973  1.0000
  H   H31       1.0  0.56636  0.45809  0.81225  1.0000
  H   H32       1.0  0.43365  0.54191  0.18775  1.0000
  H   H33       1.0  0.64351  0.50568  0.95796  1.0000
  H   H34       1.0  0.35650  0.49432  0.04204  1.0000
  H   H35       1.0  0.67513  0.56589  0.11768  1.0000
  H   H36       1.0  0.32487  0.43411  0.88232  1.0000
  H   H37       1.0  0.84451  0.00306  0.96544  1.0000
  H   H38       1.0  0.15549  0.99694  0.03456  1.0000
  H   H39       1.0  0.87085  0.04357  0.12637  1.0000
  H   H40       1.0  0.12914  0.95643  0.87363  1.0000
  C   C1        1.0  0.24422  0.70757  0.91116  1.0000
  C   C2        1.0  0.75578  0.29243  0.08884  1.0000
  C   C3        1.0  0.25393  0.75046  0.00876  1.0000
  C   C4        1.0  0.74607  0.24955  0.99123  1.0000
  C   C5        1.0  0.39612  0.84566  0.06446  1.0000
  C   C6        1.0  0.60388  0.15434  0.93554  1.0000
  C   C7        1.0  0.40147  0.88827  0.15376  1.0000
  C   C8        1.0  0.59853  0.11173  0.84624  1.0000
  C   C9        1.0  0.11836  0.69774  0.04444  1.0000
  C   C10       1.0  0.88164  0.30226  0.95556  1.0000
  C   C11       1.0  0.12469  0.73823  0.13400  1.0000
  C   C12       1.0  0.87531  0.26176  0.86600  1.0000
  C   C13       1.0  0.26647  0.83526  0.18969  1.0000
  C   C14       1.0  0.73352  0.16474  0.81031  1.0000
  C   C15       1.0  0.27511  0.87880  0.28642  1.0000
  C   C16       1.0  0.72489  0.12120  0.71358  1.0000
  C   C17       1.0  0.19106  0.05097  0.41959  1.0000
  C   C18       1.0  0.80894  0.94903  0.58041  1.0000
  C   C19       1.0  0.12696  0.16068  0.45830  1.0000
  C   C20       1.0  0.87303  0.83932  0.54171  1.0000
  C   C21       1.0  0.13872  0.18894  0.54813  1.0000
  C   C22       1.0  0.86128  0.81107  0.45188  1.0000
  C   C23       1.0  0.26854  0.97713  0.47541  1.0000
  C   C24       1.0  0.73146  0.02287  0.52460  1.0000
  C   C25       1.0  0.27395  0.01084  0.56471  1.0000
  C   C26       1.0  0.72605  0.98916  0.43529  1.0000
  C   C27       1.0  0.69188  0.37109  0.42916  1.0000
  C   C28       1.0  0.30812  0.62892  0.57084  1.0000
  C   C29       1.0  0.69009  0.40391  0.52527  1.0000
  C   C30       1.0  0.30991  0.59608  0.47473  1.0000
  C   C31       1.0  0.54613  0.37498  0.55414  1.0000
  C   C32       1.0  0.45387  0.62501  0.44586  1.0000
  C   C33       1.0  0.54512  0.41710  0.64272  1.0000
  C   C34       1.0  0.45488  0.58289  0.35728  1.0000
  C   C35       1.0  0.83281  0.47171  0.58689  1.0000
  C   C36       1.0  0.16719  0.52829  0.41311  1.0000
  C   C37       1.0  0.83185  0.50949  0.67588  1.0000
  C   C38       1.0  0.16815  0.49051  0.32412  1.0000
  C   C39       1.0  0.68710  0.48304  0.70441  1.0000
  C   C40       1.0  0.31290  0.51697  0.29559  1.0000
  C   C41       1.0  0.68344  0.52026  0.80003  1.0000
  C   C42       1.0  0.31657  0.47974  0.19997  1.0000
  C   C43       1.0  0.74011  0.75039  0.94633  1.0000
  C   C44       1.0  0.25989  0.24961  0.05368  1.0000
  C   C45       1.0  0.69283  0.62707  0.99146  1.0000
  C   C46       1.0  0.30718  0.37293  0.00854  1.0000
  C   C47       1.0  0.71006  0.66034  0.08174  1.0000
  C   C48       1.0  0.28993  0.33966  0.91826  1.0000
  C   C49       1.0  0.80461  0.90299  0.99656  1.0000
  C   C50       1.0  0.19539  0.09701  0.00345  1.0000
  C   C51       1.0  0.81915  0.92633  0.08652  1.0000
  C   C52       1.0  0.18084  0.07367  0.91348  1.0000
  S   S1        1.0  0.16679  0.01568  0.30644  1.0000
  S   S2        1.0  0.83321  0.98432  0.69356  1.0000
  S   S3        1.0  0.72634  0.72965  0.83408  1.0000
  S   S4        1.0  0.27366  0.27035  0.16592  1.0000
  N   N1        1.0  0.20964  0.11393  0.60131  1.0000
  N   N2        1.0  0.79037  0.88606  0.39869  1.0000
  N   N3        1.0  0.77183  0.80707  0.12954  1.0000
  N   N4        1.0  0.22816  0.19293  0.87046  1.0000
  O   O1        1.0  0.37863  0.75955  0.88694  1.0000
  O   O2        1.0  0.62137  0.24046  0.11307  1.0000
  O   O3        1.0  0.11407  0.62895  0.86219  1.0000
  O   O4        1.0  0.88594  0.37104  0.13780  1.0000
  O   O5        1.0  0.80322  0.45562  0.40025  1.0000
  O   O6        1.0  0.19678  0.54438  0.59975  1.0000
  O   O7        1.0  0.57474  0.25676  0.38032  1.0000
  O   O8        1.0  0.42526  0.74325  0.61968  1.0000
