data_image0
_chemical_formula_structural       Zn4H24C20N8O24
_chemical_formula_sum              "Zn4 H24 C20 N8 O24"
_cell_length_a       6.11938
_cell_length_b       6.26053
_cell_length_c       19.6754
_cell_angle_alpha    92.5136
_cell_angle_beta     89.9995
_cell_angle_gamma    90.0002

_space_group_name_H-M_alt    "P 1"
_space_group_IT_number       1

loop_
  _space_group_symop_operation_xyz
  'x, y, z'

loop_
  _atom_site_type_symbol
  _atom_site_label
  _atom_site_symmetry_multiplicity
  _atom_site_fract_x
  _atom_site_fract_y
  _atom_site_fract_z
  _atom_site_occupancy
  Zn  Zn1       1.0  0.15787  0.08223  0.80039  1.0000
  Zn  Zn2       1.0  0.65786  0.91776  0.69961  1.0000
  Zn  Zn3       1.0  0.84213  0.91777  0.19961  1.0000
  Zn  Zn4       1.0  0.34214  0.08224  0.30039  1.0000
  H   H1        1.0  0.71032  0.20340  0.99825  1.0000
  H   H2        1.0  0.21031  0.79660  0.50175  1.0000
  H   H3        1.0  0.28969  0.79661  0.00175  1.0000
  H   H4        1.0  0.78968  0.20340  0.49825  1.0000
  H   H5        1.0  0.05557  0.34058  0.94765  1.0000
  H   H6        1.0  0.55556  0.65943  0.55235  1.0000
  H   H7        1.0  0.94444  0.65943  0.05235  1.0000
  H   H8        1.0  0.44443  0.34058  0.44765  1.0000
  H   H9        1.0  0.14757  0.37848  0.70312  1.0000
  H   H10       1.0  0.64757  0.62152  0.79688  1.0000
  H   H11       1.0  0.85242  0.62152  0.29688  1.0000
  H   H12       1.0  0.35243  0.37849  0.20312  1.0000
  H   H13       1.0  0.17466  0.51573  0.77563  1.0000
  H   H14       1.0  0.67466  0.48427  0.72437  1.0000
  H   H15       1.0  0.82534  0.48427  0.22437  1.0000
  H   H16       1.0  0.32534  0.51573  0.27563  1.0000
  H   H17       1.0  0.32918  0.72696  0.85671  1.0000
  H   H18       1.0  0.82918  0.27304  0.64329  1.0000
  H   H19       1.0  0.67082  0.27305  0.14329  1.0000
  H   H20       1.0  0.17082  0.72696  0.35671  1.0000
  H   H21       1.0  0.07116  0.70323  0.86451  1.0000
  H   H22       1.0  0.57116  0.29677  0.63549  1.0000
  H   H23       1.0  0.92884  0.29677  0.13549  1.0000
  H   H24       1.0  0.42884  0.70323  0.36451  1.0000
  C   C1        1.0  0.51344  0.17435  0.90215  1.0000
  C   C2        1.0  0.01344  0.82564  0.59785  1.0000
  C   C3        1.0  0.48657  0.82565  0.09785  1.0000
  C   C4        1.0  0.98656  0.17435  0.40215  1.0000
  C   C5        1.0  0.55659  0.21800  0.97152  1.0000
  C   C6        1.0  0.05659  0.78200  0.52848  1.0000
  C   C7        1.0  0.44342  0.78200  0.02848  1.0000
  C   C8        1.0  0.94341  0.21800  0.47152  1.0000
  C   C9        1.0  0.35625  0.28166  0.99957  1.0000
  C   C10       1.0  0.85624  0.71834  0.50043  1.0000
  C   C11       1.0  0.64376  0.71834  0.00043  1.0000
  C   C12       1.0  0.14375  0.28166  0.49957  1.0000
  C   C13       1.0  0.65336  0.10344  0.84389  1.0000
  C   C14       1.0  0.15337  0.89654  0.65610  1.0000
  C   C15       1.0  0.34664  0.89655  0.15611  1.0000
  C   C16       1.0  0.84663  0.10346  0.34389  1.0000
  C   C17       1.0  0.28148  0.34208  0.06974  1.0000
  C   C18       1.0  0.78148  0.65792  0.43026  1.0000
  C   C19       1.0  0.71852  0.65792  0.93026  1.0000
  C   C20       1.0  0.21852  0.34208  0.56974  1.0000
  N   N1        1.0  0.30034  0.20889  0.88908  1.0000
  N   N2        1.0  0.80034  0.79111  0.61092  1.0000
  N   N3        1.0  0.69966  0.79111  0.11092  1.0000
  N   N4        1.0  0.19966  0.20889  0.38908  1.0000
  N   N5        1.0  0.20862  0.27239  0.94781  1.0000
  N   N6        1.0  0.70861  0.72762  0.55219  1.0000
  N   N7        1.0  0.79139  0.72762  0.05219  1.0000
  N   N8        1.0  0.29138  0.27238  0.44780  1.0000
  O   O1        1.0  0.54786  0.05235  0.78903  1.0000
  O   O2        1.0  0.04788  0.94765  0.71097  1.0000
  O   O3        1.0  0.45214  0.94766  0.21097  1.0000
  O   O4        1.0  0.95213  0.05235  0.28903  1.0000
  O   O5        1.0  0.85706  0.10186  0.85257  1.0000
  O   O6        1.0  0.35707  0.89809  0.64742  1.0000
  O   O7        1.0  0.14294  0.89810  0.14743  1.0000
  O   O8        1.0  0.64293  0.10191  0.35257  1.0000
  O   O9        1.0  0.16223  0.37121  0.75331  1.0000
  O   O10       1.0  0.66224  0.62878  0.74669  1.0000
  O   O11       1.0  0.83775  0.62879  0.24669  1.0000
  O   O12       1.0  0.33775  0.37122  0.25331  1.0000
  O   O13       1.0  0.41701  0.33300  0.11823  1.0000
  O   O14       1.0  0.91702  0.66700  0.38177  1.0000
  O   O15       1.0  0.58299  0.66701  0.88177  1.0000
  O   O16       1.0  0.08298  0.33300  0.61823  1.0000
  O   O17       1.0  0.18837  0.75076  0.83257  1.0000
  O   O18       1.0  0.68837  0.24924  0.66743  1.0000
  O   O19       1.0  0.81163  0.24924  0.16743  1.0000
  O   O20       1.0  0.31163  0.75077  0.33257  1.0000
  O   O21       1.0  0.08144  0.39535  0.07535  1.0000
  O   O22       1.0  0.58144  0.60464  0.42465  1.0000
  O   O23       1.0  0.91856  0.60465  0.92464  1.0000
  O   O24       1.0  0.41856  0.39535  0.57535  1.0000
