data_image0
_chemical_formula_structural       Zn2Cr2H80C40N8O8
_chemical_formula_sum              "Zn2 Cr2 H80 C40 N8 O8"
_cell_length_a       9.87233
_cell_length_b       10.9901
_cell_length_c       13.42
_cell_angle_alpha    115.107
_cell_angle_beta     100.439
_cell_angle_gamma    91.4025

_space_group_name_H-M_alt    "P 1"
_space_group_IT_number       1

loop_
  _space_group_symop_operation_xyz
  'x, y, z'

loop_
  _atom_site_type_symbol
  _atom_site_label
  _atom_site_symmetry_multiplicity
  _atom_site_fract_x
  _atom_site_fract_y
  _atom_site_fract_z
  _atom_site_occupancy
  Zn  Zn1       1.0  1.00000  0.00008  0.00009  1.0000
  Zn  Zn2       1.0  0.00000  0.50002  0.50001  1.0000
  Cr  Cr1       1.0  0.07165  0.18782  0.30117  1.0000
  Cr  Cr2       1.0  0.92836  0.81219  0.69884  1.0000
  H   H1        1.0  0.22274  0.93366  0.93948  1.0000
  H   H2        1.0  0.77713  0.06633  0.06051  1.0000
  H   H3        1.0  0.02167  0.93160  0.16053  1.0000
  H   H4        1.0  0.97833  0.06837  0.83951  1.0000
  H   H5        1.0  0.26071  0.02186  0.18364  1.0000
  H   H6        1.0  0.73931  0.97814  0.81638  1.0000
  H   H7        1.0  0.48287  0.98738  0.11647  1.0000
  H   H8        1.0  0.51712  0.01261  0.88351  1.0000
  H   H9        1.0  0.41177  0.82278  0.01302  1.0000
  H   H10       1.0  0.58821  0.17722  0.98696  1.0000
  H   H11       1.0  0.45319  0.92263  0.26911  1.0000
  H   H12       1.0  0.54683  0.07736  0.73087  1.0000
  H   H13       1.0  0.55767  0.81497  0.18342  1.0000
  H   H14       1.0  0.44233  0.18501  0.81654  1.0000
  H   H15       1.0  0.35528  0.63898  0.07681  1.0000
  H   H16       1.0  0.64471  0.36101  0.92317  1.0000
  H   H17       1.0  0.37757  0.68312  0.22184  1.0000
  H   H18       1.0  0.62245  0.31687  0.77814  1.0000
  H   H19       1.0  0.12884  0.67075  0.13411  1.0000
  H   H20       1.0  0.87117  0.32925  0.86590  1.0000
  H   H21       1.0  0.19240  0.83530  0.24019  1.0000
  H   H22       1.0  0.80763  0.16469  0.75982  1.0000
  H   H23       1.0  0.15589  0.74523  0.98664  1.0000
  H   H24       1.0  0.84408  0.25478  0.01336  1.0000
  H   H25       1.0  0.91182  0.72365  0.11248  1.0000
  H   H26       1.0  0.08815  0.27633  0.88751  1.0000
  H   H27       1.0  0.68284  0.74014  0.03376  1.0000
  H   H28       1.0  0.31715  0.25985  0.96622  1.0000
  H   H29       1.0  0.76639  0.90294  0.12678  1.0000
  H   H30       1.0  0.23358  0.09704  0.87321  1.0000
  H   H31       1.0  0.26554  0.20501  0.13023  1.0000
  H   H32       1.0  0.73453  0.79500  0.86977  1.0000
  H   H33       1.0  0.39971  0.13323  0.06007  1.0000
  H   H34       1.0  0.60029  0.86672  0.93987  1.0000
  H   H35       1.0  0.99133  0.57918  0.94359  1.0000
  H   H36       1.0  0.00867  0.42082  0.05642  1.0000
  H   H37       1.0  0.90904  0.66631  0.86793  1.0000
  H   H38       1.0  0.09099  0.33370  0.13208  1.0000
  H   H39       1.0  0.80803  0.56593  0.91021  1.0000
  H   H40       1.0  0.19198  0.43408  0.08978  1.0000
  H   H41       1.0  0.75961  0.57960  0.52964  1.0000
  H   H42       1.0  0.24039  0.42041  0.47036  1.0000
  H   H43       1.0  0.97626  0.43040  0.29457  1.0000
  H   H44       1.0  0.02375  0.56960  0.70545  1.0000
  H   H45       1.0  0.74285  0.35339  0.30496  1.0000
  H   H46       1.0  0.25715  0.64662  0.69504  1.0000
  H   H47       1.0  0.56339  0.58622  0.38576  1.0000
  H   H48       1.0  0.43661  0.41380  0.61424  1.0000
  H   H49       1.0  0.51192  0.41553  0.35257  1.0000
  H   H50       1.0  0.48808  0.58449  0.64745  1.0000
  H   H51       1.0  0.41609  0.46609  0.19118  1.0000
  H   H52       1.0  0.58390  0.53391  0.80883  1.0000
  H   H53       1.0  0.53336  0.34385  0.15403  1.0000
  H   H54       1.0  0.46664  0.65615  0.84599  1.0000
  H   H55       1.0  0.58021  0.51850  0.08701  1.0000
  H   H56       1.0  0.41978  0.48148  0.91299  1.0000
  H   H57       1.0  0.60133  0.64693  0.22560  1.0000
  H   H58       1.0  0.39866  0.35306  0.77439  1.0000
  H   H59       1.0  0.83094  0.58853  0.18128  1.0000
  H   H60       1.0  0.16905  0.41146  0.81872  1.0000
  H   H61       1.0  0.78443  0.41718  0.14824  1.0000
  H   H62       1.0  0.21556  0.58280  0.85177  1.0000
  H   H63       1.0  0.81105  0.65596  0.38041  1.0000
  H   H64       1.0  0.18895  0.34405  0.61958  1.0000
  H   H65       1.0  0.05659  0.59825  0.24849  1.0000
  H   H66       1.0  0.94341  0.40175  0.75150  1.0000
  H   H67       1.0  0.22352  0.47654  0.31935  1.0000
  H   H68       1.0  0.77648  0.52346  0.68064  1.0000
  H   H69       1.0  0.28816  0.64089  0.34647  1.0000
  H   H70       1.0  0.71183  0.35911  0.65352  1.0000
  H   H71       1.0  0.61191  0.37470  0.49043  1.0000
  H   H72       1.0  0.38809  0.62530  0.50956  1.0000
  H   H73       1.0  0.75452  0.28418  0.44911  1.0000
  H   H74       1.0  0.24548  0.71582  0.55089  1.0000
  H   H75       1.0  0.96111  0.79802  0.36491  1.0000
  H   H76       1.0  0.03889  0.20198  0.63509  1.0000
  H   H77       1.0  0.14247  0.83147  0.40380  1.0000
  H   H78       1.0  0.85753  0.16854  0.59620  1.0000
  H   H79       1.0  0.04892  0.79361  0.49137  1.0000
  H   H80       1.0  0.95108  0.20639  0.50863  1.0000
  C   C1        1.0  0.26242  0.94242  0.09912  1.0000
  C   C2        1.0  0.73757  0.05758  0.90089  1.0000
  C   C3        1.0  0.40901  0.90031  0.09842  1.0000
  C   C4        1.0  0.59098  0.09968  0.90156  1.0000
  C   C5        1.0  0.45166  0.84321  0.18390  1.0000
  C   C6        1.0  0.54835  0.15678  0.81608  1.0000
  C   C7        1.0  0.34934  0.72211  0.15871  1.0000
  C   C8        1.0  0.65067  0.27789  0.84128  1.0000
  C   C9        1.0  0.20164  0.76003  0.15613  1.0000
  C   C10       1.0  0.79837  0.23997  0.84387  1.0000
  C   C11       1.0  0.15746  0.82087  0.07336  1.0000
  C   C12       1.0  0.84254  0.17914  0.92665  1.0000
  C   C13       1.0  0.90165  0.75805  0.04510  1.0000
  C   C14       1.0  0.09835  0.24194  0.95491  1.0000
  C   C15       1.0  0.76261  0.81833  0.04334  1.0000
  C   C16       1.0  0.23738  0.18166  0.95665  1.0000
  C   C17       1.0  0.28633  0.13488  0.04847  1.0000
  C   C18       1.0  0.71369  0.86511  0.95151  1.0000
  C   C19       1.0  0.90287  0.63532  0.93492  1.0000
  C   C20       1.0  0.09714  0.36468  0.06508  1.0000
  C   C21       1.0  0.72927  0.45991  0.35671  1.0000
  C   C22       1.0  0.27073  0.54010  0.64329  1.0000
  C   C23       1.0  0.57597  0.48043  0.33109  1.0000
  C   C24       1.0  0.42403  0.51959  0.66892  1.0000
  C   C25       1.0  0.52622  0.45127  0.20759  1.0000
  C   C26       1.0  0.47378  0.54873  0.79242  1.0000
  C   C27       1.0  0.61466  0.54018  0.17627  1.0000
  C   C28       1.0  0.38535  0.45981  0.82373  1.0000
  C   C29       1.0  0.76769  0.52192  0.20178  1.0000
  C   C30       1.0  0.23231  0.47807  0.79822  1.0000
  C   C31       1.0  0.81951  0.54963  0.32502  1.0000
  C   C32       1.0  0.18049  0.45037  0.67498  1.0000
  C   C33       1.0  0.07084  0.61972  0.33830  1.0000
  C   C34       1.0  0.92916  0.38028  0.66169  1.0000
  C   C35       1.0  0.21733  0.58473  0.37090  1.0000
  C   C36       1.0  0.78267  0.41527  0.62910  1.0000
  C   C37       1.0  0.72619  0.38230  0.50518  1.0000
  C   C38       1.0  0.27382  0.61770  0.49482  1.0000
  C   C39       1.0  0.05425  0.76877  0.40396  1.0000
  C   C40       1.0  0.94575  0.23123  0.59604  1.0000
  N   N1        1.0  0.21643  0.00067  0.01940  1.0000
  N   N2        1.0  0.78354  0.99935  0.98062  1.0000
  N   N3        1.0  0.01726  0.86478  0.07627  1.0000
  N   N4        1.0  0.98273  0.13523  0.92376  1.0000
  N   N5        1.0  0.78107  0.48530  0.47484  1.0000
  N   N6        1.0  0.21894  0.51471  0.52516  1.0000
  N   N7        1.0  0.96657  0.52797  0.34883  1.0000
  N   N8        1.0  0.03343  0.47203  0.65117  1.0000
  O   O1        1.0  0.06309  0.03937  0.30363  1.0000
  O   O2        1.0  0.93692  0.96064  0.69639  1.0000
  O   O3        1.0  0.23403  0.25743  0.33985  1.0000
  O   O4        1.0  0.76598  0.74256  0.66017  1.0000
  O   O5        1.0  0.97942  0.28901  0.38844  1.0000
  O   O6        1.0  0.02059  0.71101  0.61157  1.0000
  O   O7        1.0  0.00523  0.16759  0.16988  1.0000
  O   O8        1.0  0.99479  0.83240  0.83012  1.0000
