data_image0
_chemical_formula_structural       Zn6H44C48S4N32O16
_chemical_formula_sum              "Zn6 H44 C48 S4 N32 O16"
_cell_length_a       8.10487
_cell_length_b       14.0108
_cell_length_c       15.9949
_cell_angle_alpha    114.118
_cell_angle_beta     90
_cell_angle_gamma    106.812

_space_group_name_H-M_alt    "P 1"
_space_group_IT_number       1

loop_
  _space_group_symop_operation_xyz
  'x, y, z'

loop_
  _atom_site_type_symbol
  _atom_site_label
  _atom_site_symmetry_multiplicity
  _atom_site_fract_x
  _atom_site_fract_y
  _atom_site_fract_z
  _atom_site_occupancy
  Zn  Zn1       1.0  0.27004  0.27582  0.04898  1.0000
  Zn  Zn2       1.0  0.99438  0.72413  0.45092  1.0000
  Zn  Zn3       1.0  0.72996  0.72418  0.95102  1.0000
  Zn  Zn4       1.0  0.00562  0.27587  0.54909  1.0000
  Zn  Zn5       1.0  0.01359  0.00011  0.75006  1.0000
  Zn  Zn6       1.0  0.98640  0.99989  0.24994  1.0000
  H   H1        1.0  0.53766  0.69080  0.19792  1.0000
  H   H2        1.0  0.84692  0.30917  0.30218  1.0000
  H   H3        1.0  0.46233  0.30920  0.80207  1.0000
  H   H4        1.0  0.15309  0.69083  0.69782  1.0000
  H   H5        1.0  0.37869  0.64185  0.02759  1.0000
  H   H6        1.0  0.73708  0.35830  0.47255  1.0000
  H   H7        1.0  0.62131  0.35816  0.97241  1.0000
  H   H8        1.0  0.26293  0.64170  0.52745  1.0000
  H   H9        1.0  0.75197  0.03612  0.11803  1.0000
  H   H10       1.0  0.71649  0.96400  0.38198  1.0000
  H   H11       1.0  0.24803  0.96388  0.88197  1.0000
  H   H12       1.0  0.28351  0.03600  0.61802  1.0000
  H   H13       1.0  0.54554  0.42316  0.26014  1.0000
  H   H14       1.0  0.12238  0.57668  0.23978  1.0000
  H   H15       1.0  0.45446  0.57684  0.73986  1.0000
  H   H16       1.0  0.87763  0.42333  0.76022  1.0000
  H   H17       1.0  0.67350  0.65140  0.32048  1.0000
  H   H18       1.0  0.02210  0.34846  0.17958  1.0000
  H   H19       1.0  0.32650  0.34860  0.67952  1.0000
  H   H20       1.0  0.97791  0.65155  0.82042  1.0000
  H   H21       1.0  0.15238  0.53567  0.88320  1.0000
  H   H22       1.0  0.61672  0.46454  0.61686  1.0000
  H   H23       1.0  0.84761  0.46433  0.11680  1.0000
  H   H24       1.0  0.38328  0.53546  0.38314  1.0000
  H   H25       1.0  0.03656  0.31943  0.86461  1.0000
  H   H26       1.0  0.71696  0.68070  0.63527  1.0000
  H   H27       1.0  0.96343  0.68057  0.13540  1.0000
  H   H28       1.0  0.28305  0.31930  0.36473  1.0000
  H   H29       1.0  0.84103  0.21392  0.95490  1.0000
  H   H30       1.0  0.62757  0.78626  0.54514  1.0000
  H   H31       1.0  0.15897  0.78608  0.04510  1.0000
  H   H32       1.0  0.37243  0.21374  0.45486  1.0000
  H   H33       1.0  0.58949  0.08124  0.01190  1.0000
  H   H34       1.0  0.50884  0.91895  0.48815  1.0000
  H   H35       1.0  0.41051  0.91876  0.98810  1.0000
  H   H36       1.0  0.49116  0.08105  0.51185  1.0000
  H   H37       1.0  0.38755  0.09475  0.27328  1.0000
  H   H38       1.0  0.29308  0.90509  0.22653  1.0000
  H   H39       1.0  0.61245  0.90525  0.72672  1.0000
  H   H40       1.0  0.70692  0.09491  0.77347  1.0000
  H   H41       1.0  0.55609  0.22008  0.18492  1.0000
  H   H42       1.0  0.33612  0.77959  0.31476  1.0000
  H   H43       1.0  0.44391  0.77992  0.81508  1.0000
  H   H44       1.0  0.66387  0.22041  0.68523  1.0000
  C   C1        1.0  0.52085  0.47470  0.22949  1.0000
  C   C2        1.0  0.04621  0.52518  0.27049  1.0000
  C   C3        1.0  0.47914  0.52530  0.77051  1.0000
  C   C4        1.0  0.95380  0.47482  0.72951  1.0000
  C   C5        1.0  0.58494  0.58755  0.26001  1.0000
  C   C6        1.0  0.99743  0.41234  0.24004  1.0000
  C   C7        1.0  0.41506  0.41244  0.73999  1.0000
  C   C8        1.0  0.00258  0.58766  0.75997  1.0000
  C   C9        1.0  0.41035  0.51532  0.12900  1.0000
  C   C10       1.0  0.89518  0.48468  0.37105  1.0000
  C   C11       1.0  0.58964  0.48468  0.87100  1.0000
  C   C12       1.0  0.10483  0.51532  0.62895  1.0000
  C   C13       1.0  0.30611  0.49281  0.04622  1.0000
  C   C14       1.0  0.81345  0.50726  0.45383  1.0000
  C   C15       1.0  0.69388  0.50719  0.95378  1.0000
  C   C16       1.0  0.18656  0.49274  0.54617  1.0000
  C   C17       1.0  0.18133  0.49961  0.92745  1.0000
  C   C18       1.0  0.68179  0.50056  0.57260  1.0000
  C   C19       1.0  0.81866  0.50039  0.07255  1.0000
  C   C20       1.0  0.31821  0.49944  0.42741  1.0000
  C   C21       1.0  0.12574  0.39278  0.91928  1.0000
  C   C22       1.0  0.73292  0.60734  0.58067  1.0000
  C   C23       1.0  0.87426  0.60722  0.08072  1.0000
  C   C24       1.0  0.26708  0.39266  0.41933  1.0000
  C   C25       1.0  0.85546  0.17670  0.00078  1.0000
  C   C26       1.0  0.67929  0.82345  0.49925  1.0000
  C   C27       1.0  0.14453  0.82330  0.99922  1.0000
  C   C28       1.0  0.32071  0.17655  0.50075  1.0000
  C   C29       1.0  0.72939  0.11063  0.02863  1.0000
  C   C30       1.0  0.61932  0.88952  0.47139  1.0000
  C   C31       1.0  0.27061  0.88937  0.97137  1.0000
  C   C32       1.0  0.38068  0.11048  0.52861  1.0000
  C   C33       1.0  0.98859  0.13209  0.09212  1.0000
  C   C34       1.0  0.85698  0.86797  0.40786  1.0000
  C   C35       1.0  0.01141  0.86791  0.90788  1.0000
  C   C36       1.0  0.14302  0.13203  0.59214  1.0000
  C   C37       1.0  0.13959  0.13339  0.14135  1.0000
  C   C38       1.0  0.00657  0.86654  0.35855  1.0000
  C   C39       1.0  0.86041  0.86661  0.85865  1.0000
  C   C40       1.0  0.99343  0.13346  0.64145  1.0000
  C   C41       1.0  0.33333  0.12111  0.22759  1.0000
  C   C42       1.0  0.21249  0.87872  0.27221  1.0000
  C   C43       1.0  0.66667  0.87889  0.77240  1.0000
  C   C44       1.0  0.78751  0.12128  0.72779  1.0000
  C   C45       1.0  0.41785  0.18361  0.18282  1.0000
  C   C46       1.0  0.23445  0.81615  0.31693  1.0000
  C   C47       1.0  0.58214  0.81639  0.81718  1.0000
  C   C48       1.0  0.76555  0.18385  0.68307  1.0000
  S   S1        1.0  0.38949  0.14689  0.86512  1.0000
  S   S2        1.0  0.24259  0.85317  0.63490  1.0000
  S   S3        1.0  0.61051  0.85311  0.13488  1.0000
  S   S4        1.0  0.75742  0.14683  0.36510  1.0000
  N   N1        1.0  0.41196  0.43062  0.14801  1.0000
  N   N2        1.0  0.98147  0.56932  0.35197  1.0000
  N   N3        1.0  0.58803  0.56938  0.85199  1.0000
  N   N4        1.0  0.01854  0.43068  0.64803  1.0000
  N   N5        1.0  0.51355  0.61170  0.19590  1.0000
  N   N6        1.0  0.90195  0.38827  0.30419  1.0000
  N   N7        1.0  0.48644  0.38830  0.80410  1.0000
  N   N8        1.0  0.09806  0.61174  0.69581  1.0000
  N   N9        1.0  0.20422  0.38932  0.99371  1.0000
  N   N10       1.0  0.81494  0.61074  0.50625  1.0000
  N   N11       1.0  0.79577  0.61068  0.00629  1.0000
  N   N12       1.0  0.18507  0.38926  0.49375  1.0000
  N   N13       1.0  0.29505  0.56184  0.00818  1.0000
  N   N14       1.0  0.73341  0.43829  0.49193  1.0000
  N   N15       1.0  0.70494  0.43816  0.99182  1.0000
  N   N16       1.0  0.26660  0.56171  0.50807  1.0000
  N   N17       1.0  0.01545  0.19010  0.04083  1.0000
  N   N18       1.0  0.82583  0.80999  0.45918  1.0000
  N   N19       1.0  0.98455  0.80989  0.95916  1.0000
  N   N20       1.0  0.17417  0.19000  0.54082  1.0000
  N   N21       1.0  0.81524  0.08368  0.08591  1.0000
  N   N22       1.0  0.73209  0.91641  0.41408  1.0000
  N   N23       1.0  0.18476  0.91632  0.91409  1.0000
  N   N24       1.0  0.26791  0.08359  0.58592  1.0000
  N   N25       1.0  0.29577  0.19087  0.12867  1.0000
  N   N26       1.0  0.10517  0.80896  0.37113  1.0000
  N   N27       1.0  0.70423  0.80912  0.87133  1.0000
  N   N28       1.0  0.89483  0.19104  0.62887  1.0000
  N   N29       1.0  0.15649  0.08940  0.20113  1.0000
  N   N30       1.0  0.06748  0.91053  0.29877  1.0000
  N   N31       1.0  0.84351  0.91060  0.79887  1.0000
  N   N32       1.0  0.93252  0.08947  0.70123  1.0000
  O   O1        1.0  0.46525  0.06309  0.86222  1.0000
  O   O2        1.0  0.40230  0.93671  0.63761  1.0000
  O   O3        1.0  0.53475  0.93691  0.13778  1.0000
  O   O4        1.0  0.59770  0.06328  0.36239  1.0000
  O   O5        1.0  0.44663  0.24623  0.95950  1.0000
  O   O6        1.0  0.20001  0.75372  0.54059  1.0000
  O   O7        1.0  0.55337  0.75377  0.04050  1.0000
  O   O8        1.0  0.79999  0.24628  0.45941  1.0000
  O   O9        1.0  0.43894  0.18629  0.79324  1.0000
  O   O10       1.0  0.25247  0.81384  0.70683  1.0000
  O   O11       1.0  0.56106  0.81371  0.20676  1.0000
  O   O12       1.0  0.74753  0.18616  0.29317  1.0000
  O   O13       1.0  0.19362  0.10341  0.85871  1.0000
  O   O14       1.0  0.09054  0.89696  0.64138  1.0000
  O   O15       1.0  0.80638  0.89659  0.14129  1.0000
  O   O16       1.0  0.90947  0.10304  0.35862  1.0000
