data_image0
_chemical_formula_structural       Mn2H38C52N6O8
_chemical_formula_sum              "Mn2 H38 C52 N6 O8"
_cell_length_a       8.82488
_cell_length_b       10.17
_cell_length_c       12.57
_cell_angle_alpha    83.3252
_cell_angle_beta     77.1685
_cell_angle_gamma    79.0841

_space_group_name_H-M_alt    "P 1"
_space_group_IT_number       1

loop_
  _space_group_symop_operation_xyz
  'x, y, z'

loop_
  _atom_site_type_symbol
  _atom_site_label
  _atom_site_symmetry_multiplicity
  _atom_site_fract_x
  _atom_site_fract_y
  _atom_site_fract_z
  _atom_site_occupancy
  Mn  Mn1       1.0  0.36121  0.38024  0.46632  1.0000
  Mn  Mn2       1.0  0.63879  0.61976  0.53368  1.0000
  H   H1        1.0  0.39668  0.91894  0.44240  1.0000
  H   H2        1.0  0.60332  0.08105  0.55759  1.0000
  H   H3        1.0  0.02787  0.73813  0.37475  1.0000
  H   H4        1.0  0.97212  0.26187  0.62526  1.0000
  H   H5        1.0  0.88031  0.96490  0.33114  1.0000
  H   H6        1.0  0.11968  0.03511  0.66887  1.0000
  H   H7        1.0  0.99660  0.16986  0.34126  1.0000
  H   H8        1.0  0.00339  0.83015  0.65875  1.0000
  H   H9        1.0  0.36694  0.21279  0.67999  1.0000
  H   H10       1.0  0.63306  0.78720  0.32001  1.0000
  H   H11       1.0  0.21463  0.20307  0.87350  1.0000
  H   H12       1.0  0.78538  0.79691  0.12650  1.0000
  H   H13       1.0  0.88402  0.54360  0.77470  1.0000
  H   H14       1.0  0.11600  0.45639  0.22531  1.0000
  H   H15       1.0  0.04611  0.53825  0.59060  1.0000
  H   H16       1.0  0.95390  0.46173  0.40940  1.0000
  H   H17       1.0  0.99717  0.28412  0.00860  1.0000
  H   H18       1.0  0.00284  0.71587  0.99141  1.0000
  H   H19       1.0  0.75618  0.52279  0.93919  1.0000
  H   H20       1.0  0.24383  0.47721  0.06082  1.0000
  H   H21       1.0  0.51684  0.57457  0.06463  1.0000
  H   H22       1.0  0.48317  0.42543  0.93538  1.0000
  H   H23       1.0  0.34764  0.54461  0.24987  1.0000
  H   H24       1.0  0.65237  0.45540  0.75013  1.0000
  H   H25       1.0  0.69736  0.26147  0.35584  1.0000
  H   H26       1.0  0.30263  0.73854  0.64416  1.0000
  H   H27       1.0  0.88131  0.27955  0.17655  1.0000
  H   H28       1.0  0.11869  0.72045  0.82346  1.0000
  H   H29       1.0  0.53997  0.85791  0.80481  1.0000
  H   H30       1.0  0.46003  0.14210  0.19518  1.0000
  H   H31       1.0  0.25685  0.95355  0.83081  1.0000
  H   H32       1.0  0.74315  0.04646  0.16918  1.0000
  H   H33       1.0  0.23608  0.89759  0.18002  1.0000
  H   H34       1.0  0.76392  0.10241  0.81998  1.0000
  H   H35       1.0  0.52062  0.80353  0.13875  1.0000
  H   H36       1.0  0.47939  0.19648  0.86125  1.0000
  H   H37       1.0  0.00030  0.99046  0.12328  1.0000
  H   H38       1.0  0.99971  0.00953  0.87671  1.0000
  C   C1        1.0  0.20353  0.05581  0.39062  1.0000
  C   C2        1.0  0.79646  0.94420  0.60937  1.0000
  C   C3        1.0  0.28626  0.92808  0.41450  1.0000
  C   C4        1.0  0.71374  0.07192  0.58549  1.0000
  C   C5        1.0  0.22358  0.81351  0.40716  1.0000
  C   C6        1.0  0.77640  0.18649  0.59284  1.0000
  C   C7        1.0  0.07717  0.82773  0.37690  1.0000
  C   C8        1.0  0.92281  0.17228  0.62310  1.0000
  C   C9        1.0  0.99570  0.95511  0.35201  1.0000
  C   C10       1.0  0.00429  0.04490  0.64799  1.0000
  C   C11       1.0  0.05906  0.06896  0.35795  1.0000
  C   C12       1.0  0.94093  0.93104  0.64205  1.0000
  C   C13       1.0  0.26145  0.17882  0.40898  1.0000
  C   C14       1.0  0.73856  0.82118  0.59102  1.0000
  C   C15       1.0  0.30964  0.67659  0.43533  1.0000
  C   C16       1.0  0.69036  0.32342  0.56467  1.0000
  C   C17       1.0  0.25848  0.28310  0.70582  1.0000
  C   C18       1.0  0.74152  0.71688  0.29418  1.0000
  C   C19       1.0  0.17345  0.27823  0.81239  1.0000
  C   C20       1.0  0.82656  0.72176  0.18761  1.0000
  C   C21       1.0  0.03420  0.37168  0.84306  1.0000
  C   C22       1.0  0.96581  0.62831  0.15694  1.0000
  C   C23       1.0  0.98900  0.46680  0.76000  1.0000
  C   C24       1.0  0.01101  0.53320  0.24000  1.0000
  C   C25       1.0  0.08027  0.46524  0.65514  1.0000
  C   C26       1.0  0.91974  0.53475  0.34486  1.0000
  C   C27       1.0  0.94626  0.36364  0.95430  1.0000
  C   C28       1.0  0.05375  0.63635  0.04570  1.0000
  C   C29       1.0  0.80742  0.44304  0.99328  1.0000
  C   C30       1.0  0.19258  0.55696  0.00673  1.0000
  C   C31       1.0  0.71418  0.42836  0.10240  1.0000
  C   C32       1.0  0.28582  0.57164  0.89761  1.0000
  C   C33       1.0  0.56097  0.50341  0.12686  1.0000
  C   C34       1.0  0.43903  0.49659  0.87315  1.0000
  C   C35       1.0  0.46662  0.48763  0.22954  1.0000
  C   C36       1.0  0.53337  0.51238  0.77046  1.0000
  C   C37       1.0  0.66243  0.32976  0.28864  1.0000
  C   C38       1.0  0.33756  0.67024  0.71137  1.0000
  C   C39       1.0  0.76370  0.33980  0.18801  1.0000
  C   C40       1.0  0.23630  0.66020  0.81199  1.0000
  C   C41       1.0  0.46885  0.86740  0.88753  1.0000
  C   C42       1.0  0.53114  0.13260  0.11247  1.0000
  C   C43       1.0  0.30889  0.92119  0.90247  1.0000
  C   C44       1.0  0.69112  0.07881  0.09753  1.0000
  C   C45       1.0  0.21782  0.93222  0.00932  1.0000
  C   C46       1.0  0.78217  0.06778  0.99068  1.0000
  C   C47       1.0  0.29841  0.88974  0.09527  1.0000
  C   C48       1.0  0.70159  0.11027  0.90473  1.0000
  C   C49       1.0  0.45854  0.83744  0.07176  1.0000
  C   C50       1.0  0.54145  0.16258  0.92824  1.0000
  C   C51       1.0  0.04876  0.98283  0.03582  1.0000
  C   C52       1.0  0.95124  0.01716  0.96418  1.0000
  N   N1        1.0  0.21407  0.37556  0.62708  1.0000
  N   N2        1.0  0.78593  0.62443  0.37292  1.0000
  N   N3        1.0  0.51558  0.40239  0.31068  1.0000
  N   N4        1.0  0.48443  0.59761  0.68932  1.0000
  N   N5        1.0  0.54503  0.82413  0.96999  1.0000
  N   N6        1.0  0.45498  0.17588  0.03000  1.0000
  O   O1        1.0  0.19010  0.29474  0.38217  1.0000
  O   O2        1.0  0.80990  0.70527  0.61784  1.0000
  O   O3        1.0  0.37986  0.16473  0.45548  1.0000
  O   O4        1.0  0.62015  0.83526  0.54450  1.0000
  O   O5        1.0  0.44730  0.66633  0.45371  1.0000
  O   O6        1.0  0.55268  0.33367  0.54630  1.0000
  O   O7        1.0  0.23997  0.57642  0.43838  1.0000
  O   O8        1.0  0.76002  0.42358  0.56162  1.0000
