data_image0
_chemical_formula_structural       Fe3Ag6H24C48N24
_chemical_formula_sum              "Fe3 Ag6 H24 C48 N24"
_cell_length_a       8.58615
_cell_length_b       15.3689
_cell_length_c       15.4537
_cell_angle_alpha    116.398
_cell_angle_beta     102.016
_cell_angle_gamma    100.06

_space_group_name_H-M_alt    "P 1"
_space_group_IT_number       1

loop_
  _space_group_symop_operation_xyz
  'x, y, z'

loop_
  _atom_site_type_symbol
  _atom_site_label
  _atom_site_symmetry_multiplicity
  _atom_site_fract_x
  _atom_site_fract_y
  _atom_site_fract_z
  _atom_site_occupancy
  Fe  Fe1       1.0  0.50000  0.50000  0.00000  1.0000
  Fe  Fe2       1.0  1.00000  0.50000  0.50000  1.0000
  Fe  Fe3       1.0  0.50000  0.00000  0.50000  1.0000
  Ag  Ag1       1.0  0.99788  0.30850  0.69033  1.0000
  Ag  Ag2       1.0  0.69641  0.39303  0.69651  1.0000
  Ag  Ag3       1.0  0.31024  0.30823  0.61776  1.0000
  Ag  Ag4       1.0  0.00213  0.69149  0.30967  1.0000
  Ag  Ag5       1.0  0.30359  0.60697  0.30350  1.0000
  Ag  Ag6       1.0  0.68977  0.69177  0.38224  1.0000
  H   H1        1.0  0.63680  0.71655  0.15917  1.0000
  H   H2        1.0  0.91644  0.44126  0.28338  1.0000
  H   H3        1.0  0.48240  0.84176  0.55846  1.0000
  H   H4        1.0  0.52416  0.44129  0.15784  1.0000
  H   H5        1.0  0.35916  0.84166  0.28324  1.0000
  H   H6        1.0  0.08032  0.71654  0.55746  1.0000
  H   H7        1.0  0.36319  0.28345  0.84083  1.0000
  H   H8        1.0  0.08356  0.55875  0.71663  1.0000
  H   H9        1.0  0.51761  0.15824  0.44154  1.0000
  H   H10       1.0  0.47584  0.55871  0.84216  1.0000
  H   H11       1.0  0.64084  0.15835  0.71676  1.0000
  H   H12       1.0  0.91969  0.28345  0.44254  1.0000
  H   H13       1.0  0.70394  0.88430  0.16557  1.0000
  H   H14       1.0  0.81742  0.27979  0.11600  1.0000
  H   H15       1.0  0.54093  0.83556  0.72022  1.0000
  H   H16       1.0  0.46218  0.27988  0.16377  1.0000
  H   H17       1.0  0.29453  0.83542  0.11525  1.0000
  H   H18       1.0  0.18056  0.88437  0.71885  1.0000
  H   H19       1.0  0.29606  0.11570  0.83442  1.0000
  H   H20       1.0  0.18257  0.72021  0.88401  1.0000
  H   H21       1.0  0.45909  0.16445  0.27978  1.0000
  H   H22       1.0  0.53781  0.72012  0.83623  1.0000
  H   H23       1.0  0.70546  0.16458  0.88475  1.0000
  H   H24       1.0  0.81944  0.11563  0.28115  1.0000
  C   C1        1.0  0.62666  0.81590  0.00089  1.0000
  C   C2        1.0  0.81111  0.18413  0.18499  1.0000
  C   C3        1.0  0.62832  0.00004  0.81625  1.0000
  C   C4        1.0  0.37333  0.18410  0.99910  1.0000
  C   C5        1.0  0.37169  0.99997  0.18375  1.0000
  C   C6        1.0  0.18888  0.81587  0.81501  1.0000
  C   C7        1.0  0.61724  0.72063  0.08944  1.0000
  C   C8        1.0  0.89465  0.36769  0.27971  1.0000
  C   C9        1.0  0.53235  0.91147  0.63224  1.0000
  C   C10       1.0  0.47267  0.36775  0.08795  1.0000
  C   C11       1.0  0.37900  0.91134  0.27917  1.0000
  C   C12       1.0  0.10374  0.72065  0.63126  1.0000
  C   C13       1.0  0.38275  0.27938  0.91056  1.0000
  C   C14       1.0  0.10535  0.63230  0.72029  1.0000
  C   C15       1.0  0.46766  0.08853  0.36776  1.0000
  C   C16       1.0  0.52733  0.63225  0.91205  1.0000
  C   C17       1.0  0.62100  0.08866  0.72083  1.0000
  C   C18       1.0  0.89626  0.27935  0.36874  1.0000
  C   C19       1.0  0.65434  0.81363  0.09249  1.0000
  C   C20       1.0  0.83947  0.27766  0.18685  1.0000
  C   C21       1.0  0.56507  0.90852  0.72243  1.0000
  C   C22       1.0  0.43814  0.27772  0.09077  1.0000
  C   C23       1.0  0.34336  0.90842  0.18604  1.0000
  C   C24       1.0  0.15933  0.81367  0.72122  1.0000
  C   C25       1.0  0.34565  0.18637  0.90750  1.0000
  C   C26       1.0  0.16052  0.72234  0.81315  1.0000
  C   C27       1.0  0.43494  0.09149  0.27757  1.0000
  C   C28       1.0  0.56185  0.72228  0.90923  1.0000
  C   C29       1.0  0.65665  0.09159  0.81396  1.0000
  C   C30       1.0  0.84067  0.18633  0.27878  1.0000
  C   C31       1.0  0.66272  0.91324  0.00081  1.0000
  C   C32       1.0  0.74978  0.08673  0.08755  1.0000
  C   C33       1.0  0.66314  0.00001  0.91383  1.0000
  C   C34       1.0  0.33727  0.08676  0.99919  1.0000
  C   C35       1.0  0.33686  0.99999  0.08617  1.0000
  C   C36       1.0  0.25021  0.91327  0.91245  1.0000
  C   C37       1.0  0.17923  0.41587  0.82235  1.0000
  C   C38       1.0  0.77279  0.41433  0.58954  1.0000
  C   C39       1.0  0.35804  0.17588  0.59131  1.0000
  C   C40       1.0  0.64144  0.41415  0.82477  1.0000
  C   C41       1.0  0.81770  0.17603  0.58465  1.0000
  C   C42       1.0  0.23651  0.41572  0.59329  1.0000
  C   C43       1.0  0.82077  0.58413  0.17765  1.0000
  C   C44       1.0  0.22721  0.58567  0.41047  1.0000
  C   C45       1.0  0.64197  0.82413  0.40869  1.0000
  C   C46       1.0  0.35856  0.58585  0.17524  1.0000
  C   C47       1.0  0.18232  0.82396  0.41535  1.0000
  C   C48       1.0  0.76349  0.58428  0.40671  1.0000
  N   N1        1.0  0.55426  0.63044  0.00068  1.0000
  N   N2        1.0  0.92343  0.36948  0.37012  1.0000
  N   N3        1.0  0.55882  0.00007  0.63047  1.0000
  N   N4        1.0  0.44573  0.36956  0.99932  1.0000
  N   N5        1.0  0.44119  0.99993  0.36953  1.0000
  N   N6        1.0  0.07657  0.63052  0.62989  1.0000
  N   N7        1.0  0.29655  0.45416  0.89584  1.0000
  N   N8        1.0  0.84779  0.44465  0.54808  1.0000
  N   N9        1.0  0.40178  0.10326  0.55641  1.0000
  N   N10       1.0  0.59685  0.44453  0.89657  1.0000
  N   N11       1.0  0.70133  0.10342  0.54691  1.0000
  N   N12       1.0  0.15752  0.45405  0.55812  1.0000
  N   N13       1.0  0.70345  0.54584  0.10416  1.0000
  N   N14       1.0  0.15220  0.55535  0.45193  1.0000
  N   N15       1.0  0.59823  0.89674  0.44359  1.0000
  N   N16       1.0  0.40315  0.55547  0.10343  1.0000
  N   N17       1.0  0.29868  0.89658  0.45309  1.0000
  N   N18       1.0  0.84247  0.54595  0.44188  1.0000
  N   N19       1.0  0.63131  0.90912  0.90979  1.0000
  N   N20       1.0  0.72243  0.00001  0.09180  1.0000
  N   N21       1.0  0.72266  0.09093  0.00071  1.0000
  N   N22       1.0  0.27756  0.99999  0.90820  1.0000
  N   N23       1.0  0.36868  0.09088  0.09020  1.0000
  N   N24       1.0  0.27733  0.90907  0.99929  1.0000
