data_image0
_chemical_formula_structural       Ag4H44C42N6O10F28
_chemical_formula_sum              "Ag4 H44 C42 N6 O10 F28"
_cell_length_a       8.76554
_cell_length_b       12.2889
_cell_length_c       14.904
_cell_angle_alpha    109.746
_cell_angle_beta     96.7355
_cell_angle_gamma    104.419

_space_group_name_H-M_alt    "P 1"
_space_group_IT_number       1

loop_
  _space_group_symop_operation_xyz
  'x, y, z'

loop_
  _atom_site_type_symbol
  _atom_site_label
  _atom_site_symmetry_multiplicity
  _atom_site_fract_x
  _atom_site_fract_y
  _atom_site_fract_z
  _atom_site_occupancy
  Ag  Ag1       1.0  0.64426  0.26545  0.32300  1.0000
  Ag  Ag2       1.0  0.35574  0.73455  0.67700  1.0000
  Ag  Ag3       1.0  0.79731  0.89052  0.87302  1.0000
  Ag  Ag4       1.0  0.20269  0.10948  0.12698  1.0000
  H   H1        1.0  0.36310  0.14853  0.37216  1.0000
  H   H2        1.0  0.63690  0.85147  0.62784  1.0000
  H   H3        1.0  0.71906  0.37290  0.20035  1.0000
  H   H4        1.0  0.28094  0.62710  0.79965  1.0000
  H   H5        1.0  0.81213  0.37001  0.09993  1.0000
  H   H6        1.0  0.18787  0.62999  0.90006  1.0000
  H   H7        1.0  0.92485  0.37406  0.20751  1.0000
  H   H8        1.0  0.07515  0.62594  0.79249  1.0000
  H   H9        1.0  0.52286  0.03839  0.27143  1.0000
  H   H10       1.0  0.47713  0.96161  0.72857  1.0000
  H   H11       1.0  0.60389  0.91499  0.22882  1.0000
  H   H12       1.0  0.39611  0.08501  0.77118  1.0000
  H   H13       1.0  0.41347  0.90678  0.16674  1.0000
  H   H14       1.0  0.58653  0.09322  0.83326  1.0000
  H   H15       1.0  0.60312  0.77742  0.94637  1.0000
  H   H16       1.0  0.39688  0.22258  0.05363  1.0000
  H   H17       1.0  0.48276  0.78316  0.03544  1.0000
  H   H18       1.0  0.51724  0.21684  0.96456  1.0000
  H   H19       1.0  0.68853  0.79437  0.06719  1.0000
  H   H20       1.0  0.31147  0.20562  0.93281  1.0000
  H   H21       1.0  0.91672  0.11940  0.92213  1.0000
  H   H22       1.0  0.08329  0.88060  0.07787  1.0000
  H   H23       1.0  0.00659  0.25102  0.03122  1.0000
  H   H24       1.0  0.99341  0.74898  0.96878  1.0000
  H   H25       1.0  0.83285  0.24210  0.95219  1.0000
  H   H26       1.0  0.16715  0.75790  0.04782  1.0000
  H   H27       1.0  0.68762  0.61658  0.47909  1.0000
  H   H28       1.0  0.31239  0.38342  0.52091  1.0000
  H   H29       1.0  0.65593  0.54676  0.56350  1.0000
  H   H30       1.0  0.34408  0.45323  0.43650  1.0000
  H   H31       1.0  0.59954  0.45611  0.43613  1.0000
  H   H32       1.0  0.40046  0.54389  0.56387  1.0000
  H   H33       1.0  0.95274  0.72242  0.69421  1.0000
  H   H34       1.0  0.04727  0.27758  0.30579  1.0000
  H   H35       1.0  0.88871  0.75596  0.59274  1.0000
  H   H36       1.0  0.11130  0.24403  0.40726  1.0000
  H   H37       1.0  0.09941  0.79929  0.64499  1.0000
  H   H38       1.0  0.90059  0.20070  0.35501  1.0000
  H   H39       1.0  0.54193  0.07415  0.45001  1.0000
  H   H40       1.0  0.45806  0.92586  0.54999  1.0000
  H   H41       1.0  0.42513  0.14284  0.53002  1.0000
  H   H42       1.0  0.57487  0.85717  0.46999  1.0000
  H   H43       1.0  0.62748  0.22679  0.53737  1.0000
  H   H44       1.0  0.37251  0.77322  0.46263  1.0000
  C   C1        1.0  0.26841  0.52030  0.08301  1.0000
  C   C2        1.0  0.73159  0.47970  0.91699  1.0000
  C   C3        1.0  0.38862  0.57438  0.18427  1.0000
  C   C4        1.0  0.61137  0.42562  0.81574  1.0000
  C   C5        1.0  0.34320  0.51701  0.26000  1.0000
  C   C6        1.0  0.65679  0.48299  0.74001  1.0000
  C   C7        1.0  0.32961  0.37884  0.22757  1.0000
  C   C8        1.0  0.67038  0.62115  0.77243  1.0000
  C   C9        1.0  0.05575  0.26190  0.64181  1.0000
  C   C10       1.0  0.94425  0.73811  0.35819  1.0000
  C   C11       1.0  0.02214  0.19308  0.71199  1.0000
  C   C12       1.0  0.97786  0.80692  0.28801  1.0000
  C   C13       1.0  0.99182  0.05297  0.66757  1.0000
  C   C14       1.0  0.00818  0.94703  0.33242  1.0000
  C   C15       1.0  0.93613  0.99270  0.74025  1.0000
  C   C16       1.0  0.06389  0.00729  0.25975  1.0000
  C   C17       1.0  0.75052  0.20149  0.12230  1.0000
  C   C18       1.0  0.24948  0.79851  0.87770  1.0000
  C   C19       1.0  0.61897  0.02570  0.14424  1.0000
  C   C20       1.0  0.38103  0.97430  0.85576  1.0000
  C   C21       1.0  0.65257  0.95456  0.05737  1.0000
  C   C22       1.0  0.34743  0.04544  0.94263  1.0000
  C   C23       1.0  0.78948  0.13068  0.03741  1.0000
  C   C24       1.0  0.21052  0.86932  0.96259  1.0000
  C   C25       1.0  0.80368  0.33709  0.15941  1.0000
  C   C26       1.0  0.19632  0.66291  0.84059  1.0000
  C   C27       1.0  0.53517  0.96839  0.20613  1.0000
  C   C28       1.0  0.46483  0.03161  0.79386  1.0000
  C   C29       1.0  0.60303  0.81975  0.02410  1.0000
  C   C30       1.0  0.39698  0.18025  0.97590  1.0000
  C   C31       1.0  0.89131  0.18856  0.98226  1.0000
  C   C32       1.0  0.10869  0.81144  0.01774  1.0000
  C   C33       1.0  0.85251  0.51723  0.49639  1.0000
  C   C34       1.0  0.14750  0.48277  0.50360  1.0000
  C   C35       1.0  0.99194  0.60937  0.55941  1.0000
  C   C36       1.0  0.00806  0.39063  0.44059  1.0000
  C   C37       1.0  0.69054  0.53507  0.49325  1.0000
  C   C38       1.0  0.30947  0.46492  0.50675  1.0000
  C   C39       1.0  0.98300  0.72836  0.62598  1.0000
  C   C40       1.0  0.01700  0.27164  0.37402  1.0000
  C   C41       1.0  0.51636  0.15965  0.48741  1.0000
  C   C42       1.0  0.48364  0.84035  0.51259  1.0000
  N   N1        1.0  0.66664  0.14750  0.17434  1.0000
  N   N2        1.0  0.33337  0.85250  0.82566  1.0000
  N   N3        1.0  0.73760  0.00807  0.00570  1.0000
  N   N4        1.0  0.26240  0.99193  0.99431  1.0000
  N   N5        1.0  0.86312  0.40971  0.43810  1.0000
  N   N6        1.0  0.13688  0.59029  0.56190  1.0000
  O   O1        1.0  0.78584  0.93975  0.72445  1.0000
  O   O2        1.0  0.21417  0.06025  0.27555  1.0000
  O   O3        1.0  0.04433  0.00592  0.80894  1.0000
  O   O4        1.0  0.95570  0.99406  0.19104  1.0000
  O   O5        1.0  0.46287  0.20925  0.41958  1.0000
  O   O6        1.0  0.53712  0.79075  0.58042  1.0000
  O   O7        1.0  0.46012  0.35680  0.24130  1.0000
  O   O8        1.0  0.53986  0.64319  0.75870  1.0000
  O   O9        1.0  0.18771  0.30605  0.18920  1.0000
  O   O10       1.0  0.81227  0.69394  0.81080  1.0000
  F   F1        1.0  0.11861  0.52543  0.09230  1.0000
  F   F2        1.0  0.88138  0.47457  0.90770  1.0000
  F   F3        1.0  0.32183  0.58554  0.02895  1.0000
  F   F4        1.0  0.67817  0.41447  0.97105  1.0000
  F   F5        1.0  0.26030  0.40370  0.03336  1.0000
  F   F6        1.0  0.73969  0.59630  0.96664  1.0000
  F   F7        1.0  0.53471  0.56329  0.16665  1.0000
  F   F8        1.0  0.46528  0.43672  0.83335  1.0000
  F   F9        1.0  0.40351  0.69583  0.22402  1.0000
  F   F10       1.0  0.59648  0.30417  0.77598  1.0000
  F   F11       1.0  0.20229  0.53792  0.28239  1.0000
  F   F12       1.0  0.79771  0.46209  0.71761  1.0000
  F   F13       1.0  0.46290  0.58431  0.34318  1.0000
  F   F14       1.0  0.53709  0.41568  0.65682  1.0000
  F   F15       1.0  0.09594  0.38315  0.69310  1.0000
  F   F16       1.0  0.90405  0.61685  0.30691  1.0000
  F   F17       1.0  0.92377  0.22896  0.57006  1.0000
  F   F18       1.0  0.07624  0.77104  0.42994  1.0000
  F   F19       1.0  0.17964  0.23886  0.60033  1.0000
  F   F20       1.0  0.82038  0.76116  0.39968  1.0000
  F   F21       1.0  0.15174  0.24502  0.78967  1.0000
  F   F22       1.0  0.84826  0.75498  0.21033  1.0000
  F   F23       1.0  0.88866  0.21396  0.74543  1.0000
  F   F24       1.0  0.11133  0.78603  0.25456  1.0000
  F   F25       1.0  0.87838  0.00526  0.58105  1.0000
  F   F26       1.0  0.12162  0.99474  0.41895  1.0000
  F   F27       1.0  0.13281  0.03245  0.64525  1.0000
  F   F28       1.0  0.86720  0.96755  0.35474  1.0000
