data_image0
_chemical_formula_structural       Ca2H20C20N8O16
_chemical_formula_sum              "Ca2 H20 C20 N8 O16"
_cell_length_a       3.74802
_cell_length_b       10.1252
_cell_length_c       18.3957
_cell_angle_alpha    78.9106
_cell_angle_beta     84.1999
_cell_angle_gamma    79.3249

_space_group_name_H-M_alt    "P 1"
_space_group_IT_number       1

loop_
  _space_group_symop_operation_xyz
  'x, y, z'

loop_
  _atom_site_type_symbol
  _atom_site_label
  _atom_site_symmetry_multiplicity
  _atom_site_fract_x
  _atom_site_fract_y
  _atom_site_fract_z
  _atom_site_occupancy
  Ca  Ca1       1.0  0.93192  0.74986  0.24996  1.0000
  Ca  Ca2       1.0  0.06809  0.25014  0.75004  1.0000
  H   H1        1.0  0.67578  0.12245  0.44016  1.0000
  H   H2        1.0  0.23982  0.37730  0.06002  1.0000
  H   H3        1.0  0.32422  0.87754  0.55984  1.0000
  H   H4        1.0  0.76017  0.62270  0.93998  1.0000
  H   H5        1.0  0.45512  0.15857  0.32500  1.0000
  H   H6        1.0  0.93714  0.34098  0.17480  1.0000
  H   H7        1.0  0.54488  0.84143  0.67500  1.0000
  H   H8        1.0  0.06286  0.65902  0.82520  1.0000
  H   H9        1.0  0.34265  0.39863  0.24968  1.0000
  H   H10       1.0  0.98803  0.10089  0.24994  1.0000
  H   H11       1.0  0.65735  0.60136  0.75032  1.0000
  H   H12       1.0  0.01197  0.89911  0.75006  1.0000
  H   H13       1.0  0.71789  0.53839  0.43170  1.0000
  H   H14       1.0  0.68708  0.96121  0.06835  1.0000
  H   H15       1.0  0.28211  0.46161  0.56830  1.0000
  H   H16       1.0  0.31293  0.03879  0.93165  1.0000
  H   H17       1.0  0.80578  0.29500  0.49990  1.0000
  H   H18       1.0  0.60194  0.20469  0.00036  1.0000
  H   H19       1.0  0.19422  0.70500  0.50010  1.0000
  H   H20       1.0  0.39805  0.79531  0.99964  1.0000
  C   C1        1.0  0.50375  0.24806  0.34463  1.0000
  C   C2        1.0  0.09502  0.25153  0.15520  1.0000
  C   C3        1.0  0.49625  0.75194  0.65537  1.0000
  C   C4        1.0  0.90497  0.74848  0.84480  1.0000
  C   C5        1.0  0.44688  0.37818  0.30451  1.0000
  C   C6        1.0  0.12730  0.12135  0.19522  1.0000
  C   C7        1.0  0.55312  0.62182  0.69549  1.0000
  C   C8        1.0  0.87270  0.87865  0.80478  1.0000
  C   C9        1.0  0.52482  0.48947  0.33403  1.0000
  C   C10       1.0  0.34659  0.01007  0.16582  1.0000
  C   C11       1.0  0.47519  0.51052  0.66597  1.0000
  C   C12       1.0  0.65342  0.98994  0.83418  1.0000
  C   C13       1.0  0.65492  0.45699  0.40679  1.0000
  C   C14       1.0  0.51751  0.04258  0.09320  1.0000
  C   C15       1.0  0.34509  0.54301  0.59321  1.0000
  C   C16       1.0  0.48250  0.95742  0.90680  1.0000
  C   C17       1.0  0.70365  0.32476  0.44465  1.0000
  C   C18       1.0  0.47309  0.17488  0.05545  1.0000
  C   C19       1.0  0.29635  0.67523  0.55535  1.0000
  C   C20       1.0  0.52690  0.82512  0.94455  1.0000
  N   N1        1.0  0.81511  0.87179  0.39054  1.0000
  N   N2        1.0  0.08003  0.62826  0.10920  1.0000
  N   N3        1.0  0.18489  0.12821  0.60946  1.0000
  N   N4        1.0  0.91997  0.37174  0.89080  1.0000
  N   N5        1.0  0.63167  0.22276  0.41318  1.0000
  N   N6        1.0  0.26744  0.27691  0.08684  1.0000
  N   N7        1.0  0.36834  0.77723  0.58682  1.0000
  N   N8        1.0  0.73255  0.72309  0.91316  1.0000
  O   O1        1.0  0.47999  0.61293  0.29640  1.0000
  O   O2        1.0  0.38783  0.88662  0.20346  1.0000
  O   O3        1.0  0.52002  0.38707  0.70360  1.0000
  O   O4        1.0  0.61217  0.11339  0.79654  1.0000
  O   O5        1.0  0.70355  0.93832  0.32855  1.0000
  O   O6        1.0  0.97563  0.56136  0.17129  1.0000
  O   O7        1.0  0.29646  0.06167  0.67145  1.0000
  O   O8        1.0  0.02437  0.43864  0.82871  1.0000
  O   O9        1.0  0.95798  0.74697  0.39364  1.0000
  O   O10       1.0  0.09468  0.75367  0.10581  1.0000
  O   O11       1.0  0.04202  0.25303  0.60636  1.0000
  O   O12       1.0  0.90533  0.24633  0.89419  1.0000
  O   O13       1.0  0.78612  0.92755  0.44696  1.0000
  O   O14       1.0  0.16702  0.57217  0.05295  1.0000
  O   O15       1.0  0.21388  0.07245  0.55304  1.0000
  O   O16       1.0  0.83298  0.42783  0.94705  1.0000
