data_image0
_chemical_formula_structural       Hg4H28C20S4O20
_chemical_formula_sum              "Hg4 H28 C20 S4 O20"
_cell_length_a       5.73209
_cell_length_b       11.0909
_cell_length_c       13.5764
_cell_angle_alpha    114.405
_cell_angle_beta     90.001
_cell_angle_gamma    89.9989

_space_group_name_H-M_alt    "P 1"
_space_group_IT_number       1

loop_
  _space_group_symop_operation_xyz
  'x, y, z'

loop_
  _atom_site_type_symbol
  _atom_site_label
  _atom_site_symmetry_multiplicity
  _atom_site_fract_x
  _atom_site_fract_y
  _atom_site_fract_z
  _atom_site_occupancy
  Hg  Hg1       1.0  0.65973  0.54323  0.57211  1.0000
  Hg  Hg2       1.0  0.15973  0.95677  0.42790  1.0000
  Hg  Hg3       1.0  0.34027  0.45676  0.42788  1.0000
  Hg  Hg4       1.0  0.84026  0.04323  0.57211  1.0000
  H   H1        1.0  0.90021  0.74181  0.71905  1.0000
  H   H2        1.0  0.40023  0.75820  0.28095  1.0000
  H   H3        1.0  0.09977  0.25819  0.28095  1.0000
  H   H4        1.0  0.59976  0.24180  0.71906  1.0000
  H   H5        1.0  0.99968  0.61564  0.73456  1.0000
  H   H6        1.0  0.49969  0.88436  0.26544  1.0000
  H   H7        1.0  0.00030  0.38436  0.26544  1.0000
  H   H8        1.0  0.50031  0.11564  0.73456  1.0000
  H   H9        1.0  0.96091  0.27090  0.44530  1.0000
  H   H10       1.0  0.46090  0.22911  0.55470  1.0000
  H   H11       1.0  0.03909  0.72911  0.55471  1.0000
  H   H12       1.0  0.53910  0.77090  0.44530  1.0000
  H   H13       1.0  0.01547  0.33749  0.57209  1.0000
  H   H14       1.0  0.51547  0.16252  0.42791  1.0000
  H   H15       1.0  0.98453  0.66252  0.42791  1.0000
  H   H16       1.0  0.48453  0.83748  0.57209  1.0000
  H   H17       1.0  0.00402  0.30359  0.85750  1.0000
  H   H18       1.0  0.50402  0.19641  0.14250  1.0000
  H   H19       1.0  0.99599  0.69641  0.14250  1.0000
  H   H20       1.0  0.49599  0.80358  0.85750  1.0000
  H   H21       1.0  0.03120  0.31004  0.04332  1.0000
  H   H22       1.0  0.53121  0.18995  0.95668  1.0000
  H   H23       1.0  0.96879  0.68995  0.95667  1.0000
  H   H24       1.0  0.46880  0.81005  0.04332  1.0000
  H   H25       1.0  0.34482  0.43295  0.16600  1.0000
  H   H26       1.0  0.84483  0.06705  0.83399  1.0000
  H   H27       1.0  0.65517  0.56705  0.83399  1.0000
  H   H28       1.0  0.15519  0.93295  0.16601  1.0000
  C   C1        1.0  0.30503  0.42605  0.87849  1.0000
  C   C2        1.0  0.80502  0.07397  0.12152  1.0000
  C   C3        1.0  0.69499  0.57397  0.12151  1.0000
  C   C4        1.0  0.19499  0.92603  0.87849  1.0000
  C   C5        1.0  0.14359  0.35847  0.91195  1.0000
  C   C6        1.0  0.64361  0.14153  0.08805  1.0000
  C   C7        1.0  0.85639  0.64153  0.08804  1.0000
  C   C8        1.0  0.35640  0.85847  0.91196  1.0000
  C   C9        1.0  0.16046  0.36218  0.01674  1.0000
  C   C10       1.0  0.66046  0.13782  0.98326  1.0000
  C   C11       1.0  0.83955  0.63783  0.98325  1.0000
  C   C12       1.0  0.33955  0.86217  0.01674  1.0000
  C   C13       1.0  0.33663  0.43188  0.08575  1.0000
  C   C14       1.0  0.83664  0.06810  0.91423  1.0000
  C   C15       1.0  0.66335  0.56809  0.91423  1.0000
  C   C16       1.0  0.16336  0.93190  0.08577  1.0000
  C   C17       1.0  0.49280  0.49901  0.94669  1.0000
  C   C18       1.0  0.99280  0.00098  0.05331  1.0000
  C   C19       1.0  0.50721  0.50098  0.05331  1.0000
  C   C20       1.0  0.00722  0.99902  0.94669  1.0000
  S   S1        1.0  0.27044  0.42150  0.74667  1.0000
  S   S2        1.0  0.77044  0.07850  0.25334  1.0000
  S   S3        1.0  0.72956  0.57849  0.25332  1.0000
  S   S4        1.0  0.22956  0.92151  0.74667  1.0000
  O   O1        1.0  0.85104  0.65897  0.72582  1.0000
  O   O2        1.0  0.35106  0.84104  0.27417  1.0000
  O   O3        1.0  0.14895  0.34103  0.27417  1.0000
  O   O4        1.0  0.64894  0.15897  0.72583  1.0000
  O   O5        1.0  0.98561  0.35653  0.50787  1.0000
  O   O6        1.0  0.48560  0.14347  0.49213  1.0000
  O   O7        1.0  0.01439  0.64347  0.49213  1.0000
  O   O8        1.0  0.51439  0.85654  0.50787  1.0000
  O   O9        1.0  0.49071  0.36321  0.68732  1.0000
  O   O10       1.0  0.99074  0.13679  0.31268  1.0000
  O   O11       1.0  0.50929  0.63680  0.31267  1.0000
  O   O12       1.0  0.00927  0.86321  0.68732  1.0000
  O   O13       1.0  0.24348  0.55878  0.75818  1.0000
  O   O14       1.0  0.74350  0.94122  0.24182  1.0000
  O   O15       1.0  0.75651  0.44122  0.24182  1.0000
  O   O16       1.0  0.25650  0.05878  0.75819  1.0000
  O   O17       1.0  0.06694  0.33776  0.69764  1.0000
  O   O18       1.0  0.56694  0.16227  0.30236  1.0000
  O   O19       1.0  0.93308  0.66224  0.30235  1.0000
  O   O20       1.0  0.43306  0.83773  0.69764  1.0000
