data_image0
_chemical_formula_structural       Ag8H24C28S4O28
_chemical_formula_sum              "Ag8 H24 C28 S4 O28"
_cell_length_a       7.35333
_cell_length_b       8.33318
_cell_length_c       16.2717
_cell_angle_alpha    89.9995
_cell_angle_beta     90.0003
_cell_angle_gamma    92.1842

_space_group_name_H-M_alt    "P 1"
_space_group_IT_number       1

loop_
  _space_group_symop_operation_xyz
  'x, y, z'

loop_
  _atom_site_type_symbol
  _atom_site_label
  _atom_site_symmetry_multiplicity
  _atom_site_fract_x
  _atom_site_fract_y
  _atom_site_fract_z
  _atom_site_occupancy
  Ag  Ag1       1.0  0.25000  0.25000  0.51138  1.0000
  Ag  Ag2       1.0  0.75000  0.75000  0.48862  1.0000
  Ag  Ag3       1.0  0.25000  0.75000  0.51552  1.0000
  Ag  Ag4       1.0  0.75000  0.25000  0.48448  1.0000
  Ag  Ag5       1.0  0.74999  0.25000  0.07438  1.0000
  Ag  Ag6       1.0  0.25001  0.75000  0.92562  1.0000
  Ag  Ag7       1.0  0.75001  0.25000  0.24205  1.0000
  Ag  Ag8       1.0  0.25000  0.75000  0.75795  1.0000
  H   H1        1.0  0.95203  0.86061  0.04032  1.0000
  H   H2        1.0  0.54797  0.63939  0.04033  1.0000
  H   H3        1.0  0.04796  0.13940  0.95968  1.0000
  H   H4        1.0  0.45204  0.36061  0.95967  1.0000
  H   H5        1.0  0.51965  0.50246  0.58612  1.0000
  H   H6        1.0  0.98035  0.99755  0.58612  1.0000
  H   H7        1.0  0.48034  0.49754  0.41388  1.0000
  H   H8        1.0  0.01966  0.00245  0.41388  1.0000
  H   H9        1.0  0.33412  0.50581  0.63109  1.0000
  H   H10       1.0  0.16589  0.99419  0.63109  1.0000
  H   H11       1.0  0.66588  0.49419  0.36891  1.0000
  H   H12       1.0  0.83412  0.00581  0.36891  1.0000
  H   H13       1.0  0.97359  0.79279  0.31013  1.0000
  H   H14       1.0  0.52641  0.70721  0.31013  1.0000
  H   H15       1.0  0.02641  0.20721  0.68987  1.0000
  H   H16       1.0  0.47359  0.29279  0.68987  1.0000
  H   H17       1.0  0.17028  0.35724  0.20664  1.0000
  H   H18       1.0  0.32972  0.14276  0.20664  1.0000
  H   H19       1.0  0.82972  0.64276  0.79336  1.0000
  H   H20       1.0  0.67028  0.85724  0.79336  1.0000
  H   H21       1.0  0.12863  0.46751  0.06530  1.0000
  H   H22       1.0  0.37137  0.03249  0.06530  1.0000
  H   H23       1.0  0.87137  0.53249  0.93470  1.0000
  H   H24       1.0  0.62863  0.96751  0.93470  1.0000
  C   C1        1.0  0.98180  0.78492  0.17808  1.0000
  C   C2        1.0  0.51820  0.71508  0.17809  1.0000
  C   C3        1.0  0.01819  0.21508  0.82192  1.0000
  C   C4        1.0  0.48181  0.28492  0.82191  1.0000
  C   C5        1.0  0.00741  0.72177  0.25664  1.0000
  C   C6        1.0  0.49258  0.77823  0.25665  1.0000
  C   C7        1.0  0.99258  0.27823  0.74336  1.0000
  C   C8        1.0  0.50742  0.22177  0.74335  1.0000
  C   C9        1.0  0.07344  0.56950  0.26669  1.0000
  C   C10       1.0  0.42657  0.93050  0.26669  1.0000
  C   C11       1.0  0.92656  0.43049  0.73331  1.0000
  C   C12       1.0  0.57344  0.06950  0.73331  1.0000
  C   C13       1.0  0.11751  0.47658  0.19802  1.0000
  C   C14       1.0  0.38249  0.02342  0.19802  1.0000
  C   C15       1.0  0.88249  0.52342  0.80198  1.0000
  C   C16       1.0  0.61751  0.97658  0.80198  1.0000
  C   C17       1.0  0.09458  0.53760  0.11938  1.0000
  C   C18       1.0  0.40542  0.96240  0.11938  1.0000
  C   C19       1.0  0.90541  0.46240  0.88062  1.0000
  C   C20       1.0  0.59458  0.03759  0.88062  1.0000
  C   C21       1.0  0.02560  0.69125  0.10898  1.0000
  C   C22       1.0  0.47440  0.80875  0.10898  1.0000
  C   C23       1.0  0.97439  0.30874  0.89102  1.0000
  C   C24       1.0  0.52560  0.19125  0.89102  1.0000
  C   C25       1.0  0.90888  0.94789  0.16930  1.0000
  C   C26       1.0  0.59112  0.55211  0.16930  1.0000
  C   C27       1.0  0.09111  0.05211  0.83070  1.0000
  C   C28       1.0  0.40888  0.44789  0.83070  1.0000
  S   S1        1.0  0.08106  0.48962  0.36750  1.0000
  S   S2        1.0  0.41894  0.01039  0.36750  1.0000
  S   S3        1.0  0.91894  0.51039  0.63250  1.0000
  S   S4        1.0  0.58106  0.98961  0.63250  1.0000
  O   O1        1.0  0.26575  0.43344  0.38216  1.0000
  O   O2        1.0  0.23425  0.06656  0.38216  1.0000
  O   O3        1.0  0.73424  0.56656  0.61784  1.0000
  O   O4        1.0  0.76576  0.93344  0.61784  1.0000
  O   O5        1.0  0.03296  0.62204  0.42263  1.0000
  O   O6        1.0  0.46704  0.87796  0.42263  1.0000
  O   O7        1.0  0.96704  0.37796  0.57737  1.0000
  O   O8        1.0  0.53296  0.12204  0.57737  1.0000
  O   O9        1.0  0.94333  0.35593  0.36704  1.0000
  O   O10       1.0  0.55666  0.14407  0.36704  1.0000
  O   O11       1.0  0.05666  0.64408  0.63296  1.0000
  O   O12       1.0  0.44334  0.85593  0.63296  1.0000
  O   O13       1.0  0.87312  0.02284  0.23489  1.0000
  O   O14       1.0  0.62689  0.47716  0.23489  1.0000
  O   O15       1.0  0.12688  0.97716  0.76511  1.0000
  O   O16       1.0  0.37311  0.52284  0.76511  1.0000
  O   O17       1.0  0.88672  0.00238  0.09584  1.0000
  O   O18       1.0  0.61328  0.49763  0.09584  1.0000
  O   O19       1.0  0.11328  0.99763  0.90416  1.0000
  O   O20       1.0  0.38672  0.50237  0.90416  1.0000
  O   O21       1.0  0.00213  0.74878  0.03184  1.0000
  O   O22       1.0  0.49787  0.75122  0.03185  1.0000
  O   O23       1.0  0.99786  0.25122  0.96816  1.0000
  O   O24       1.0  0.50213  0.24878  0.96815  1.0000
  O   O25       1.0  0.38678  0.48746  0.57685  1.0000
  O   O26       1.0  0.11322  0.01254  0.57685  1.0000
  O   O27       1.0  0.61322  0.51254  0.42315  1.0000
  O   O28       1.0  0.88678  0.98746  0.42315  1.0000
