data_image0
_chemical_formula_structural       Ag4H32C28S4O30
_chemical_formula_sum              "Ag4 H32 C28 S4 O30"
_cell_length_a       8.50928
_cell_length_b       10.656
_cell_length_c       12.5656
_cell_angle_alpha    115.307
_cell_angle_beta     99.9693
_cell_angle_gamma    95.5132

_space_group_name_H-M_alt    "P 1"
_space_group_IT_number       1

loop_
  _space_group_symop_operation_xyz
  'x, y, z'

loop_
  _atom_site_type_symbol
  _atom_site_label
  _atom_site_symmetry_multiplicity
  _atom_site_fract_x
  _atom_site_fract_y
  _atom_site_fract_z
  _atom_site_occupancy
  Ag  Ag1       1.0  0.48104  0.62351  0.41011  1.0000
  Ag  Ag2       1.0  0.51896  0.37647  0.58986  1.0000
  Ag  Ag3       1.0  0.91760  0.96827  0.62077  1.0000
  Ag  Ag4       1.0  0.08243  0.03173  0.37922  1.0000
  H   H1        1.0  0.78560  0.03364  0.12928  1.0000
  H   H2        1.0  0.21438  0.96637  0.87074  1.0000
  H   H3        1.0  0.12198  0.80687  0.15061  1.0000
  H   H4        1.0  0.87803  0.19313  0.84939  1.0000
  H   H5        1.0  0.72225  0.45033  0.86858  1.0000
  H   H6        1.0  0.27772  0.54968  0.13140  1.0000
  H   H7        1.0  0.37916  0.65990  0.81061  1.0000
  H   H8        1.0  0.62082  0.34012  0.18938  1.0000
  H   H9        1.0  0.21533  0.79391  0.48907  1.0000
  H   H10       1.0  0.78469  0.20608  0.51093  1.0000
  H   H11       1.0  0.14688  0.62711  0.40692  1.0000
  H   H12       1.0  0.85314  0.37288  0.59308  1.0000
  H   H13       1.0  0.83973  0.38302  0.31557  1.0000
  H   H14       1.0  0.16026  0.61700  0.68443  1.0000
  H   H15       1.0  0.69465  0.41249  0.37714  1.0000
  H   H16       1.0  0.30535  0.58753  0.62288  1.0000
  H   H17       1.0  0.66515  0.11636  0.70082  1.0000
  H   H18       1.0  0.33488  0.88363  0.29918  1.0000
  H   H19       1.0  0.79228  0.22183  0.68169  1.0000
  H   H20       1.0  0.20776  0.77817  0.31831  1.0000
  H   H21       1.0  0.60284  0.81976  0.65403  1.0000
  H   H22       1.0  0.39715  0.18024  0.34599  1.0000
  H   H23       1.0  0.54841  0.98471  0.84685  1.0000
  H   H24       1.0  0.45156  0.01528  0.15316  1.0000
  H   H25       1.0  0.98037  0.70234  0.85189  1.0000
  H   H26       1.0  0.01962  0.29767  0.14813  1.0000
  H   H27       1.0  0.87841  0.70645  0.34631  1.0000
  H   H28       1.0  0.12162  0.29355  0.65367  1.0000
  H   H29       1.0  0.93732  0.51837  0.16232  1.0000
  H   H30       1.0  0.06269  0.48162  0.83765  1.0000
  H   H31       1.0  0.52152  0.80229  0.11716  1.0000
  H   H32       1.0  0.47846  0.19770  0.88284  1.0000
  C   C1        1.0  0.79641  0.74983  0.74084  1.0000
  C   C2        1.0  0.20358  0.25017  0.25918  1.0000
  C   C3        1.0  0.67469  0.83045  0.73932  1.0000
  C   C4        1.0  0.32529  0.16955  0.26070  1.0000
  C   C5        1.0  0.64442  0.92450  0.84695  1.0000
  C   C6        1.0  0.35555  0.07549  0.15306  1.0000
  C   C7        1.0  0.73637  0.94235  0.95866  1.0000
  C   C8        1.0  0.26361  0.05764  0.04135  1.0000
  C   C9        1.0  0.85861  0.86051  0.95952  1.0000
  C   C10       1.0  0.14138  0.13950  0.04050  1.0000
  C   C11       1.0  0.88666  0.76428  0.84972  1.0000
  C   C12       1.0  0.11334  0.23573  0.15030  1.0000
  C   C13       1.0  0.95436  0.87707  0.07529  1.0000
  C   C14       1.0  0.04564  0.12293  0.92471  1.0000
  C   C15       1.0  0.69952  0.76867  0.24206  1.0000
  C   C16       1.0  0.30049  0.23131  0.75792  1.0000
  C   C17       1.0  0.81567  0.68754  0.25585  1.0000
  C   C18       1.0  0.18436  0.31246  0.74413  1.0000
  C   C19       1.0  0.84746  0.58203  0.15445  1.0000
  C   C20       1.0  0.15255  0.41797  0.84552  1.0000
  C   C21       1.0  0.76320  0.55446  0.03748  1.0000
  C   C22       1.0  0.23679  0.44553  0.96249  1.0000
  C   C23       1.0  0.64299  0.63399  0.02407  1.0000
  C   C24       1.0  0.35700  0.36601  0.97591  1.0000
  C   C25       1.0  0.61308  0.74136  0.12786  1.0000
  C   C26       1.0  0.38692  0.25864  0.87214  1.0000
  C   C27       1.0  0.55252  0.60408  0.90178  1.0000
  C   C28       1.0  0.44746  0.39593  0.09820  1.0000
  S   S1        1.0  0.84073  0.63317  0.60458  1.0000
  S   S2        1.0  0.15927  0.36684  0.39544  1.0000
  S   S3        1.0  0.66441  0.90722  0.37183  1.0000
  S   S4        1.0  0.33561  0.09276  0.62816  1.0000
  O   O1        1.0  0.68065  0.54329  0.52314  1.0000
  O   O2        1.0  0.31935  0.45672  0.47687  1.0000
  O   O3        1.0  0.91850  0.71586  0.55352  1.0000
  O   O4        1.0  0.08150  0.28414  0.44650  1.0000
  O   O5        1.0  0.94737  0.54611  0.63619  1.0000
  O   O6        1.0  0.05262  0.45390  0.36382  1.0000
  O   O7        1.0  0.70589  0.03635  0.06117  1.0000
  O   O8        1.0  0.29409  0.96365  0.93884  1.0000
  O   O9        1.0  0.93275  0.96665  0.17415  1.0000
  O   O10       1.0  0.06725  0.03335  0.82587  1.0000
  O   O11       1.0  0.05986  0.79316  0.06694  1.0000
  O   O12       1.0  0.94015  0.20686  0.93307  1.0000
  O   O13       1.0  0.81304  0.02036  0.42858  1.0000
  O   O14       1.0  0.18699  0.97962  0.57143  1.0000
  O   O15       1.0  0.63932  0.84682  0.45553  1.0000
  O   O16       1.0  0.36070  0.15315  0.54446  1.0000
  O   O17       1.0  0.52441  0.95891  0.33060  1.0000
  O   O18       1.0  0.47562  0.04109  0.66941  1.0000
  O   O19       1.0  0.79734  0.45224  0.94123  1.0000
  O   O20       1.0  0.20264  0.54776  0.05874  1.0000
  O   O21       1.0  0.58332  0.50901  0.80884  1.0000
  O   O22       1.0  0.41665  0.49101  0.19114  1.0000
  O   O23       1.0  0.44374  0.68126  0.89834  1.0000
  O   O24       1.0  0.55625  0.31875  0.10166  1.0000
  O   O25       1.0  0.22380  0.70955  0.41660  1.0000
  O   O26       1.0  0.77622  0.29044  0.58341  1.0000
  O   O27       1.0  0.72145  0.35046  0.30066  1.0000
  O   O28       1.0  0.27853  0.64957  0.69935  1.0000
  O   O29       1.0  0.78336  0.15903  0.72195  1.0000
  O   O30       1.0  0.21668  0.84096  0.27805  1.0000
