data_image0
_chemical_formula_structural       Zn4H44C68N8O20
_chemical_formula_sum              "Zn4 H44 C68 N8 O20"
_cell_length_a       7.98019
_cell_length_b       11.5865
_cell_length_c       15.3935
_cell_angle_alpha    90
_cell_angle_beta     99.5909
_cell_angle_gamma    90

_space_group_name_H-M_alt    "P 1"
_space_group_IT_number       1

loop_
  _space_group_symop_operation_xyz
  'x, y, z'

loop_
  _atom_site_type_symbol
  _atom_site_label
  _atom_site_symmetry_multiplicity
  _atom_site_fract_x
  _atom_site_fract_y
  _atom_site_fract_z
  _atom_site_occupancy
  Zn  Zn1       1.0  0.09022  0.58967  0.25694  1.0000
  Zn  Zn2       1.0  0.40978  0.08968  0.24306  1.0000
  Zn  Zn3       1.0  0.90978  0.41032  0.74307  1.0000
  Zn  Zn4       1.0  0.59021  0.91032  0.75693  1.0000
  H   H1        1.0  0.99223  0.81631  0.28173  1.0000
  H   H2        1.0  0.50777  0.31631  0.21827  1.0000
  H   H3        1.0  0.00777  0.18369  0.71827  1.0000
  H   H4        1.0  0.49222  0.68369  0.78173  1.0000
  H   H5        1.0  0.83218  0.72106  0.25366  1.0000
  H   H6        1.0  0.66782  0.22106  0.24634  1.0000
  H   H7        1.0  0.16782  0.27894  0.74634  1.0000
  H   H8        1.0  0.33218  0.77894  0.75366  1.0000
  H   H9        1.0  0.92616  0.35331  0.30692  1.0000
  H   H10       1.0  0.57383  0.85331  0.19308  1.0000
  H   H11       1.0  0.07383  0.64669  0.69308  1.0000
  H   H12       1.0  0.42617  0.14670  0.80692  1.0000
  H   H13       1.0  0.94633  0.23607  0.44345  1.0000
  H   H14       1.0  0.55367  0.73607  0.05655  1.0000
  H   H15       1.0  0.05367  0.76393  0.55655  1.0000
  H   H16       1.0  0.44633  0.26393  0.94345  1.0000
  H   H17       1.0  0.12997  0.30473  0.58191  1.0000
  H   H18       1.0  0.37003  0.80473  0.91809  1.0000
  H   H19       1.0  0.87003  0.69527  0.41809  1.0000
  H   H20       1.0  0.62997  0.19527  0.08191  1.0000
  H   H21       1.0  0.34314  0.45313  0.65531  1.0000
  H   H22       1.0  0.15687  0.95313  0.84469  1.0000
  H   H23       1.0  0.65687  0.54687  0.34469  1.0000
  H   H24       1.0  0.84313  0.04687  0.15531  1.0000
  H   H25       1.0  0.50781  0.63016  0.64364  1.0000
  H   H26       1.0  0.99219  0.13016  0.85636  1.0000
  H   H27       1.0  0.49219  0.36984  0.35636  1.0000
  H   H28       1.0  0.00781  0.86984  0.14364  1.0000
  H   H29       1.0  0.58609  0.79871  0.55065  1.0000
  H   H30       1.0  0.91391  0.29871  0.94935  1.0000
  H   H31       1.0  0.41391  0.20129  0.44935  1.0000
  H   H32       1.0  0.08609  0.70129  0.05065  1.0000
  H   H33       1.0  0.56339  0.88555  0.39881  1.0000
  H   H34       1.0  0.93661  0.38555  0.10119  1.0000
  H   H35       1.0  0.43661  0.11445  0.60119  1.0000
  H   H36       1.0  0.06339  0.61445  0.89881  1.0000
  H   H37       1.0  0.37019  0.79479  0.27410  1.0000
  H   H38       1.0  0.12981  0.29479  0.22589  1.0000
  H   H39       1.0  0.62981  0.20521  0.72589  1.0000
  H   H40       1.0  0.87019  0.70521  0.77411  1.0000
  H   H41       1.0  0.19087  0.47369  0.99387  1.0000
  H   H42       1.0  0.30913  0.97369  0.50613  1.0000
  H   H43       1.0  0.80913  0.52631  0.00613  1.0000
  H   H44       1.0  0.69087  0.02631  0.49387  1.0000
  C   C1        1.0  0.20408  0.51314  0.43623  1.0000
  C   C2        1.0  0.29592  0.01314  0.06377  1.0000
  C   C3        1.0  0.79592  0.48687  0.56377  1.0000
  C   C4        1.0  0.70408  0.98686  0.93623  1.0000
  C   C5        1.0  0.01035  0.37941  0.36675  1.0000
  C   C6        1.0  0.48965  0.87941  0.13325  1.0000
  C   C7        1.0  0.98965  0.62059  0.63325  1.0000
  C   C8        1.0  0.51035  0.12059  0.86675  1.0000
  C   C9        1.0  0.02118  0.31436  0.44436  1.0000
  C   C10       1.0  0.47882  0.81436  0.05564  1.0000
  C   C11       1.0  0.97882  0.68564  0.55564  1.0000
  C   C12       1.0  0.52118  0.18564  0.94436  1.0000
  C   C13       1.0  0.12418  0.35192  0.52017  1.0000
  C   C14       1.0  0.37582  0.85192  0.97983  1.0000
  C   C15       1.0  0.87582  0.64808  0.47983  1.0000
  C   C16       1.0  0.62418  0.14808  0.02017  1.0000
  C   C17       1.0  0.21954  0.45429  0.51794  1.0000
  C   C18       1.0  0.28046  0.95429  0.98206  1.0000
  C   C19       1.0  0.78046  0.54571  0.48206  1.0000
  C   C20       1.0  0.71954  0.04571  0.01794  1.0000
  C   C21       1.0  0.33011  0.49976  0.59291  1.0000
  C   C22       1.0  0.16990  0.99976  0.90709  1.0000
  C   C23       1.0  0.66989  0.50024  0.40709  1.0000
  C   C24       1.0  0.83011  0.00024  0.09291  1.0000
  C   C25       1.0  0.42065  0.59883  0.58655  1.0000
  C   C26       1.0  0.07935  0.09883  0.91345  1.0000
  C   C27       1.0  0.57935  0.40117  0.41345  1.0000
  C   C28       1.0  0.92065  0.90117  0.08655  1.0000
  C   C29       1.0  0.40888  0.65986  0.50511  1.0000
  C   C30       1.0  0.09112  0.15986  0.99489  1.0000
  C   C31       1.0  0.59112  0.34015  0.49489  1.0000
  C   C32       1.0  0.90888  0.84014  0.00511  1.0000
  C   C33       1.0  0.50367  0.76039  0.49423  1.0000
  C   C34       1.0  0.99633  0.26039  0.00577  1.0000
  C   C35       1.0  0.49633  0.23961  0.50577  1.0000
  C   C36       1.0  0.00367  0.73961  0.99423  1.0000
  C   C37       1.0  0.49191  0.80894  0.41134  1.0000
  C   C38       1.0  0.00809  0.30894  0.08866  1.0000
  C   C39       1.0  0.50809  0.19106  0.58866  1.0000
  C   C40       1.0  0.99191  0.69106  0.91134  1.0000
  C   C41       1.0  0.38368  0.75839  0.34013  1.0000
  C   C42       1.0  0.11632  0.25838  0.15988  1.0000
  C   C43       1.0  0.61632  0.24161  0.65987  1.0000
  C   C44       1.0  0.88368  0.74161  0.84012  1.0000
  C   C45       1.0  0.30208  0.61598  0.42952  1.0000
  C   C46       1.0  0.19792  0.11598  0.07048  1.0000
  C   C47       1.0  0.69792  0.38402  0.57048  1.0000
  C   C48       1.0  0.80208  0.88402  0.92952  1.0000
  C   C49       1.0  0.34615  0.51214  0.15855  1.0000
  C   C50       1.0  0.15385  0.01214  0.34145  1.0000
  C   C51       1.0  0.65385  0.48786  0.84145  1.0000
  C   C52       1.0  0.84615  0.98786  0.65855  1.0000
  C   C53       1.0  0.42859  0.51063  0.07741  1.0000
  C   C54       1.0  0.07141  0.01063  0.42259  1.0000
  C   C55       1.0  0.57141  0.48937  0.92259  1.0000
  C   C56       1.0  0.92859  0.98937  0.57741  1.0000
  C   C57       1.0  0.60493  0.52478  0.08134  1.0000
  C   C58       1.0  0.89507  0.02478  0.41866  1.0000
  C   C59       1.0  0.39507  0.47522  0.91866  1.0000
  C   C60       1.0  0.10493  0.97522  0.58134  1.0000
  C   C61       1.0  0.32668  0.48698  0.99632  1.0000
  C   C62       1.0  0.17332  0.98698  0.50368  1.0000
  C   C63       1.0  0.67332  0.51302  0.00368  1.0000
  C   C64       1.0  0.82668  0.01302  0.49632  1.0000
  C   C65       1.0  0.72034  0.56754  0.16290  1.0000
  C   C66       1.0  0.77966  0.06754  0.33710  1.0000
  C   C67       1.0  0.27966  0.43246  0.83710  1.0000
  C   C68       1.0  0.22034  0.93246  0.66290  1.0000
  N   N1        1.0  0.09972  0.47584  0.36260  1.0000
  N   N2        1.0  0.40028  0.97584  0.13740  1.0000
  N   N3        1.0  0.90028  0.52416  0.63740  1.0000
  N   N4        1.0  0.59972  0.02416  0.86260  1.0000
  N   N5        1.0  0.29039  0.66562  0.34921  1.0000
  N   N6        1.0  0.20961  0.16562  0.15079  1.0000
  N   N7        1.0  0.70962  0.33438  0.65079  1.0000
  N   N8        1.0  0.79039  0.83438  0.84921  1.0000
  O   O1        1.0  0.21758  0.58023  0.15540  1.0000
  O   O2        1.0  0.28242  0.08023  0.34460  1.0000
  O   O3        1.0  0.78242  0.41977  0.84460  1.0000
  O   O4        1.0  0.71758  0.91977  0.65540  1.0000
  O   O5        1.0  0.40013  0.44470  0.22103  1.0000
  O   O6        1.0  0.09987  0.94470  0.27897  1.0000
  O   O7        1.0  0.59987  0.55530  0.77897  1.0000
  O   O8        1.0  0.90013  0.05530  0.72103  1.0000
  O   O9        1.0  0.66567  0.64930  0.20509  1.0000
  O   O10       1.0  0.83433  0.14930  0.29491  1.0000
  O   O11       1.0  0.33432  0.35070  0.79491  1.0000
  O   O12       1.0  0.16567  0.85070  0.70509  1.0000
  O   O13       1.0  0.86914  0.52275  0.17977  1.0000
  O   O14       1.0  0.63086  0.02276  0.32023  1.0000
  O   O15       1.0  0.13086  0.47724  0.82023  1.0000
  O   O16       1.0  0.36914  0.97725  0.67977  1.0000
  O   O17       1.0  0.95264  0.73459  0.28367  1.0000
  O   O18       1.0  0.54735  0.23459  0.21633  1.0000
  O   O19       1.0  0.04736  0.26541  0.71633  1.0000
  O   O20       1.0  0.45264  0.76541  0.78367  1.0000
