data_image0
_chemical_formula_structural       Cu4H12C20S4I4N12
_chemical_formula_sum              "Cu4 H12 C20 S4 I4 N12"
_cell_length_a       7.44356
_cell_length_b       10.3821
_cell_length_c       11.1208
_cell_angle_alpha    106.641
_cell_angle_beta     89.9999
_cell_angle_gamma    89.9972

_space_group_name_H-M_alt    "P 1"
_space_group_IT_number       1

loop_
  _space_group_symop_operation_xyz
  'x, y, z'

loop_
  _atom_site_type_symbol
  _atom_site_label
  _atom_site_symmetry_multiplicity
  _atom_site_fract_x
  _atom_site_fract_y
  _atom_site_fract_z
  _atom_site_occupancy
  Cu  Cu1       1.0  0.34346  0.04847  0.56212  1.0000
  Cu  Cu2       1.0  0.84349  0.95152  0.93788  1.0000
  Cu  Cu3       1.0  0.65652  0.95153  0.43788  1.0000
  Cu  Cu4       1.0  0.15651  0.04848  0.06212  1.0000
  H   H1        1.0  0.49495  0.24107  0.43789  1.0000
  H   H2        1.0  0.99496  0.75891  0.06212  1.0000
  H   H3        1.0  0.50505  0.75891  0.56210  1.0000
  H   H4        1.0  0.00505  0.24110  0.93789  1.0000
  H   H5        1.0  0.85250  0.32692  0.43493  1.0000
  H   H6        1.0  0.35250  0.67309  0.06503  1.0000
  H   H7        1.0  0.14751  0.67309  0.56508  1.0000
  H   H8        1.0  0.64751  0.32690  0.93495  1.0000
  H   H9        1.0  0.97696  0.16238  0.54181  1.0000
  H   H10       1.0  0.47697  0.83764  0.95817  1.0000
  H   H11       1.0  0.02304  0.83764  0.45821  1.0000
  H   H12       1.0  0.52303  0.16235  0.04181  1.0000
  C   C1        1.0  0.35132  0.26167  0.43918  1.0000
  C   C2        1.0  0.85132  0.73832  0.06082  1.0000
  C   C3        1.0  0.64868  0.73832  0.56081  1.0000
  C   C4        1.0  0.14867  0.26168  0.93919  1.0000
  C   C5        1.0  0.27944  0.35406  0.38231  1.0000
  C   C6        1.0  0.77944  0.64594  0.11769  1.0000
  C   C7        1.0  0.72056  0.64594  0.61768  1.0000
  C   C8        1.0  0.22056  0.35407  0.88232  1.0000
  C   C9        1.0  0.99670  0.30810  0.43634  1.0000
  C   C10       1.0  0.49670  0.69192  0.06363  1.0000
  C   C11       1.0  0.00331  0.69191  0.56366  1.0000
  C   C12       1.0  0.50330  0.30808  0.93636  1.0000
  C   C13       1.0  0.06505  0.21695  0.49524  1.0000
  C   C14       1.0  0.56506  0.78306  0.00474  1.0000
  C   C15       1.0  0.93495  0.78306  0.50476  1.0000
  C   C16       1.0  0.43494  0.21694  0.99525  1.0000
  C   C17       1.0  0.70191  0.06537  0.73032  1.0000
  C   C18       1.0  0.20192  0.93462  0.76970  1.0000
  C   C19       1.0  0.29810  0.93463  0.26968  1.0000
  C   C20       1.0  0.79807  0.06537  0.23032  1.0000
  S   S1        1.0  0.63988  0.13598  0.62258  1.0000
  S   S2        1.0  0.13991  0.86402  0.87743  1.0000
  S   S3        1.0  0.36010  0.86403  0.37742  1.0000
  S   S4        1.0  0.86008  0.13598  0.12257  1.0000
  I   I1        1.0  0.45076  0.46247  0.29500  1.0000
  I   I2        1.0  0.95072  0.53753  0.20502  1.0000
  I   I3        1.0  0.54925  0.53753  0.70499  1.0000
  I   I4        1.0  0.04926  0.46248  0.79500  1.0000
  N   N1        1.0  0.24348  0.19363  0.49653  1.0000
  N   N2        1.0  0.74350  0.80637  0.00347  1.0000
  N   N3        1.0  0.75653  0.80636  0.50347  1.0000
  N   N4        1.0  0.25650  0.19363  0.99653  1.0000
  N   N5        1.0  0.10387  0.37717  0.38008  1.0000
  N   N6        1.0  0.60387  0.62283  0.11990  1.0000
  N   N7        1.0  0.89614  0.62283  0.61991  1.0000
  N   N8        1.0  0.39613  0.37718  0.88010  1.0000
  N   N9        1.0  0.74786  0.01623  0.80886  1.0000
  N   N10       1.0  0.24785  0.98377  0.69114  1.0000
  N   N11       1.0  0.25216  0.98378  0.19113  1.0000
  N   N12       1.0  0.75215  0.01622  0.30887  1.0000
