data_image0
_chemical_formula_structural       Ca4H48C40O32
_chemical_formula_sum              "Ca4 H48 C40 O32"
_cell_length_a       7.74611
_cell_length_b       9.8915
_cell_length_c       15.795
_cell_angle_alpha    90.6459
_cell_angle_beta     90
_cell_angle_gamma    90

_space_group_name_H-M_alt    "P 1"
_space_group_IT_number       1

loop_
  _space_group_symop_operation_xyz
  'x, y, z'

loop_
  _atom_site_type_symbol
  _atom_site_label
  _atom_site_symmetry_multiplicity
  _atom_site_fract_x
  _atom_site_fract_y
  _atom_site_fract_z
  _atom_site_occupancy
  Ca  Ca1       1.0  0.45530  0.31091  0.63405  1.0000
  Ca  Ca2       1.0  0.95531  0.18908  0.36595  1.0000
  Ca  Ca3       1.0  0.54470  0.68908  0.36595  1.0000
  Ca  Ca4       1.0  0.04469  0.81091  0.63405  1.0000
  H   H1        1.0  0.27590  0.47146  0.50978  1.0000
  H   H2        1.0  0.77589  0.02854  0.49022  1.0000
  H   H3        1.0  0.72410  0.52854  0.49023  1.0000
  H   H4        1.0  0.22410  0.97146  0.50977  1.0000
  H   H5        1.0  0.20405  0.51231  0.60139  1.0000
  H   H6        1.0  0.70405  0.98769  0.39861  1.0000
  H   H7        1.0  0.79595  0.48768  0.39861  1.0000
  H   H8        1.0  0.29595  0.01231  0.60139  1.0000
  H   H9        1.0  0.36207  0.24875  0.45074  1.0000
  H   H10       1.0  0.86207  0.25126  0.54926  1.0000
  H   H11       1.0  0.63793  0.75126  0.54926  1.0000
  H   H12       1.0  0.13793  0.74874  0.45073  1.0000
  H   H13       1.0  0.53377  0.16180  0.47017  1.0000
  H   H14       1.0  0.03377  0.33820  0.52983  1.0000
  H   H15       1.0  0.46624  0.83821  0.52982  1.0000
  H   H16       1.0  0.96623  0.66180  0.47017  1.0000
  H   H17       1.0  0.93756  0.42677  0.69259  1.0000
  H   H18       1.0  0.43756  0.07323  0.30741  1.0000
  H   H19       1.0  0.06244  0.57323  0.30741  1.0000
  H   H20       1.0  0.56244  0.92676  0.69259  1.0000
  H   H21       1.0  0.86233  0.55422  0.76509  1.0000
  H   H22       1.0  0.36234  0.94579  0.23490  1.0000
  H   H23       1.0  0.13767  0.44578  0.23491  1.0000
  H   H24       1.0  0.63767  0.05422  0.76509  1.0000
  H   H25       1.0  0.50205  0.33324  0.87394  1.0000
  H   H26       1.0  0.00205  0.16677  0.12606  1.0000
  H   H27       1.0  0.49795  0.66677  0.12606  1.0000
  H   H28       1.0  0.99795  0.83324  0.87394  1.0000
  H   H29       1.0  0.56875  0.16682  0.98871  1.0000
  H   H30       1.0  0.06875  0.33318  0.01129  1.0000
  H   H31       1.0  0.43126  0.83318  0.01129  1.0000
  H   H32       1.0  0.93126  0.66682  0.98871  1.0000
  H   H33       1.0  0.85622  0.05317  0.99271  1.0000
  H   H34       1.0  0.35622  0.44684  0.00729  1.0000
  H   H35       1.0  0.14379  0.94684  0.00729  1.0000
  H   H36       1.0  0.64378  0.55317  0.99271  1.0000
  H   H37       1.0  0.00588  0.26646  0.76702  1.0000
  H   H38       1.0  0.50588  0.23354  0.23298  1.0000
  H   H39       1.0  0.99413  0.73354  0.23298  1.0000
  H   H40       1.0  0.49413  0.76646  0.76702  1.0000
  H   H41       1.0  0.36092  0.10064  0.86776  1.0000
  H   H42       1.0  0.86092  0.39935  0.13225  1.0000
  H   H43       1.0  0.63908  0.89935  0.13224  1.0000
  H   H44       1.0  0.13907  0.60065  0.86776  1.0000
  H   H45       1.0  0.24447  0.24051  0.82719  1.0000
  H   H46       1.0  0.74447  0.25949  0.17281  1.0000
  H   H47       1.0  0.75553  0.75949  0.17281  1.0000
  H   H48       1.0  0.25553  0.74051  0.82719  1.0000
  C   C1        1.0  0.74451  0.55317  0.64014  1.0000
  C   C2        1.0  0.24452  0.94682  0.35986  1.0000
  C   C3        1.0  0.25548  0.44682  0.35986  1.0000
  C   C4        1.0  0.75548  0.05318  0.64014  1.0000
  C   C5        1.0  0.82248  0.48121  0.71597  1.0000
  C   C6        1.0  0.32248  0.01879  0.28402  1.0000
  C   C7        1.0  0.17752  0.51879  0.28403  1.0000
  C   C8        1.0  0.67752  0.98120  0.71597  1.0000
  C   C9        1.0  0.74839  0.30638  0.81446  1.0000
  C   C10       1.0  0.24839  0.19363  0.18554  1.0000
  C   C11       1.0  0.25161  0.69362  0.18554  1.0000
  C   C12       1.0  0.75161  0.80638  0.81446  1.0000
  C   C13       1.0  0.62480  0.27990  0.87630  1.0000
  C   C14       1.0  0.12480  0.22010  0.12370  1.0000
  C   C15       1.0  0.37520  0.72010  0.12370  1.0000
  C   C16       1.0  0.87520  0.77990  0.87630  1.0000
  C   C17       1.0  0.66427  0.18751  0.93975  1.0000
  C   C18       1.0  0.16427  0.31250  0.06025  1.0000
  C   C19       1.0  0.33573  0.81250  0.06025  1.0000
  C   C20       1.0  0.83573  0.68750  0.93975  1.0000
  C   C21       1.0  0.82441  0.12406  0.94283  1.0000
  C   C22       1.0  0.32441  0.37595  0.05717  1.0000
  C   C23       1.0  0.17559  0.87594  0.05717  1.0000
  C   C24       1.0  0.67559  0.62406  0.94283  1.0000
  C   C25       1.0  0.94853  0.15449  0.88121  1.0000
  C   C26       1.0  0.44854  0.34551  0.11879  1.0000
  C   C27       1.0  0.05147  0.84551  0.11879  1.0000
  C   C28       1.0  0.55147  0.65449  0.88121  1.0000
  C   C29       1.0  0.91167  0.24543  0.81617  1.0000
  C   C30       1.0  0.41167  0.25458  0.18383  1.0000
  C   C31       1.0  0.08833  0.75458  0.18383  1.0000
  C   C32       1.0  0.58834  0.74542  0.81617  1.0000
  C   C33       1.0  0.24146  0.13031  0.83532  1.0000
  C   C34       1.0  0.74146  0.36968  0.16468  1.0000
  C   C35       1.0  0.75854  0.86968  0.16468  1.0000
  C   C36       1.0  0.25854  0.63032  0.83532  1.0000
  C   C37       1.0  0.24105  0.05808  0.74899  1.0000
  C   C38       1.0  0.74105  0.44192  0.25101  1.0000
  C   C39       1.0  0.75894  0.94192  0.25100  1.0000
  C   C40       1.0  0.25894  0.55807  0.74900  1.0000
  O   O1        1.0  0.63517  0.48961  0.59482  1.0000
  O   O2        1.0  0.13518  0.01038  0.40518  1.0000
  O   O3        1.0  0.36482  0.51039  0.40518  1.0000
  O   O4        1.0  0.86483  0.98961  0.59482  1.0000
  O   O5        1.0  0.79823  0.67095  0.62381  1.0000
  O   O6        1.0  0.29824  0.82905  0.37619  1.0000
  O   O7        1.0  0.20177  0.32905  0.37619  1.0000
  O   O8        1.0  0.70178  0.17095  0.62381  1.0000
  O   O9        1.0  0.69663  0.39070  0.74972  1.0000
  O   O10       1.0  0.19664  0.10930  0.25028  1.0000
  O   O11       1.0  0.30337  0.60930  0.25028  1.0000
  O   O12       1.0  0.80337  0.89070  0.74972  1.0000
  O   O13       1.0  0.10453  0.09068  0.89003  1.0000
  O   O14       1.0  0.60453  0.40932  0.10997  1.0000
  O   O15       1.0  0.89547  0.90932  0.10997  1.0000
  O   O16       1.0  0.39547  0.59068  0.89003  1.0000
  O   O17       1.0  0.31131  0.12165  0.68754  1.0000
  O   O18       1.0  0.81132  0.37834  0.31246  1.0000
  O   O19       1.0  0.68866  0.87834  0.31245  1.0000
  O   O20       1.0  0.18866  0.62166  0.68755  1.0000
  O   O21       1.0  0.18066  0.94026  0.74377  1.0000
  O   O22       1.0  0.68066  0.55973  0.25623  1.0000
  O   O23       1.0  0.81934  0.05972  0.25623  1.0000
  O   O24       1.0  0.31932  0.44027  0.74377  1.0000
  O   O25       1.0  0.22670  0.43372  0.56249  1.0000
  O   O26       1.0  0.72669  0.06628  0.43751  1.0000
  O   O27       1.0  0.77331  0.56628  0.43752  1.0000
  O   O28       1.0  0.27331  0.93372  0.56248  1.0000
  O   O29       1.0  0.43625  0.21225  0.49590  1.0000
  O   O30       1.0  0.93625  0.28775  0.50410  1.0000
  O   O31       1.0  0.56376  0.78776  0.50409  1.0000
  O   O32       1.0  0.06375  0.71225  0.49590  1.0000
