data_image0
_chemical_formula_structural       Ag8H24C28N8O20
_chemical_formula_sum              "Ag8 H24 C28 N8 O20"
_cell_length_a       7.62109
_cell_length_b       8.36601
_cell_length_c       15.2755
_cell_angle_alpha    101.907
_cell_angle_beta     89.9999
_cell_angle_gamma    90.0009

_space_group_name_H-M_alt    "P 1"
_space_group_IT_number       1

loop_
  _space_group_symop_operation_xyz
  'x, y, z'

loop_
  _atom_site_type_symbol
  _atom_site_label
  _atom_site_symmetry_multiplicity
  _atom_site_fract_x
  _atom_site_fract_y
  _atom_site_fract_z
  _atom_site_occupancy
  Ag  Ag1       1.0  0.33158  0.66315  0.29370  1.0000
  Ag  Ag2       1.0  0.83158  0.83685  0.20630  1.0000
  Ag  Ag3       1.0  0.66843  0.33685  0.70630  1.0000
  Ag  Ag4       1.0  0.16842  0.16315  0.79370  1.0000
  Ag  Ag5       1.0  0.04279  0.00763  0.41315  1.0000
  Ag  Ag6       1.0  0.54278  0.49238  0.08685  1.0000
  Ag  Ag7       1.0  0.95723  0.99237  0.58685  1.0000
  Ag  Ag8       1.0  0.45722  0.50763  0.91315  1.0000
  H   H1        1.0  0.58001  0.30396  0.34455  1.0000
  H   H2        1.0  0.08001  0.19603  0.15545  1.0000
  H   H3        1.0  0.41999  0.69604  0.65545  1.0000
  H   H4        1.0  0.91999  0.80396  0.84455  1.0000
  H   H5        1.0  0.05116  0.40356  0.44041  1.0000
  H   H6        1.0  0.55116  0.09642  0.05960  1.0000
  H   H7        1.0  0.94884  0.59644  0.55960  1.0000
  H   H8        1.0  0.44884  0.90359  0.94040  1.0000
  H   H9        1.0  0.12401  0.29829  0.57667  1.0000
  H   H10       1.0  0.62400  0.20169  0.92333  1.0000
  H   H11       1.0  0.87600  0.70170  0.42333  1.0000
  H   H12       1.0  0.37600  0.79831  0.07667  1.0000
  H   H13       1.0  0.42137  0.18457  0.59428  1.0000
  H   H14       1.0  0.92135  0.31542  0.90572  1.0000
  H   H15       1.0  0.57864  0.81543  0.40572  1.0000
  H   H16       1.0  0.07864  0.68458  0.09428  1.0000
  H   H17       1.0  0.13061  0.41292  0.29682  1.0000
  H   H18       1.0  0.63061  0.08708  0.20318  1.0000
  H   H19       1.0  0.86939  0.58708  0.70318  1.0000
  H   H20       1.0  0.36939  0.91293  0.79682  1.0000
  H   H21       1.0  0.31859  0.34132  0.24896  1.0000
  H   H22       1.0  0.81859  0.15868  0.25104  1.0000
  H   H23       1.0  0.68142  0.65868  0.75104  1.0000
  H   H24       1.0  0.18141  0.84132  0.74896  1.0000
  C   C1        1.0  0.47932  0.30111  0.39475  1.0000
  C   C2        1.0  0.97932  0.19888  0.10525  1.0000
  C   C3        1.0  0.52068  0.69889  0.60525  1.0000
  C   C4        1.0  0.02068  0.80111  0.89475  1.0000
  C   C5        1.0  0.31061  0.35951  0.38359  1.0000
  C   C6        1.0  0.81060  0.14048  0.11641  1.0000
  C   C7        1.0  0.68939  0.64049  0.61641  1.0000
  C   C8        1.0  0.18939  0.85951  0.88359  1.0000
  C   C9        1.0  0.18304  0.35946  0.44985  1.0000
  C   C10       1.0  0.68304  0.14053  0.05015  1.0000
  C   C11       1.0  0.81696  0.64054  0.55015  1.0000
  C   C12       1.0  0.31696  0.85947  0.94985  1.0000
  C   C13       1.0  0.22479  0.29957  0.52614  1.0000
  C   C14       1.0  0.72478  0.20042  0.97386  1.0000
  C   C15       1.0  0.77521  0.70043  0.47386  1.0000
  C   C16       1.0  0.27522  0.79959  0.02614  1.0000
  C   C17       1.0  0.39209  0.23874  0.53690  1.0000
  C   C18       1.0  0.89207  0.26125  0.96310  1.0000
  C   C19       1.0  0.60792  0.76126  0.46310  1.0000
  C   C20       1.0  0.10793  0.73875  0.03690  1.0000
  C   C21       1.0  0.51978  0.23923  0.47079  1.0000
  C   C22       1.0  0.01977  0.26076  0.02921  1.0000
  C   C23       1.0  0.48023  0.76077  0.52921  1.0000
  C   C24       1.0  0.98023  0.73924  0.97080  1.0000
  C   C25       1.0  0.69677  0.16592  0.47942  1.0000
  C   C26       1.0  0.19676  0.33407  0.02058  1.0000
  C   C27       1.0  0.30323  0.83408  0.52058  1.0000
  C   C28       1.0  0.80323  0.66592  0.97942  1.0000
  N   N1        1.0  0.26514  0.41538  0.30447  1.0000
  N   N2        1.0  0.76514  0.08462  0.19554  1.0000
  N   N3        1.0  0.73486  0.58462  0.69554  1.0000
  N   N4        1.0  0.23486  0.91539  0.80446  1.0000
  N   N5        1.0  0.32717  0.98694  0.23394  1.0000
  N   N6        1.0  0.82718  0.51306  0.26606  1.0000
  N   N7        1.0  0.67283  0.01307  0.76606  1.0000
  N   N8        1.0  0.17283  0.48694  0.73393  1.0000
  O   O1        1.0  0.74178  0.14729  0.55761  1.0000
  O   O2        1.0  0.24177  0.35271  0.94239  1.0000
  O   O3        1.0  0.25822  0.85271  0.44238  1.0000
  O   O4        1.0  0.75822  0.64729  0.05761  1.0000
  O   O5        1.0  0.78781  0.12405  0.40845  1.0000
  O   O6        1.0  0.28781  0.37594  0.09155  1.0000
  O   O7        1.0  0.21219  0.87595  0.59155  1.0000
  O   O8        1.0  0.71218  0.62405  0.90845  1.0000
  O   O9        1.0  0.43376  0.87125  0.24260  1.0000
  O   O10       1.0  0.93376  0.62875  0.25740  1.0000
  O   O11       1.0  0.56624  0.12875  0.75740  1.0000
  O   O12       1.0  0.06623  0.37125  0.74259  1.0000
  O   O13       1.0  0.16958  0.98469  0.25832  1.0000
  O   O14       1.0  0.66958  0.51531  0.24168  1.0000
  O   O15       1.0  0.83042  0.01531  0.74168  1.0000
  O   O16       1.0  0.33042  0.48469  0.75832  1.0000
  O   O17       1.0  0.38522  0.09989  0.19875  1.0000
  O   O18       1.0  0.88522  0.40011  0.30125  1.0000
  O   O19       1.0  0.61478  0.90011  0.80125  1.0000
  O   O20       1.0  0.11478  0.59990  0.69875  1.0000
