data_image0
_chemical_formula_structural       Ag4H24C28N4O8
_chemical_formula_sum              "Ag4 H24 C28 N4 O8"
_cell_length_a       7.69451
_cell_length_b       7.50427
_cell_length_c       11.65
_cell_angle_alpha    90.0001
_cell_angle_beta     90.0002
_cell_angle_gamma    89.9986

_space_group_name_H-M_alt    "P 1"
_space_group_IT_number       1

loop_
  _space_group_symop_operation_xyz
  'x, y, z'

loop_
  _atom_site_type_symbol
  _atom_site_label
  _atom_site_symmetry_multiplicity
  _atom_site_fract_x
  _atom_site_fract_y
  _atom_site_fract_z
  _atom_site_occupancy
  Ag  Ag1       1.0  0.64232  0.53350  0.23756  1.0000
  Ag  Ag2       1.0  0.85769  0.46651  0.73756  1.0000
  Ag  Ag3       1.0  0.35773  0.03351  0.26243  1.0000
  Ag  Ag4       1.0  0.14225  0.96649  0.76242  1.0000
  H   H1        1.0  0.42081  0.79215  0.75197  1.0000
  H   H2        1.0  0.07919  0.20785  0.25199  1.0000
  H   H3        1.0  0.57911  0.29216  0.74801  1.0000
  H   H4        1.0  0.92088  0.70786  0.24800  1.0000
  H   H5        1.0  0.73033  0.85172  0.69805  1.0000
  H   H6        1.0  0.76966  0.14829  0.19806  1.0000
  H   H7        1.0  0.26959  0.35170  0.80197  1.0000
  H   H8        1.0  0.23040  0.64831  0.30195  1.0000
  H   H9        1.0  0.87275  0.67342  0.54628  1.0000
  H   H10       1.0  0.62726  0.32659  0.04628  1.0000
  H   H11       1.0  0.12720  0.17339  0.95374  1.0000
  H   H12       1.0  0.37280  0.82661  0.45372  1.0000
  H   H13       1.0  0.39234  0.39327  0.48584  1.0000
  H   H14       1.0  0.10768  0.60673  0.98586  1.0000
  H   H15       1.0  0.60765  0.89329  0.01414  1.0000
  H   H16       1.0  0.89235  0.10671  0.51415  1.0000
  H   H17       1.0  0.68554  0.28880  0.41282  1.0000
  H   H18       1.0  0.81447  0.71121  0.91282  1.0000
  H   H19       1.0  0.31447  0.78877  0.08718  1.0000
  H   H20       1.0  0.18554  0.21122  0.58718  1.0000
  H   H21       1.0  0.85764  0.42759  0.42520  1.0000
  H   H22       1.0  0.64238  0.57240  0.92519  1.0000
  H   H23       1.0  0.14236  0.92759  0.07483  1.0000
  H   H24       1.0  0.35764  0.07241  0.57483  1.0000
  C   C1        1.0  0.48311  0.71640  0.68347  1.0000
  C   C2        1.0  0.01689  0.28358  0.18347  1.0000
  C   C3        1.0  0.51682  0.21639  0.81651  1.0000
  C   C4        1.0  0.98316  0.78362  0.31651  1.0000
  C   C5        1.0  0.65700  0.74638  0.65605  1.0000
  C   C6        1.0  0.84300  0.25362  0.15606  1.0000
  C   C7        1.0  0.34294  0.24636  0.84395  1.0000
  C   C8        1.0  0.15706  0.75366  0.34394  1.0000
  C   C9        1.0  0.73951  0.64402  0.57139  1.0000
  C   C10       1.0  0.76049  0.35599  0.07140  1.0000
  C   C11       1.0  0.26046  0.14398  0.92862  1.0000
  C   C12       1.0  0.23955  0.85602  0.42861  1.0000
  C   C13       1.0  0.64481  0.51376  0.51031  1.0000
  C   C14       1.0  0.85520  0.48623  0.01030  1.0000
  C   C15       1.0  0.35518  0.01374  0.98970  1.0000
  C   C16       1.0  0.14482  0.98625  0.48969  1.0000
  C   C17       1.0  0.46835  0.48782  0.53605  1.0000
  C   C18       1.0  0.03167  0.51216  0.03605  1.0000
  C   C19       1.0  0.53164  0.98781  0.96395  1.0000
  C   C20       1.0  0.96835  0.01218  0.46395  1.0000
  C   C21       1.0  0.38759  0.58815  0.62243  1.0000
  C   C22       1.0  0.11242  0.41183  0.12243  1.0000
  C   C23       1.0  0.61235  0.08814  0.87756  1.0000
  C   C24       1.0  0.88763  0.91186  0.37756  1.0000
  C   C25       1.0  0.19875  0.55950  0.64969  1.0000
  C   C26       1.0  0.30125  0.44050  0.14970  1.0000
  C   C27       1.0  0.80120  0.05948  0.85029  1.0000
  C   C28       1.0  0.69878  0.94052  0.35030  1.0000
  N   N1        1.0  0.72538  0.42054  0.42044  1.0000
  N   N2        1.0  0.77464  0.57946  0.92044  1.0000
  N   N3        1.0  0.27463  0.92052  0.07957  1.0000
  N   N4        1.0  0.22537  0.07947  0.57956  1.0000
  O   O1        1.0  0.12686  0.65740  0.72633  1.0000
  O   O2        1.0  0.37316  0.34259  0.22633  1.0000
  O   O3        1.0  0.87311  0.15742  0.77367  1.0000
  O   O4        1.0  0.62688  0.84259  0.27367  1.0000
  O   O5        1.0  0.11653  0.43451  0.59915  1.0000
  O   O6        1.0  0.38346  0.56549  0.09917  1.0000
  O   O7        1.0  0.88343  0.93448  0.90081  1.0000
  O   O8        1.0  0.61655  0.06552  0.40082  1.0000
