data_image0
_chemical_formula_structural       Cs4H12C44N24O8
_chemical_formula_sum              "Cs4 H12 C44 N24 O8"
_cell_length_a       6.80788
_cell_length_b       10.9432
_cell_length_c       19.8392
_cell_angle_alpha    104.89
_cell_angle_beta     92.5401
_cell_angle_gamma    100.852

_space_group_name_H-M_alt    "P 1"
_space_group_IT_number       1

loop_
  _space_group_symop_operation_xyz
  'x, y, z'

loop_
  _atom_site_type_symbol
  _atom_site_label
  _atom_site_symmetry_multiplicity
  _atom_site_fract_x
  _atom_site_fract_y
  _atom_site_fract_z
  _atom_site_occupancy
  Cs  Cs1       1.0  0.18880  0.82525  0.96782  1.0000
  Cs  Cs2       1.0  0.81120  0.17474  0.03218  1.0000
  Cs  Cs3       1.0  0.69517  0.32682  0.39968  1.0000
  Cs  Cs4       1.0  0.30483  0.67318  0.60032  1.0000
  H   H1        1.0  0.39393  0.29526  0.17594  1.0000
  H   H2        1.0  0.60607  0.70474  0.82406  1.0000
  H   H3        1.0  0.51437  0.20079  0.22033  1.0000
  H   H4        1.0  0.48563  0.79921  0.77967  1.0000
  H   H5        1.0  0.25083  0.20968  0.22957  1.0000
  H   H6        1.0  0.74918  0.79032  0.77043  1.0000
  H   H7        1.0  0.73673  0.86455  0.52839  1.0000
  H   H8        1.0  0.26327  0.13544  0.47161  1.0000
  H   H9        1.0  0.00256  0.86242  0.53033  1.0000
  H   H10       1.0  0.99744  0.13758  0.46967  1.0000
  H   H11       1.0  0.85160  0.80424  0.59304  1.0000
  H   H12       1.0  0.14840  0.19576  0.40696  1.0000
  C   C1        1.0  0.22397  0.75593  0.17275  1.0000
  C   C2        1.0  0.77602  0.24406  0.82725  1.0000
  C   C3        1.0  0.15022  0.48801  0.19440  1.0000
  C   C4        1.0  0.84978  0.51198  0.80560  1.0000
  C   C5        1.0  0.22321  0.51247  0.35179  1.0000
  C   C6        1.0  0.77679  0.48753  0.64821  1.0000
  C   C7        1.0  0.33210  0.80589  0.42919  1.0000
  C   C8        1.0  0.66790  0.19411  0.57081  1.0000
  C   C9        1.0  0.33663  0.95470  0.31603  1.0000
  C   C10       1.0  0.66336  0.04529  0.68397  1.0000
  C   C11       1.0  0.24075  0.72887  0.23798  1.0000
  C   C12       1.0  0.75924  0.27113  0.76202  1.0000
  C   C13       1.0  0.20798  0.60323  0.24825  1.0000
  C   C14       1.0  0.79202  0.39676  0.75175  1.0000
  C   C15       1.0  0.24019  0.61633  0.32139  1.0000
  C   C16       1.0  0.75980  0.38367  0.67861  1.0000
  C   C17       1.0  0.29218  0.75069  0.35639  1.0000
  C   C18       1.0  0.70782  0.24931  0.64361  1.0000
  C   C19       1.0  0.29264  0.82001  0.30470  1.0000
  C   C20       1.0  0.70735  0.17999  0.69530  1.0000
  C   C21       1.0  0.37284  0.20921  0.19560  1.0000
  C   C22       1.0  0.62716  0.79079  0.80440  1.0000
  C   C23       1.0  0.72281  0.82056  0.08266  1.0000
  C   C24       1.0  0.27719  0.17945  0.91734  1.0000
  C   C25       1.0  0.66371  0.54324  0.10236  1.0000
  C   C26       1.0  0.33628  0.45676  0.89763  1.0000
  C   C27       1.0  0.70537  0.56762  0.25859  1.0000
  C   C28       1.0  0.29462  0.43238  0.74141  1.0000
  C   C29       1.0  0.80943  0.85508  0.33794  1.0000
  C   C30       1.0  0.19056  0.14492  0.66206  1.0000
  C   C31       1.0  0.80578  0.01310  0.23238  1.0000
  C   C32       1.0  0.19423  0.98691  0.76762  1.0000
  C   C33       1.0  0.72818  0.78838  0.14684  1.0000
  C   C34       1.0  0.27182  0.21163  0.85315  1.0000
  C   C35       1.0  0.70003  0.66115  0.15511  1.0000
  C   C36       1.0  0.29996  0.33885  0.84488  1.0000
  C   C37       1.0  0.72415  0.67129  0.22817  1.0000
  C   C38       1.0  0.27583  0.32872  0.77183  1.0000
  C   C39       1.0  0.76875  0.80451  0.26494  1.0000
  C   C40       1.0  0.23124  0.19550  0.73506  1.0000
  C   C41       1.0  0.77028  0.87719  0.21483  1.0000
  C   C42       1.0  0.22972  0.12282  0.78517  1.0000
  C   C43       1.0  0.85413  0.81483  0.53947  1.0000
  C   C44       1.0  0.14587  0.18517  0.46053  1.0000
  N   N1        1.0  0.20846  0.77588  0.11785  1.0000
  N   N2        1.0  0.79154  0.22411  0.88215  1.0000
  N   N3        1.0  0.10213  0.39374  0.14841  1.0000
  N   N4        1.0  0.89788  0.60626  0.85159  1.0000
  N   N5        1.0  0.20799  0.42366  0.37520  1.0000
  N   N6        1.0  0.79202  0.57633  0.62480  1.0000
  N   N7        1.0  0.36286  0.85056  0.48983  1.0000
  N   N8        1.0  0.63714  0.14944  0.51017  1.0000
  N   N9        1.0  0.37314  0.06649  0.32369  1.0000
  N   N10       1.0  0.62684  0.93351  0.67631  1.0000
  N   N11       1.0  0.31194  0.09721  0.13275  1.0000
  N   N12       1.0  0.68806  0.90279  0.86725  1.0000
  N   N13       1.0  0.72141  0.84763  0.02932  1.0000
  N   N14       1.0  0.27859  0.15238  0.97068  1.0000
  N   N15       1.0  0.63760  0.44220  0.06130  1.0000
  N   N16       1.0  0.36241  0.55780  0.93870  1.0000
  N   N17       1.0  0.68825  0.48110  0.28384  1.0000
  N   N18       1.0  0.31175  0.51890  0.71616  1.0000
  N   N19       1.0  0.84647  0.89654  0.39864  1.0000
  N   N20       1.0  0.15353  0.10346  0.60136  1.0000
  N   N21       1.0  0.83374  0.12609  0.25038  1.0000
  N   N22       1.0  0.16627  0.87392  0.74962  1.0000
  N   N23       1.0  0.80533  0.68104  0.49281  1.0000
  N   N24       1.0  0.19467  0.31895  0.50719  1.0000
  O   O1        1.0  0.44748  0.05085  0.10231  1.0000
  O   O2        1.0  0.55252  0.94915  0.89769  1.0000
  O   O3        1.0  0.13093  0.05714  0.11282  1.0000
  O   O4        1.0  0.86907  0.94286  0.88718  1.0000
  O   O5        1.0  0.62605  0.62723  0.47663  1.0000
  O   O6        1.0  0.37395  0.37276  0.52337  1.0000
  O   O7        1.0  0.94625  0.62708  0.47371  1.0000
  O   O8        1.0  0.05375  0.37292  0.52629  1.0000
