data_image0
_chemical_formula_structural       Zn2H24C36N22O12
_chemical_formula_sum              "Zn2 H24 C36 N22 O12"
_cell_length_a       9.02382
_cell_length_b       12.4288
_cell_length_c       12.6455
_cell_angle_alpha    111.219
_cell_angle_beta     107.011
_cell_angle_gamma    100.974

_space_group_name_H-M_alt    "P 1"
_space_group_IT_number       1

loop_
  _space_group_symop_operation_xyz
  'x, y, z'

loop_
  _atom_site_type_symbol
  _atom_site_label
  _atom_site_symmetry_multiplicity
  _atom_site_fract_x
  _atom_site_fract_y
  _atom_site_fract_z
  _atom_site_occupancy
  Zn  Zn1       1.0  0.73224  0.17944  0.83919  1.0000
  Zn  Zn2       1.0  0.26776  0.82056  0.16081  1.0000
  H   H1        1.0  0.45110  0.15253  0.60461  1.0000
  H   H2        1.0  0.54891  0.84746  0.39539  1.0000
  H   H3        1.0  0.60568  0.47167  0.55105  1.0000
  H   H4        1.0  0.39432  0.52833  0.44895  1.0000
  H   H5        1.0  0.85798  0.55173  0.74673  1.0000
  H   H6        1.0  0.14201  0.44827  0.25327  1.0000
  H   H7        1.0  0.88982  0.42829  0.86253  1.0000
  H   H8        1.0  0.11017  0.57172  0.13747  1.0000
  H   H9        1.0  0.00966  0.20784  0.06348  1.0000
  H   H10       1.0  0.99033  0.79216  0.93652  1.0000
  H   H11       1.0  0.82703  0.95770  0.19553  1.0000
  H   H12       1.0  0.17297  0.04230  0.80447  1.0000
  H   H13       1.0  0.57935  0.85043  0.99391  1.0000
  H   H14       1.0  0.42065  0.14957  0.00608  1.0000
  H   H15       1.0  0.55434  0.93695  0.84285  1.0000
  H   H16       1.0  0.44566  0.06305  0.15714  1.0000
  H   H17       1.0  0.89351  0.67981  0.03210  1.0000
  H   H18       1.0  0.10650  0.32019  0.96790  1.0000
  H   H19       1.0  0.71934  0.72428  0.32246  1.0000
  H   H20       1.0  0.28067  0.27572  0.67754  1.0000
  H   H21       1.0  0.99211  0.88712  0.47154  1.0000
  H   H22       1.0  0.00789  0.11288  0.52847  1.0000
  H   H23       1.0  0.20507  0.93371  0.39085  1.0000
  H   H24       1.0  0.79493  0.06630  0.60915  1.0000
  C   C1        1.0  0.08855  0.15317  0.25725  1.0000
  C   C2        1.0  0.91145  0.84682  0.74274  1.0000
  C   C3        1.0  0.35558  0.25502  0.45475  1.0000
  C   C4        1.0  0.64442  0.74498  0.54525  1.0000
  C   C5        1.0  0.53873  0.24142  0.63441  1.0000
  C   C6        1.0  0.46127  0.75858  0.36559  1.0000
  C   C7        1.0  0.50900  0.30580  0.56409  1.0000
  C   C8        1.0  0.49100  0.69420  0.43591  1.0000
  C   C9        1.0  0.62586  0.41905  0.60324  1.0000
  C   C10       1.0  0.37413  0.58094  0.39676  1.0000
  C   C11       1.0  0.76453  0.46377  0.71136  1.0000
  C   C12       1.0  0.23547  0.53623  0.28864  1.0000
  C   C13       1.0  0.78335  0.39475  0.77673  1.0000
  C   C14       1.0  0.21665  0.60525  0.22327  1.0000
  C   C15       1.0  0.91680  0.12878  0.05051  1.0000
  C   C16       1.0  0.08320  0.87122  0.94948  1.0000
  C   C17       1.0  0.94004  0.08825  0.14222  1.0000
  C   C18       1.0  0.05996  0.91175  0.85778  1.0000
  C   C19       1.0  0.81584  0.98771  0.12351  1.0000
  C   C20       1.0  0.18416  0.01229  0.87649  1.0000
  C   C21       1.0  0.67770  0.92982  0.01309  1.0000
  C   C22       1.0  0.32229  0.07018  0.98691  1.0000
  C   C23       1.0  0.66360  0.97760  0.92796  1.0000
  C   C24       1.0  0.33640  0.02240  0.07204  1.0000
  C   C25       1.0  0.63261  0.59014  0.07716  1.0000
  C   C26       1.0  0.36740  0.40987  0.92285  1.0000
  C   C27       1.0  0.91081  0.72540  0.12839  1.0000
  C   C28       1.0  0.08920  0.27461  0.87161  1.0000
  C   C29       1.0  0.78588  0.69087  0.16594  1.0000
  C   C30       1.0  0.21413  0.30913  0.83407  1.0000
  C   C31       1.0  0.81419  0.75038  0.29116  1.0000
  C   C32       1.0  0.18582  0.24962  0.70885  1.0000
  C   C33       1.0  0.96460  0.84019  0.37337  1.0000
  C   C34       1.0  0.03541  0.15982  0.62664  1.0000
  C   C35       1.0  0.08363  0.86720  0.32895  1.0000
  C   C36       1.0  0.91638  0.13280  0.67106  1.0000
  N   N1        1.0  0.34358  0.29911  0.37041  1.0000
  N   N2        1.0  0.65642  0.70089  0.62959  1.0000
  N   N3        1.0  0.20698  0.24737  0.26981  1.0000
  N   N4        1.0  0.79301  0.75263  0.73019  1.0000
  N   N5        1.0  0.09207  0.12157  0.34937  1.0000
  N   N6        1.0  0.90793  0.87842  0.65062  1.0000
  N   N7        1.0  0.22705  0.17394  0.44995  1.0000
  N   N8        1.0  0.77295  0.82605  0.55004  1.0000
  N   N9        1.0  0.45560  0.98501  0.66857  1.0000
  N   N10       1.0  0.54440  0.01499  0.33143  1.0000
  N   N11       1.0  0.77584  0.36130  0.06777  1.0000
  N   N12       1.0  0.22416  0.63870  0.93223  1.0000
  N   N13       1.0  0.67282  0.28467  0.73850  1.0000
  N   N14       1.0  0.32718  0.71533  0.26150  1.0000
  N   N15       1.0  0.77939  0.07682  0.94677  1.0000
  N   N16       1.0  0.22061  0.92318  0.05322  1.0000
  N   N17       1.0  0.61532  0.53465  0.95845  1.0000
  N   N18       1.0  0.38468  0.46536  0.04155  1.0000
  N   N19       1.0  0.52010  0.55730  0.12046  1.0000
  N   N20       1.0  0.47990  0.44270  0.87954  1.0000
  N   N21       1.0  0.05735  0.81126  0.20844  1.0000
  N   N22       1.0  0.94265  0.18874  0.79156  1.0000
  O   O1        1.0  0.58760  0.97878  0.65214  1.0000
  O   O2        1.0  0.41240  0.02123  0.34785  1.0000
  O   O3        1.0  0.47077  0.08054  0.76386  1.0000
  O   O4        1.0  0.52924  0.91946  0.23614  1.0000
  O   O5        1.0  0.31994  0.90517  0.59890  1.0000
  O   O6        1.0  0.68006  0.09482  0.40110  1.0000
  O   O7        1.0  0.87268  0.34304  0.00820  1.0000
  O   O8        1.0  0.12732  0.65695  0.99180  1.0000
  O   O9        1.0  0.62870  0.29061  0.01255  1.0000
  O   O10       1.0  0.37130  0.70939  0.98745  1.0000
  O   O11       1.0  0.83230  0.44605  0.17375  1.0000
  O   O12       1.0  0.16771  0.55394  0.82625  1.0000
