data_image0
_chemical_formula_structural       Nd2H56C48N6O22
_chemical_formula_sum              "Nd2 H56 C48 N6 O22"
_cell_length_a       9.84583
_cell_length_b       10.8682
_cell_length_c       13.0064
_cell_angle_alpha    101.344
_cell_angle_beta     92.9444
_cell_angle_gamma    105.017

_space_group_name_H-M_alt    "P 1"
_space_group_IT_number       1

loop_
  _space_group_symop_operation_xyz
  'x, y, z'

loop_
  _atom_site_type_symbol
  _atom_site_label
  _atom_site_symmetry_multiplicity
  _atom_site_fract_x
  _atom_site_fract_y
  _atom_site_fract_z
  _atom_site_occupancy
  Nd  Nd1       1.0  0.76116  0.98311  0.50251  1.0000
  Nd  Nd2       1.0  0.23885  0.01689  0.49748  1.0000
  H   H1        1.0  0.86569  0.27287  0.28888  1.0000
  H   H2        1.0  0.13431  0.72713  0.71112  1.0000
  H   H3        1.0  0.89527  0.47881  0.21921  1.0000
  H   H4        1.0  0.10472  0.52121  0.78081  1.0000
  H   H5        1.0  0.10340  0.67069  0.30087  1.0000
  H   H6        1.0  0.89659  0.32932  0.69913  1.0000
  H   H7        1.0  0.27587  0.28729  0.15938  1.0000
  H   H8        1.0  0.72413  0.71272  0.84062  1.0000
  H   H9        1.0  0.26084  0.16195  0.04584  1.0000
  H   H10       1.0  0.73917  0.83806  0.95416  1.0000
  H   H11       1.0  0.65159  0.19044  0.97564  1.0000
  H   H12       1.0  0.34842  0.80957  0.02436  1.0000
  H   H13       1.0  0.73040  0.01111  0.23300  1.0000
  H   H14       1.0  0.26960  0.98889  0.76700  1.0000
  H   H15       1.0  0.14762  0.82353  0.17909  1.0000
  H   H16       1.0  0.85238  0.17646  0.82091  1.0000
  H   H17       1.0  0.12199  0.67582  0.99718  1.0000
  H   H18       1.0  0.87801  0.32416  0.00282  1.0000
  H   H19       1.0  0.87829  0.54847  0.91570  1.0000
  H   H20       1.0  0.12171  0.45153  0.08430  1.0000
  H   H21       1.0  0.52868  0.52802  0.09883  1.0000
  H   H22       1.0  0.47131  0.47198  0.90117  1.0000
  H   H23       1.0  0.54068  0.66674  0.04258  1.0000
  H   H24       1.0  0.45932  0.33326  0.95742  1.0000
  H   H25       1.0  0.41372  0.62697  0.25053  1.0000
  H   H26       1.0  0.58627  0.37302  0.74947  1.0000
  H   H27       1.0  0.31986  0.61888  0.12799  1.0000
  H   H28       1.0  0.68013  0.38112  0.87201  1.0000
  H   H29       1.0  0.43478  0.77039  0.19995  1.0000
  H   H30       1.0  0.56522  0.22960  0.80005  1.0000
  H   H31       1.0  0.30248  0.66334  0.58917  1.0000
  H   H32       1.0  0.69752  0.33666  0.41083  1.0000
  H   H33       1.0  0.42906  0.62269  0.50614  1.0000
  H   H34       1.0  0.57094  0.37731  0.49386  1.0000
  H   H35       1.0  0.05048  0.02021  0.10334  1.0000
  H   H36       1.0  0.94953  0.97979  0.89665  1.0000
  H   H37       1.0  0.02282  0.17752  0.11256  1.0000
  H   H38       1.0  0.97718  0.82248  0.88744  1.0000
  H   H39       1.0  0.07544  0.12965  0.22828  1.0000
  H   H40       1.0  0.92456  0.87035  0.77172  1.0000
  H   H41       1.0  0.37967  0.54670  0.72069  1.0000
  H   H42       1.0  0.62032  0.45330  0.27931  1.0000
  H   H43       1.0  0.52646  0.66591  0.69158  1.0000
  H   H44       1.0  0.47353  0.33409  0.30842  1.0000
  H   H45       1.0  0.50102  0.49784  0.63553  1.0000
  H   H46       1.0  0.49897  0.50216  0.36448  1.0000
  H   H47       1.0  0.80307  0.07969  0.06408  1.0000
  H   H48       1.0  0.19694  0.92032  0.93593  1.0000
  H   H49       1.0  0.71185  0.26690  0.56947  1.0000
  H   H50       1.0  0.28815  0.73310  0.43053  1.0000
  H   H51       1.0  0.57320  0.15568  0.58475  1.0000
  H   H52       1.0  0.42680  0.84432  0.41524  1.0000
  H   H53       1.0  0.67911  0.69960  0.44842  1.0000
  H   H54       1.0  0.32089  0.30039  0.55158  1.0000
  H   H55       1.0  0.65008  0.74147  0.34300  1.0000
  H   H56       1.0  0.34992  0.25852  0.65701  1.0000
  C   C1        1.0  0.02961  0.22651  0.43580  1.0000
  C   C2        1.0  0.97043  0.77349  0.56419  1.0000
  C   C3        1.0  0.05217  0.35171  0.39815  1.0000
  C   C4        1.0  0.94784  0.64829  0.60185  1.0000
  C   C5        1.0  0.95462  0.35854  0.31934  1.0000
  C   C6        1.0  0.04538  0.64147  0.68066  1.0000
  C   C7        1.0  0.16544  0.46525  0.43811  1.0000
  C   C8        1.0  0.83456  0.53475  0.56189  1.0000
  C   C9        1.0  0.97062  0.47201  0.28072  1.0000
  C   C10       1.0  0.02937  0.52800  0.71929  1.0000
  C   C11       1.0  0.08517  0.57763  0.32492  1.0000
  C   C12       1.0  0.91482  0.42238  0.67508  1.0000
  C   C13       1.0  0.45637  0.12379  0.16353  1.0000
  C   C14       1.0  0.54363  0.87622  0.83648  1.0000
  C   C15       1.0  0.24098  0.18086  0.12888  1.0000
  C   C16       1.0  0.75902  0.81915  0.87112  1.0000
  C   C17       1.0  0.62216  0.15398  0.04624  1.0000
  C   C18       1.0  0.37784  0.84602  0.95376  1.0000
  C   C19       1.0  0.54107  0.07307  0.22709  1.0000
  C   C20       1.0  0.45894  0.92693  0.77291  1.0000
  C   C21       1.0  0.66632  0.05541  0.18864  1.0000
  C   C22       1.0  0.33368  0.94459  0.81136  1.0000
  C   C23       1.0  0.50527  0.04092  0.33134  1.0000
  C   C24       1.0  0.49472  0.95908  0.66866  1.0000
  C   C25       1.0  0.94794  0.86357  0.29822  1.0000
  C   C26       1.0  0.05206  0.13644  0.70177  1.0000
  C   C27       1.0  0.92557  0.77460  0.19053  1.0000
  C   C28       1.0  0.07442  0.22540  0.80947  1.0000
  C   C29       1.0  0.79196  0.69751  0.13642  1.0000
  C   C30       1.0  0.20803  0.30249  0.86358  1.0000
  C   C31       1.0  0.04455  0.76501  0.13859  1.0000
  C   C32       1.0  0.95545  0.23498  0.86141  1.0000
  C   C33       1.0  0.03070  0.68408  0.03900  1.0000
  C   C34       1.0  0.96930  0.31591  0.96100  1.0000
  C   C35       1.0  0.89489  0.61296  0.99391  1.0000
  C   C36       1.0  0.10511  0.38703  0.00609  1.0000
  C   C37       1.0  0.53807  0.63307  0.11697  1.0000
  C   C38       1.0  0.46191  0.36693  0.88303  1.0000
  C   C39       1.0  0.42050  0.66470  0.17814  1.0000
  C   C40       1.0  0.57949  0.33529  0.82186  1.0000
  C   C41       1.0  0.36127  0.59087  0.56575  1.0000
  C   C42       1.0  0.63873  0.40913  0.43425  1.0000
  C   C43       1.0  0.08836  0.12327  0.14435  1.0000
  C   C44       1.0  0.91165  0.87673  0.85565  1.0000
  C   C45       1.0  0.44637  0.57326  0.65893  1.0000
  C   C46       1.0  0.55362  0.42674  0.34107  1.0000
  C   C47       1.0  0.70718  0.09426  0.09613  1.0000
  C   C48       1.0  0.29283  0.90575  0.90387  1.0000
  N   N1        1.0  0.18004  0.57425  0.40184  1.0000
  N   N2        1.0  0.81996  0.42575  0.59816  1.0000
  N   N3        1.0  0.49920  0.16867  0.07876  1.0000
  N   N4        1.0  0.50080  0.83133  0.92125  1.0000
  N   N5        1.0  0.77830  0.61854  0.04130  1.0000
  N   N6        1.0  0.22169  0.38146  0.95870  1.0000
  O   O1        1.0  0.07322  0.90079  0.34443  1.0000
  O   O2        1.0  0.92676  0.09924  0.65556  1.0000
  O   O3        1.0  0.41073  0.08252  0.37780  1.0000
  O   O4        1.0  0.58928  0.91748  0.62220  1.0000
  O   O5        1.0  0.61985  0.74355  0.41413  1.0000
  O   O6        1.0  0.38016  0.25644  0.58588  1.0000
  O   O7        1.0  0.90214  0.16699  0.44134  1.0000
  O   O8        1.0  0.09789  0.83299  0.55866  1.0000
  O   O9        1.0  0.67228  0.17245  0.57032  1.0000
  O   O10       1.0  0.32772  0.82755  0.42967  1.0000
  O   O11       1.0  0.13718  0.18799  0.45612  1.0000
  O   O12       1.0  0.86286  0.81203  0.54385  1.0000
  O   O13       1.0  0.57562  0.97245  0.36845  1.0000
  O   O14       1.0  0.42438  0.02754  0.63155  1.0000
  O   O15       1.0  0.25898  0.46561  0.51822  1.0000
  O   O16       1.0  0.74102  0.53440  0.48178  1.0000
  O   O17       1.0  0.32528  0.12255  0.18889  1.0000
  O   O18       1.0  0.67472  0.87745  0.81111  1.0000
  O   O19       1.0  0.84254  0.89554  0.33533  1.0000
  O   O20       1.0  0.15742  0.10445  0.66466  1.0000
  O   O21       1.0  0.67219  0.70168  0.18205  1.0000
  O   O22       1.0  0.32780  0.29831  0.81795  1.0000
