data_image0
_chemical_formula_structural       Sm2H56C48N6O22
_chemical_formula_sum              "Sm2 H56 C48 N6 O22"
_cell_length_a       9.76349
_cell_length_b       10.8313
_cell_length_c       13.0739
_cell_angle_alpha    101.392
_cell_angle_beta     93.0903
_cell_angle_gamma    104.583

_space_group_name_H-M_alt    "P 1"
_space_group_IT_number       1

loop_
  _space_group_symop_operation_xyz
  'x, y, z'

loop_
  _atom_site_type_symbol
  _atom_site_label
  _atom_site_symmetry_multiplicity
  _atom_site_fract_x
  _atom_site_fract_y
  _atom_site_fract_z
  _atom_site_occupancy
  Sm  Sm1       1.0  0.23851  0.01473  0.99796  1.0000
  Sm  Sm2       1.0  0.76149  0.98527  0.00204  1.0000
  H   H1        1.0  0.72421  0.00750  0.73310  1.0000
  H   H2        1.0  0.27580  0.99250  0.26690  1.0000
  H   H3        1.0  0.79319  0.07257  0.56300  1.0000
  H   H4        1.0  0.20682  0.92744  0.43700  1.0000
  H   H5        1.0  0.64097  0.18717  0.47741  1.0000
  H   H6        1.0  0.35903  0.81284  0.52259  1.0000
  H   H7        1.0  0.86491  0.26822  0.78721  1.0000
  H   H8        1.0  0.13509  0.73178  0.21279  1.0000
  H   H9        1.0  0.10147  0.66656  0.79896  1.0000
  H   H10       1.0  0.89853  0.33345  0.20104  1.0000
  H   H11       1.0  0.30002  0.66021  0.08871  1.0000
  H   H12       1.0  0.69999  0.33980  0.91129  1.0000
  H   H13       1.0  0.42878  0.61985  0.00699  1.0000
  H   H14       1.0  0.57122  0.38014  0.99301  1.0000
  H   H15       1.0  0.89405  0.47382  0.71671  1.0000
  H   H16       1.0  0.10595  0.52618  0.28329  1.0000
  H   H17       1.0  0.37636  0.54166  0.21928  1.0000
  H   H18       1.0  0.62364  0.45834  0.78072  1.0000
  H   H19       1.0  0.52453  0.66118  0.19218  1.0000
  H   H20       1.0  0.47548  0.33882  0.80782  1.0000
  H   H21       1.0  0.49998  0.49312  0.13551  1.0000
  H   H22       1.0  0.50002  0.50688  0.86449  1.0000
  H   H23       1.0  0.87043  0.31840  0.49749  1.0000
  H   H24       1.0  0.12957  0.68160  0.50251  1.0000
  H   H25       1.0  0.84829  0.17181  0.31604  1.0000
  H   H26       1.0  0.15170  0.82819  0.68396  1.0000
  H   H27       1.0  0.45781  0.33393  0.45639  1.0000
  H   H28       1.0  0.54219  0.66608  0.54361  1.0000
  H   H29       1.0  0.46926  0.47215  0.39958  1.0000
  H   H30       1.0  0.53075  0.52785  0.60043  1.0000
  H   H31       1.0  0.11440  0.44766  0.58015  1.0000
  H   H32       1.0  0.88559  0.55234  0.41985  1.0000
  H   H33       1.0  0.56848  0.22956  0.30212  1.0000
  H   H34       1.0  0.43151  0.77043  0.69788  1.0000
  H   H35       1.0  0.68143  0.38299  0.37240  1.0000
  H   H36       1.0  0.31857  0.61700  0.62760  1.0000
  H   H37       1.0  0.58644  0.37129  0.24960  1.0000
  H   H38       1.0  0.41356  0.62870  0.75040  1.0000
  H   H39       1.0  0.25804  0.29682  0.68074  1.0000
  H   H40       1.0  0.74196  0.70318  0.31926  1.0000
  H   H41       1.0  0.26528  0.18881  0.56097  1.0000
  H   H42       1.0  0.73472  0.81119  0.43903  1.0000
  H   H43       1.0  0.05603  0.02110  0.59518  1.0000
  H   H44       1.0  0.94397  0.97889  0.40482  1.0000
  H   H45       1.0  0.01225  0.17331  0.61142  1.0000
  H   H46       1.0  0.98775  0.82669  0.38858  1.0000
  H   H47       1.0  0.05826  0.11549  0.72339  1.0000
  H   H48       1.0  0.94175  0.88451  0.27661  1.0000
  H   H49       1.0  0.42718  0.83972  0.91947  1.0000
  H   H50       1.0  0.57282  0.16029  0.08053  1.0000
  H   H51       1.0  0.28485  0.73152  0.93060  1.0000
  H   H52       1.0  0.71515  0.26848  0.06940  1.0000
  H   H53       1.0  0.34994  0.25333  0.15474  1.0000
  H   H54       1.0  0.65006  0.74666  0.84526  1.0000
  H   H55       1.0  0.32265  0.29491  0.04931  1.0000
  H   H56       1.0  0.67734  0.70509  0.95069  1.0000
  C   C1        1.0  0.50308  0.04300  0.83455  1.0000
  C   C2        1.0  0.49693  0.95700  0.16545  1.0000
  C   C3        1.0  0.53612  0.07464  0.73027  1.0000
  C   C4        1.0  0.46389  0.92536  0.26973  1.0000
  C   C5        1.0  0.45106  0.12870  0.66908  1.0000
  C   C6        1.0  0.54894  0.87130  0.33091  1.0000
  C   C7        1.0  0.65989  0.05327  0.68971  1.0000
  C   C8        1.0  0.34012  0.94674  0.31029  1.0000
  C   C9        1.0  0.69876  0.09041  0.59678  1.0000
  C   C10       1.0  0.30125  0.90960  0.40322  1.0000
  C   C11       1.0  0.61336  0.15239  0.54862  1.0000
  C   C12       1.0  0.38665  0.84761  0.45138  1.0000
  C   C13       1.0  0.16441  0.46199  0.93716  1.0000
  C   C14       1.0  0.83559  0.53801  0.06284  1.0000
  C   C15       1.0  0.02946  0.22346  0.93565  1.0000
  C   C16       1.0  0.97053  0.77654  0.06435  1.0000
  C   C17       1.0  0.05153  0.34804  0.89701  1.0000
  C   C18       1.0  0.94847  0.65197  0.10299  1.0000
  C   C19       1.0  0.95375  0.35419  0.81768  1.0000
  C   C20       1.0  0.04625  0.64581  0.18232  1.0000
  C   C21       1.0  0.08355  0.57367  0.82332  1.0000
  C   C22       1.0  0.91645  0.42633  0.17669  1.0000
  C   C23       1.0  0.35983  0.58752  0.06558  1.0000
  C   C24       1.0  0.64018  0.41248  0.93442  1.0000
  C   C25       1.0  0.96946  0.46749  0.77871  1.0000
  C   C26       1.0  0.03054  0.53252  0.22129  1.0000
  C   C27       1.0  0.44441  0.56880  0.15865  1.0000
  C   C28       1.0  0.55559  0.43120  0.84135  1.0000
  C   C29       1.0  0.05180  0.13510  0.19865  1.0000
  C   C30       1.0  0.94819  0.86490  0.80135  1.0000
  C   C31       1.0  0.07209  0.22259  0.30635  1.0000
  C   C32       1.0  0.92791  0.77741  0.69365  1.0000
  C   C33       1.0  0.20549  0.30043  0.36116  1.0000
  C   C34       1.0  0.79451  0.69957  0.63884  1.0000
  C   C35       1.0  0.96323  0.31106  0.45655  1.0000
  C   C36       1.0  0.03677  0.68894  0.54344  1.0000
  C   C37       1.0  0.95126  0.23067  0.35726  1.0000
  C   C38       1.0  0.04874  0.76933  0.64274  1.0000
  C   C39       1.0  0.46090  0.36692  0.38205  1.0000
  C   C40       1.0  0.53909  0.63308  0.61795  1.0000
  C   C41       1.0  0.09906  0.38322  0.50234  1.0000
  C   C42       1.0  0.90093  0.61678  0.49766  1.0000
  C   C43       1.0  0.58055  0.33530  0.32242  1.0000
  C   C44       1.0  0.41945  0.66470  0.67759  1.0000
  C   C45       1.0  0.23503  0.19307  0.64081  1.0000
  C   C46       1.0  0.76497  0.80693  0.35919  1.0000
  C   C47       1.0  0.08140  0.12105  0.64303  1.0000
  C   C48       1.0  0.91860  0.87895  0.35697  1.0000
  N   N1        1.0  0.49218  0.17148  0.58359  1.0000
  N   N2        1.0  0.50782  0.82852  0.41641  1.0000
  N   N3        1.0  0.17843  0.57107  0.90091  1.0000
  N   N4        1.0  0.82157  0.42893  0.09909  1.0000
  N   N5        1.0  0.21735  0.37895  0.45594  1.0000
  N   N6        1.0  0.78265  0.62105  0.54406  1.0000
  O   O1        1.0  0.92624  0.09799  0.15171  1.0000
  O   O2        1.0  0.07376  0.90201  0.84830  1.0000
  O   O3        1.0  0.57878  0.97846  0.87219  1.0000
  O   O4        1.0  0.42122  0.02154  0.12780  1.0000
  O   O5        1.0  0.90120  0.16483  0.94136  1.0000
  O   O6        1.0  0.09880  0.83518  0.05863  1.0000
  O   O7        1.0  0.40533  0.08123  0.88042  1.0000
  O   O8        1.0  0.59468  0.91878  0.11958  1.0000
  O   O9        1.0  0.32606  0.82558  0.92891  1.0000
  O   O10       1.0  0.67394  0.17442  0.07109  1.0000
  O   O11       1.0  0.38205  0.25108  0.08448  1.0000
  O   O12       1.0  0.61794  0.74891  0.91551  1.0000
  O   O13       1.0  0.13794  0.18486  0.95677  1.0000
  O   O14       1.0  0.86207  0.81514  0.04323  1.0000
  O   O15       1.0  0.15917  0.10439  0.16222  1.0000
  O   O16       1.0  0.84083  0.89561  0.83778  1.0000
  O   O17       1.0  0.32217  0.13384  0.69844  1.0000
  O   O18       1.0  0.67783  0.86616  0.30156  1.0000
  O   O19       1.0  0.25803  0.46237  0.01745  1.0000
  O   O20       1.0  0.74196  0.53763  0.98255  1.0000
  O   O21       1.0  0.32693  0.29765  0.31651  1.0000
  O   O22       1.0  0.67307  0.70235  0.68350  1.0000
