data_image0
_chemical_formula_structural       Zn4H40C64N16O20
_chemical_formula_sum              "Zn4 H40 C64 N16 O20"
_cell_length_a       6.82555
_cell_length_b       7.21319
_cell_length_c       29.631
_cell_angle_alpha    90.0151
_cell_angle_beta     90
_cell_angle_gamma    90

_space_group_name_H-M_alt    "P 1"
_space_group_IT_number       1

loop_
  _space_group_symop_operation_xyz
  'x, y, z'

loop_
  _atom_site_type_symbol
  _atom_site_label
  _atom_site_symmetry_multiplicity
  _atom_site_fract_x
  _atom_site_fract_y
  _atom_site_fract_z
  _atom_site_occupancy
  Zn  Zn1       1.0  0.04164  0.05282  0.76944  1.0000
  Zn  Zn2       1.0  0.54164  0.44718  0.73056  1.0000
  Zn  Zn3       1.0  0.95836  0.94718  0.23056  1.0000
  Zn  Zn4       1.0  0.45836  0.55282  0.26944  1.0000
  H   H1        1.0  0.70149  0.86263  0.77725  1.0000
  H   H2        1.0  0.20149  0.63736  0.72275  1.0000
  H   H3        1.0  0.29851  0.13737  0.22275  1.0000
  H   H4        1.0  0.79851  0.36264  0.27725  1.0000
  H   H5        1.0  0.86244  0.75243  0.74455  1.0000
  H   H6        1.0  0.36244  0.74757  0.75544  1.0000
  H   H7        1.0  0.13756  0.24757  0.25545  1.0000
  H   H8        1.0  0.63756  0.25243  0.24455  1.0000
  H   H9        1.0  0.23007  0.12730  0.89880  1.0000
  H   H10       1.0  0.73006  0.37270  0.60119  1.0000
  H   H11       1.0  0.76994  0.87270  0.10119  1.0000
  H   H12       1.0  0.26993  0.62730  0.39881  1.0000
  H   H13       1.0  0.76283  0.17186  0.97624  1.0000
  H   H14       1.0  0.26283  0.32814  0.52376  1.0000
  H   H15       1.0  0.23717  0.82814  0.02376  1.0000
  H   H16       1.0  0.73717  0.67186  0.47624  1.0000
  H   H17       1.0  0.94599  0.02740  0.91334  1.0000
  H   H18       1.0  0.44599  0.47260  0.58666  1.0000
  H   H19       1.0  0.05401  0.97260  0.08666  1.0000
  H   H20       1.0  0.55401  0.52740  0.41334  1.0000
  H   H21       1.0  0.77337  0.92327  0.84435  1.0000
  H   H22       1.0  0.27337  0.57673  0.65565  1.0000
  H   H23       1.0  0.22663  0.07673  0.15565  1.0000
  H   H24       1.0  0.72663  0.42328  0.34435  1.0000
  H   H25       1.0  0.77253  0.34618  0.06158  1.0000
  H   H26       1.0  0.27252  0.15382  0.43842  1.0000
  H   H27       1.0  0.22748  0.65382  0.93842  1.0000
  H   H28       1.0  0.72748  0.84618  0.56158  1.0000
  H   H29       1.0  0.59826  0.44753  0.13065  1.0000
  H   H30       1.0  0.09826  0.05247  0.36935  1.0000
  H   H31       1.0  0.40174  0.55248  0.86935  1.0000
  H   H32       1.0  0.90174  0.94753  0.63065  1.0000
  H   H33       1.0  0.78168  0.58132  0.19526  1.0000
  H   H34       1.0  0.28168  0.91867  0.30474  1.0000
  H   H35       1.0  0.21832  0.41867  0.80474  1.0000
  H   H36       1.0  0.71832  0.08133  0.69526  1.0000
  H   H37       1.0  0.32175  0.49472  0.12340  1.0000
  H   H38       1.0  0.82175  0.00528  0.37660  1.0000
  H   H39       1.0  0.67825  0.50528  0.87660  1.0000
  H   H40       1.0  0.17825  0.99472  0.62340  1.0000
  C   C1        1.0  0.38044  0.97257  0.82435  1.0000
  C   C2        1.0  0.88044  0.52743  0.67565  1.0000
  C   C3        1.0  0.61956  0.02743  0.17565  1.0000
  C   C4        1.0  0.11956  0.47257  0.32435  1.0000
  C   C5        1.0  0.48923  0.02185  0.86662  1.0000
  C   C6        1.0  0.98923  0.47815  0.63338  1.0000
  C   C7        1.0  0.51077  0.97815  0.13338  1.0000
  C   C8        1.0  0.01077  0.52185  0.36662  1.0000
  C   C9        1.0  0.38614  0.10234  0.90236  1.0000
  C   C10       1.0  0.88614  0.39765  0.59764  1.0000
  C   C11       1.0  0.61386  0.89766  0.09764  1.0000
  C   C12       1.0  0.11386  0.60235  0.40236  1.0000
  C   C13       1.0  0.48212  0.15264  0.94231  1.0000
  C   C14       1.0  0.98211  0.34736  0.55769  1.0000
  C   C15       1.0  0.51789  0.84736  0.05769  1.0000
  C   C16       1.0  0.01788  0.65265  0.44231  1.0000
  C   C17       1.0  0.68594  0.12781  0.94584  1.0000
  C   C18       1.0  0.18594  0.37219  0.55416  1.0000
  C   C19       1.0  0.31406  0.87219  0.05416  1.0000
  C   C20       1.0  0.81406  0.62781  0.44584  1.0000
  C   C21       1.0  0.78853  0.04733  0.91025  1.0000
  C   C22       1.0  0.28852  0.45267  0.58975  1.0000
  C   C23       1.0  0.21147  0.95267  0.08976  1.0000
  C   C24       1.0  0.71147  0.54733  0.41025  1.0000
  C   C25       1.0  0.69137  0.99144  0.87110  1.0000
  C   C26       1.0  0.19137  0.50856  0.62890  1.0000
  C   C27       1.0  0.30863  0.00856  0.12890  1.0000
  C   C28       1.0  0.80863  0.49144  0.37110  1.0000
  C   C29       1.0  0.36929  0.23067  0.97995  1.0000
  C   C30       1.0  0.86929  0.26933  0.52005  1.0000
  C   C31       1.0  0.63071  0.76933  0.02005  1.0000
  C   C32       1.0  0.13071  0.73067  0.47995  1.0000
  C   C33       1.0  0.16974  0.35639  0.04780  1.0000
  C   C34       1.0  0.66974  0.14360  0.45220  1.0000
  C   C35       1.0  0.83026  0.64360  0.95220  1.0000
  C   C36       1.0  0.33026  0.85640  0.54780  1.0000
  C   C37       1.0  0.05975  0.41804  0.08759  1.0000
  C   C38       1.0  0.55975  0.08196  0.41241  1.0000
  C   C39       1.0  0.94025  0.58195  0.91241  1.0000
  C   C40       1.0  0.44025  0.91805  0.58759  1.0000
  C   C41       1.0  0.85444  0.40341  0.08991  1.0000
  C   C42       1.0  0.35444  0.09658  0.41009  1.0000
  C   C43       1.0  0.14556  0.59658  0.91009  1.0000
  C   C44       1.0  0.64556  0.90342  0.58991  1.0000
  C   C45       1.0  0.75667  0.46185  0.12867  1.0000
  C   C46       1.0  0.25667  0.03815  0.37133  1.0000
  C   C47       1.0  0.24333  0.53815  0.87133  1.0000
  C   C48       1.0  0.74333  0.96185  0.62867  1.0000
  C   C49       1.0  0.85953  0.53650  0.16510  1.0000
  C   C50       1.0  0.35953  0.96350  0.33490  1.0000
  C   C51       1.0  0.14047  0.46350  0.83490  1.0000
  C   C52       1.0  0.64047  0.03650  0.66510  1.0000
  C   C53       1.0  0.06443  0.54683  0.16327  1.0000
  C   C54       1.0  0.56442  0.95317  0.33673  1.0000
  C   C55       1.0  0.93557  0.45317  0.83673  1.0000
  C   C56       1.0  0.43558  0.04683  0.66327  1.0000
  C   C57       1.0  0.16309  0.48725  0.12471  1.0000
  C   C58       1.0  0.66308  0.01275  0.37529  1.0000
  C   C59       1.0  0.83691  0.51275  0.87529  1.0000
  C   C60       1.0  0.33692  0.98726  0.62471  1.0000
  C   C61       1.0  0.18224  0.60499  0.20298  1.0000
  C   C62       1.0  0.68224  0.89501  0.29702  1.0000
  C   C63       1.0  0.81776  0.39501  0.79702  1.0000
  C   C64       1.0  0.31776  0.10499  0.70298  1.0000
  N   N1        1.0  0.17142  0.23010  0.97697  1.0000
  N   N2        1.0  0.67142  0.26990  0.52303  1.0000
  N   N3        1.0  0.82858  0.76990  0.02303  1.0000
  N   N4        1.0  0.32858  0.73010  0.47697  1.0000
  N   N5        1.0  0.06994  0.29464  0.01132  1.0000
  N   N6        1.0  0.56994  0.20536  0.48867  1.0000
  N   N7        1.0  0.93006  0.70536  0.98867  1.0000
  N   N8        1.0  0.43006  0.79465  0.51133  1.0000
  N   N9        1.0  0.36798  0.36611  0.04971  1.0000
  N   N10       1.0  0.86798  0.13389  0.45029  1.0000
  N   N11       1.0  0.63202  0.63389  0.95029  1.0000
  N   N12       1.0  0.13202  0.86611  0.54971  1.0000
  N   N13       1.0  0.46902  0.30281  0.01537  1.0000
  N   N14       1.0  0.96902  0.19719  0.48463  1.0000
  N   N15       1.0  0.53098  0.69719  0.98463  1.0000
  N   N16       1.0  0.03098  0.80281  0.51537  1.0000
  O   O1        1.0  0.84148  0.85243  0.76755  1.0000
  O   O2        1.0  0.34148  0.64757  0.73245  1.0000
  O   O3        1.0  0.15852  0.14758  0.23245  1.0000
  O   O4        1.0  0.65852  0.35243  0.26755  1.0000
  O   O5        1.0  0.46656  0.88892  0.79239  1.0000
  O   O6        1.0  0.96656  0.61108  0.70761  1.0000
  O   O7        1.0  0.53344  0.11108  0.20761  1.0000
  O   O8        1.0  0.03344  0.38892  0.29239  1.0000
  O   O9        1.0  0.19898  0.02099  0.82347  1.0000
  O   O10       1.0  0.69898  0.47900  0.67653  1.0000
  O   O11       1.0  0.80102  0.97901  0.17653  1.0000
  O   O12       1.0  0.30102  0.52100  0.32347  1.0000
  O   O13       1.0  0.12196  0.72457  0.23152  1.0000
  O   O14       1.0  0.62196  0.77543  0.26848  1.0000
  O   O15       1.0  0.87804  0.27543  0.76848  1.0000
  O   O16       1.0  0.37804  0.22457  0.73152  1.0000
  O   O17       1.0  0.34622  0.52230  0.20856  1.0000
  O   O18       1.0  0.84622  0.97770  0.29144  1.0000
  O   O19       1.0  0.65378  0.47770  0.79144  1.0000
  O   O20       1.0  0.15378  0.02230  0.70856  1.0000
