data_image0
_chemical_formula_structural       Mn3H24C30N42
_chemical_formula_sum              "Mn3 H24 C30 N42"
_cell_length_a       8.3295
_cell_length_b       11.609
_cell_length_c       11.632
_cell_angle_alpha    90.4958
_cell_angle_beta     92.1119
_cell_angle_gamma    98.7497

_space_group_name_H-M_alt    "P 1"
_space_group_IT_number       1

loop_
  _space_group_symop_operation_xyz
  'x, y, z'

loop_
  _atom_site_type_symbol
  _atom_site_label
  _atom_site_symmetry_multiplicity
  _atom_site_fract_x
  _atom_site_fract_y
  _atom_site_fract_z
  _atom_site_occupancy
  Mn  Mn1       1.0  0.50649  0.52011  0.85593  1.0000
  Mn  Mn2       1.0  0.49272  0.47994  0.14663  1.0000
  Mn  Mn3       1.0  0.99968  0.49979  0.49780  1.0000
  H   H1        1.0  0.13138  0.46044  0.89898  1.0000
  H   H2        1.0  0.86847  0.53968  0.10089  1.0000
  H   H3        1.0  0.88751  0.32050  0.83079  1.0000
  H   H4        1.0  0.11248  0.67963  0.16894  1.0000
  H   H5        1.0  0.21670  0.11000  0.68517  1.0000
  H   H6        1.0  0.78361  0.89016  0.31479  1.0000
  H   H7        1.0  0.44571  0.25896  0.75911  1.0000
  H   H8        1.0  0.55448  0.74124  0.24097  1.0000
  H   H9        1.0  0.55541  0.79446  0.88139  1.0000
  H   H10       1.0  0.44459  0.20549  0.11874  1.0000
  H   H11       1.0  0.77629  0.96503  0.89536  1.0000
  H   H12       1.0  0.22374  0.03496  0.10452  1.0000
  H   H13       1.0  0.12066  0.72493  0.85612  1.0000
  H   H14       1.0  0.87936  0.27499  0.14353  1.0000
  H   H15       1.0  0.88528  0.56447  0.84329  1.0000
  H   H16       1.0  0.11455  0.43547  0.15644  1.0000
  H   H17       1.0  0.95345  0.23790  0.44447  1.0000
  H   H18       1.0  0.04666  0.76185  0.55529  1.0000
  H   H19       1.0  0.11265  0.07964  0.39345  1.0000
  H   H20       1.0  0.88756  0.92004  0.60675  1.0000
  H   H21       1.0  0.54863  0.31704  0.49310  1.0000
  H   H22       1.0  0.45140  0.68279  0.50733  1.0000
  H   H23       1.0  0.37062  0.46300  0.54352  1.0000
  H   H24       1.0  0.62920  0.53687  0.45658  1.0000
  C   C1        1.0  0.14460  0.38207  0.84995  1.0000
  C   C2        1.0  0.85537  0.61808  0.14990  1.0000
  C   C3        1.0  0.00922  0.30453  0.81182  1.0000
  C   C4        1.0  0.99082  0.69558  0.18798  1.0000
  C   C5        1.0  0.03380  0.20531  0.74955  1.0000
  C   C6        1.0  0.96639  0.79480  0.25031  1.0000
  C   C7        1.0  0.19334  0.18665  0.73243  1.0000
  C   C8        1.0  0.80689  0.81353  0.26747  1.0000
  C   C9        1.0  0.32053  0.26967  0.77323  1.0000
  C   C10       1.0  0.67963  0.73054  0.22676  1.0000
  C   C11       1.0  0.68212  0.78201  0.87759  1.0000
  C   C12       1.0  0.31789  0.21793  0.12252  1.0000
  C   C13       1.0  0.80495  0.87723  0.88526  1.0000
  C   C14       1.0  0.19506  0.12272  0.11472  1.0000
  C   C15       1.0  0.96664  0.85827  0.87792  1.0000
  C   C16       1.0  0.03336  0.14165  0.12200  1.0000
  C   C17       1.0  0.99733  0.74382  0.86272  1.0000
  C   C18       1.0  0.00267  0.25610  0.13713  1.0000
  C   C19       1.0  0.86615  0.65436  0.85649  1.0000
  C   C20       1.0  0.13376  0.34557  0.14342  1.0000
  C   C21       1.0  0.08536  0.25180  0.45418  1.0000
  C   C22       1.0  0.91474  0.74793  0.54566  1.0000
  C   C23       1.0  0.17326  0.16414  0.42566  1.0000
  C   C24       1.0  0.82690  0.83560  0.57441  1.0000
  C   C25       1.0  0.34299  0.18758  0.43749  1.0000
  C   C26       1.0  0.65717  0.81227  0.56266  1.0000
  C   C27       1.0  0.41711  0.29632  0.48109  1.0000
  C   C28       1.0  0.58293  0.70352  0.51912  1.0000
  C   C29       1.0  0.31796  0.37760  0.50842  1.0000
  C   C30       1.0  0.68199  0.62226  0.49158  1.0000
  N   N1        1.0  0.61562  0.42137  0.99549  1.0000
  N   N2        1.0  0.38332  0.57873  0.00556  1.0000
  N   N3        1.0  0.64669  0.32494  0.97628  1.0000
  N   N4        1.0  0.35286  0.67536  0.02460  1.0000
  N   N5        1.0  0.67791  0.23213  0.95642  1.0000
  N   N6        1.0  0.32218  0.76832  0.04446  1.0000
  N   N7        1.0  0.37486  0.62411  0.74071  1.0000
  N   N8        1.0  0.62372  0.37757  0.26012  1.0000
  N   N9        1.0  0.24117  0.59509  0.70080  1.0000
  N   N10       1.0  0.75807  0.40561  0.29925  1.0000
  N   N11       1.0  0.10676  0.56688  0.66365  1.0000
  N   N12       1.0  0.89318  0.43325  0.33558  1.0000
  N   N13       1.0  0.64365  0.43509  0.73350  1.0000
  N   N14       1.0  0.35866  0.56519  0.26636  1.0000
  N   N15       1.0  0.72592  0.41326  0.65847  1.0000
  N   N16       1.0  0.27482  0.58618  0.34086  1.0000
  N   N17       1.0  0.80587  0.38711  0.58278  1.0000
  N   N18       1.0  0.19330  0.61157  0.41600  1.0000
  N   N19       1.0  0.29866  0.36766  0.82993  1.0000
  N   N20       1.0  0.70140  0.63253  0.17007  1.0000
  N   N21       1.0  0.90873  0.12197  0.70184  1.0000
  N   N22       1.0  0.09150  0.87806  0.29804  1.0000
  N   N23       1.0  0.76609  0.13990  0.70081  1.0000
  N   N24       1.0  0.23409  0.86003  0.29925  1.0000
  N   N25       1.0  0.62900  0.14065  0.69078  1.0000
  N   N26       1.0  0.37113  0.85914  0.30946  1.0000
  N   N27       1.0  0.71053  0.67142  0.86405  1.0000
  N   N28       1.0  0.28940  0.32850  0.13608  1.0000
  N   N29       1.0  0.08693  0.95671  0.88508  1.0000
  N   N30       1.0  0.91309  0.04324  0.11487  1.0000
  N   N31       1.0  0.23126  0.94867  0.87101  1.0000
  N   N32       1.0  0.76876  0.05125  0.12894  1.0000
  N   N33       1.0  0.36866  0.95921  0.85906  1.0000
  N   N34       1.0  0.63137  0.04079  0.14092  1.0000
  N   N35       1.0  0.15497  0.35763  0.49390  1.0000
  N   N36       1.0  0.84501  0.64220  0.50576  1.0000
  N   N37       1.0  0.42808  0.09810  0.40470  1.0000
  N   N38       1.0  0.57214  0.90179  0.59541  1.0000
  N   N39       1.0  0.57770  0.11200  0.40640  1.0000
  N   N40       1.0  0.42250  0.88795  0.59362  1.0000
  N   N41       1.0  0.71412  0.10795  0.40208  1.0000
  N   N42       1.0  0.28608  0.89203  0.59776  1.0000
