data_image0
_chemical_formula_structural       Cd2H30C44S2N10O10
_chemical_formula_sum              "Cd2 H30 C44 S2 N10 O10"
_cell_length_a       9.46367
_cell_length_b       10.0556
_cell_length_c       11.28
_cell_angle_alpha    70.8144
_cell_angle_beta     85.9025
_cell_angle_gamma    86.2364

_space_group_name_H-M_alt    "P 1"
_space_group_IT_number       1

loop_
  _space_group_symop_operation_xyz
  'x, y, z'

loop_
  _atom_site_type_symbol
  _atom_site_label
  _atom_site_symmetry_multiplicity
  _atom_site_fract_x
  _atom_site_fract_y
  _atom_site_fract_z
  _atom_site_occupancy
  Cd  Cd1       1.0  0.73913  0.17755  0.48692  1.0000
  Cd  Cd2       1.0  0.26086  0.82246  0.51308  1.0000
  H   H1        1.0  0.83599  0.89564  0.47723  1.0000
  H   H2        1.0  0.16401  0.10436  0.52277  1.0000
  H   H3        1.0  0.66606  0.90847  0.47967  1.0000
  H   H4        1.0  0.33394  0.09154  0.52033  1.0000
  H   H5        1.0  0.14473  0.10713  0.14085  1.0000
  H   H6        1.0  0.85527  0.89287  0.85916  1.0000
  H   H7        1.0  0.04327  0.29377  0.95289  1.0000
  H   H8        1.0  0.95674  0.70622  0.04711  1.0000
  H   H9        1.0  0.46841  0.41086  0.45214  1.0000
  H   H10       1.0  0.53159  0.58914  0.54786  1.0000
  H   H11       1.0  0.36859  0.62749  0.29254  1.0000
  H   H12       1.0  0.63141  0.37251  0.70746  1.0000
  H   H13       1.0  0.66270  0.78105  0.70611  1.0000
  H   H14       1.0  0.33729  0.21894  0.29390  1.0000
  H   H15       1.0  0.85225  0.61727  0.65820  1.0000
  H   H16       1.0  0.14774  0.38273  0.34180  1.0000
  H   H17       1.0  0.02511  0.31726  0.74885  1.0000
  H   H18       1.0  0.97489  0.68275  0.25115  1.0000
  H   H19       1.0  0.05138  0.46074  0.60847  1.0000
  H   H20       1.0  0.94862  0.53926  0.39153  1.0000
  H   H21       1.0  0.01709  0.06060  0.34939  1.0000
  H   H22       1.0  0.98291  0.93940  0.65062  1.0000
  H   H23       1.0  0.52528  0.90105  0.89884  1.0000
  H   H24       1.0  0.47472  0.09894  0.10115  1.0000
  H   H25       1.0  0.32615  0.84170  0.07064  1.0000
  H   H26       1.0  0.67384  0.15830  0.92936  1.0000
  H   H27       1.0  0.09661  0.97162  0.02609  1.0000
  H   H28       1.0  0.90340  0.02838  0.97392  1.0000
  H   H29       1.0  0.48034  0.69676  0.06984  1.0000
  H   H30       1.0  0.51966  0.30325  0.93016  1.0000
  C   C1        1.0  0.40140  0.06928  0.77568  1.0000
  C   C2        1.0  0.59859  0.93072  0.22432  1.0000
  C   C3        1.0  0.95778  0.28162  0.58517  1.0000
  C   C4        1.0  0.04222  0.71838  0.41483  1.0000
  C   C5        1.0  0.80982  0.32372  0.18857  1.0000
  C   C6        1.0  0.19018  0.67628  0.81143  1.0000
  C   C7        1.0  0.68716  0.40763  0.21364  1.0000
  C   C8        1.0  0.31285  0.59237  0.78637  1.0000
  C   C9        1.0  0.04862  0.16967  0.14937  1.0000
  C   C10       1.0  0.95138  0.83033  0.85063  1.0000
  C   C11       1.0  0.99397  0.27363  0.04701  1.0000
  C   C12       1.0  0.00603  0.72637  0.95298  1.0000
  C   C13       1.0  0.51569  0.44794  0.35658  1.0000
  C   C14       1.0  0.48432  0.55206  0.64343  1.0000
  C   C15       1.0  0.26781  0.14473  0.76318  1.0000
  C   C16       1.0  0.73219  0.85527  0.23682  1.0000
  C   C17       1.0  0.45918  0.56834  0.26612  1.0000
  C   C18       1.0  0.54082  0.43166  0.73388  1.0000
  C   C19       1.0  0.63454  0.52437  0.11580  1.0000
  C   C20       1.0  0.36546  0.47563  0.88420  1.0000
  C   C21       1.0  0.87205  0.35424  0.06530  1.0000
  C   C22       1.0  0.12795  0.64576  0.93469  1.0000
  C   C23       1.0  0.70098  0.68896  0.78126  1.0000
  C   C24       1.0  0.29902  0.31104  0.21875  1.0000
  C   C25       1.0  0.81035  0.59856  0.75483  1.0000
  C   C26       1.0  0.18965  0.40144  0.24517  1.0000
  C   C27       1.0  0.81118  0.46807  0.96311  1.0000
  C   C28       1.0  0.18883  0.53194  0.03689  1.0000
  C   C29       1.0  0.69710  0.55491  0.98884  1.0000
  C   C30       1.0  0.30290  0.44509  0.01116  1.0000
  C   C31       1.0  0.05889  0.34553  0.64884  1.0000
  C   C32       1.0  0.94110  0.65447  0.35116  1.0000
  C   C33       1.0  0.97824  0.14403  0.26789  1.0000
  C   C34       1.0  0.02176  0.85597  0.73211  1.0000
  C   C35       1.0  0.42294  0.95900  0.88748  1.0000
  C   C36       1.0  0.57706  0.04099  0.11252  1.0000
  C   C37       1.0  0.31382  0.92370  0.98037  1.0000
  C   C38       1.0  0.68618  0.07630  0.01963  1.0000
  C   C39       1.0  0.52033  0.10191  0.67681  1.0000
  C   C40       1.0  0.47967  0.89809  0.32319  1.0000
  C   C41       1.0  0.18529  0.99987  0.95655  1.0000
  C   C42       1.0  0.81471  0.00013  0.04345  1.0000
  C   C43       1.0  0.51965  0.60615  0.14499  1.0000
  C   C44       1.0  0.48035  0.39385  0.85501  1.0000
  S   S1        1.0  0.24336  0.29764  0.63164  1.0000
  S   S2        1.0  0.75664  0.70236  0.36837  1.0000
  N   N1        1.0  0.62663  0.37114  0.33150  1.0000
  N   N2        1.0  0.37337  0.62887  0.66851  1.0000
  N   N3        1.0  0.86204  0.21826  0.28647  1.0000
  N   N4        1.0  0.13796  0.78174  0.71353  1.0000
  N   N5        1.0  0.64382  0.66674  0.89667  1.0000
  N   N6        1.0  0.35619  0.33326  0.10334  1.0000
  N   N7        1.0  0.86615  0.49038  0.84432  1.0000
  N   N8        1.0  0.13385  0.50962  0.15568  1.0000
  N   N9        1.0  0.16215  0.10882  0.85182  1.0000
  N   N10       1.0  0.83786  0.89118  0.14818  1.0000
  O   O1        1.0  0.99573  0.17358  0.55347  1.0000
  O   O2        1.0  0.00428  0.82643  0.44653  1.0000
  O   O3        1.0  0.75102  0.94016  0.50913  1.0000
  O   O4        1.0  0.24898  0.05984  0.49087  1.0000
  O   O5        1.0  0.83468  0.34167  0.56769  1.0000
  O   O6        1.0  0.16532  0.65832  0.43232  1.0000
  O   O7        1.0  0.64657  0.08845  0.71030  1.0000
  O   O8        1.0  0.35342  0.91154  0.28970  1.0000
  O   O9        1.0  0.48919  0.14197  0.56062  1.0000
  O   O10       1.0  0.51080  0.85804  0.43938  1.0000
