data_image0
_chemical_formula_structural       Cd4H38C72S2N16O16
_chemical_formula_sum              "Cd4 H38 C72 S2 N16 O16"
_cell_length_a       10.0658
_cell_length_b       11.3601
_cell_length_c       16.0648
_cell_angle_alpha    105.228
_cell_angle_beta     107.621
_cell_angle_gamma    91.1044

_space_group_name_H-M_alt    "P 1"
_space_group_IT_number       1

loop_
  _space_group_symop_operation_xyz
  'x, y, z'

loop_
  _atom_site_type_symbol
  _atom_site_label
  _atom_site_symmetry_multiplicity
  _atom_site_fract_x
  _atom_site_fract_y
  _atom_site_fract_z
  _atom_site_occupancy
  Cd  Cd1       1.0  0.04116  0.63273  0.08063  1.0000
  Cd  Cd2       1.0  0.95886  0.36723  0.91931  1.0000
  Cd  Cd3       1.0  0.11077  0.67894  0.88776  1.0000
  Cd  Cd4       1.0  0.88921  0.32110  0.11223  1.0000
  H   H1        1.0  0.32024  0.27116  0.71730  1.0000
  H   H2        1.0  0.67976  0.72885  0.28268  1.0000
  H   H3        1.0  0.35918  0.09573  0.64907  1.0000
  H   H4        1.0  0.64080  0.90429  0.35092  1.0000
  H   H5        1.0  0.52706  0.93938  0.66147  1.0000
  H   H6        1.0  0.47293  0.06064  0.33851  1.0000
  H   H7        1.0  0.80843  0.18499  0.31126  1.0000
  H   H8        1.0  0.19156  0.81504  0.68874  1.0000
  H   H9        1.0  0.63110  0.33438  0.29575  1.0000
  H   H10       1.0  0.36890  0.66566  0.70425  1.0000
  H   H11       1.0  0.48256  0.62363  0.44314  1.0000
  H   H12       1.0  0.51747  0.37640  0.55687  1.0000
  H   H13       1.0  0.71293  0.84513  0.64005  1.0000
  H   H14       1.0  0.28708  0.15489  0.35996  1.0000
  H   H15       1.0  0.59968  0.72737  0.94659  1.0000
  H   H16       1.0  0.40030  0.27259  0.05340  1.0000
  H   H17       1.0  0.40211  0.01816  0.84617  1.0000
  H   H18       1.0  0.59788  0.98182  0.15383  1.0000
  H   H19       1.0  0.84932  0.00970  0.90972  1.0000
  H   H20       1.0  0.15066  0.99025  0.09026  1.0000
  H   H21       1.0  0.27248  0.45193  0.15635  1.0000
  H   H22       1.0  0.72753  0.54806  0.84365  1.0000
  H   H23       1.0  0.46251  0.45405  0.30264  1.0000
  H   H24       1.0  0.53751  0.54596  0.69736  1.0000
  H   H25       1.0  0.13251  0.22667  0.56255  1.0000
  H   H26       1.0  0.86747  0.77333  0.43744  1.0000
  H   H27       1.0  0.01494  0.05059  0.40816  1.0000
  H   H28       1.0  0.98502  0.94941  0.59182  1.0000
  H   H29       1.0  0.68077  0.66024  0.50593  1.0000
  H   H30       1.0  0.31923  0.33977  0.49407  1.0000
  H   H31       1.0  0.88473  0.84439  0.79119  1.0000
  H   H32       1.0  0.11528  0.15563  0.20882  1.0000
  H   H33       1.0  0.82803  0.01599  0.25448  1.0000
  H   H34       1.0  0.17194  0.98402  0.74549  1.0000
  H   H35       1.0  0.30681  0.44969  0.84191  1.0000
  H   H36       1.0  0.69318  0.55029  0.15809  1.0000
  H   H37       1.0  0.82912  0.83524  0.12766  1.0000
  H   H38       1.0  0.17092  0.16476  0.87233  1.0000
  C   C1        1.0  0.11088  0.88820  0.36098  1.0000
  C   C2        1.0  0.88910  0.11181  0.63900  1.0000
  C   C3        1.0  0.62588  0.02377  0.87431  1.0000
  C   C4        1.0  0.37410  0.97620  0.12569  1.0000
  C   C5        1.0  0.73770  0.86092  0.92953  1.0000
  C   C6        1.0  0.26230  0.13904  0.07047  1.0000
  C   C7        1.0  0.23566  0.32877  0.70316  1.0000
  C   C8        1.0  0.76433  0.67123  0.29683  1.0000
  C   C9        1.0  0.34511  0.01504  0.59123  1.0000
  C   C10       1.0  0.65488  0.98498  0.40875  1.0000
  C   C11       1.0  0.44014  0.92610  0.59858  1.0000
  C   C12       1.0  0.55986  0.07392  0.40140  1.0000
  C   C13       1.0  0.81235  0.26107  0.37005  1.0000
  C   C14       1.0  0.18764  0.73894  0.62995  1.0000
  C   C15       1.0  0.71398  0.34692  0.36070  1.0000
  C   C16       1.0  0.28602  0.65310  0.63931  1.0000
  C   C17       1.0  0.48632  0.86628  0.89577  1.0000
  C   C18       1.0  0.51368  0.13369  0.10423  1.0000
  C   C19       1.0  0.40290  0.61861  0.37877  1.0000
  C   C20       1.0  0.59711  0.38140  0.62123  1.0000
  C   C21       1.0  0.02851  0.38579  0.60567  1.0000
  C   C22       1.0  0.97147  0.61420  0.39433  1.0000
  C   C23       1.0  0.77163  0.76677  0.64632  1.0000
  C   C24       1.0  0.22837  0.23324  0.35369  1.0000
  C   C25       1.0  0.93426  0.57845  0.66914  1.0000
  C   C26       1.0  0.06573  0.42155  0.33087  1.0000
  C   C27       1.0  0.10237  0.78801  0.28485  1.0000
  C   C28       1.0  0.89762  0.21199  0.71514  1.0000
  C   C29       1.0  0.60735  0.81056  0.92598  1.0000
  C   C30       1.0  0.39263  0.18940  0.07401  1.0000
  C   C31       1.0  0.22524  0.90366  0.44533  1.0000
  C   C32       1.0  0.77475  0.09635  0.55466  1.0000
  C   C33       1.0  0.03292  0.48690  0.68051  1.0000
  C   C34       1.0  0.96707  0.51309  0.31949  1.0000
  C   C35       1.0  0.20412  0.69809  0.29181  1.0000
  C   C36       1.0  0.79587  0.30192  0.70818  1.0000
  C   C37       1.0  0.31032  0.70968  0.37510  1.0000
  C   C38       1.0  0.68967  0.29033  0.62489  1.0000
  C   C39       1.0  0.91918  0.36983  0.51878  1.0000
  C   C40       1.0  0.08080  0.63016  0.48122  1.0000
  C   C41       1.0  0.83471  0.56719  0.58302  1.0000
  C   C42       1.0  0.16528  0.43281  0.41699  1.0000
  C   C43       1.0  0.82245  0.45855  0.50816  1.0000
  C   C44       1.0  0.17754  0.54146  0.49185  1.0000
  C   C45       1.0  0.86507  0.79548  0.95685  1.0000
  C   C46       1.0  0.13495  0.20454  0.04319  1.0000
  C   C47       1.0  0.49554  0.97369  0.86950  1.0000
  C   C48       1.0  0.50445  0.02628  0.13050  1.0000
  C   C49       1.0  0.74737  0.96887  0.90470  1.0000
  C   C50       1.0  0.25262  0.03109  0.09529  1.0000
  C   C51       1.0  0.28530  0.52227  0.22028  1.0000
  C   C52       1.0  0.71469  0.47774  0.77971  1.0000
  C   C53       1.0  0.39096  0.52453  0.30110  1.0000
  C   C54       1.0  0.60905  0.47548  0.69889  1.0000
  C   C55       1.0  0.13334  0.30560  0.61883  1.0000
  C   C56       1.0  0.86664  0.69440  0.38118  1.0000
  C   C57       1.0  0.34764  0.80935  0.89029  1.0000
  C   C58       1.0  0.65237  0.19061  0.10973  1.0000
  C   C59       1.0  0.32267  0.81509  0.45234  1.0000
  C   C60       1.0  0.67733  0.18491  0.54765  1.0000
  C   C61       1.0  0.01008  0.97204  0.35071  1.0000
  C   C62       1.0  0.98990  0.02797  0.64927  1.0000
  C   C63       1.0  0.75387  0.66514  0.57259  1.0000
  C   C64       1.0  0.24613  0.33487  0.42742  1.0000
  C   C65       1.0  0.86821  0.76782  0.73040  1.0000
  C   C66       1.0  0.13179  0.23220  0.26961  1.0000
  C   C67       1.0  0.90706  0.95329  0.26721  1.0000
  C   C68       1.0  0.09293  0.04672  0.73277  1.0000
  C   C69       1.0  0.22974  0.42967  0.77406  1.0000
  C   C70       1.0  0.77026  0.57032  0.22594  1.0000
  C   C71       1.0  0.90685  0.85264  0.19492  1.0000
  C   C72       1.0  0.09316  0.14735  0.80506  1.0000
  S   S1        1.0  0.64061  0.15149  0.83158  1.0000
  S   S2        1.0  0.35945  0.84849  0.16844  1.0000
  N   N1        1.0  0.00240  0.77321  0.20387  1.0000
  N   N2        1.0  0.99760  0.22678  0.79610  1.0000
  N   N3        1.0  0.19428  0.60590  0.21691  1.0000
  N   N4        1.0  0.80568  0.39410  0.78308  1.0000
  N   N5        1.0  0.94642  0.67615  0.74143  1.0000
  N   N6        1.0  0.05358  0.32386  0.25858  1.0000
  N   N7        1.0  0.13116  0.50589  0.76283  1.0000
  N   N8        1.0  0.86884  0.49410  0.23718  1.0000
  N   N9        1.0  0.23815  0.00435  0.51583  1.0000
  N   N10       1.0  0.76183  0.99567  0.48416  1.0000
  N   N11       1.0  0.42989  0.82717  0.52988  1.0000
  N   N12       1.0  0.57013  0.17284  0.47010  1.0000
  N   N13       1.0  0.71833  0.44480  0.42866  1.0000
  N   N14       1.0  0.28166  0.55522  0.57135  1.0000
  N   N15       1.0  0.91286  0.27091  0.44832  1.0000
  N   N16       1.0  0.08711  0.72911  0.55169  1.0000
  O   O1        1.0  0.23511  0.85172  0.85448  1.0000
  O   O2        1.0  0.76488  0.14823  0.14552  1.0000
  O   O3        1.0  0.34752  0.71610  0.92115  1.0000
  O   O4        1.0  0.65252  0.28390  0.07890  1.0000
  O   O5        1.0  0.08555  0.54434  0.95715  1.0000
  O   O6        1.0  0.91437  0.45572  0.04281  1.0000
  O   O7        1.0  0.85359  0.71343  0.99561  1.0000
  O   O8        1.0  0.14648  0.28664  0.00449  1.0000
  O   O9        1.0  0.97282  0.82445  0.93750  1.0000
  O   O10       1.0  0.02719  0.17556  0.06251  1.0000
  O   O11       1.0  0.50511  0.20092  0.81354  1.0000
  O   O12       1.0  0.49498  0.79909  0.18647  1.0000
  O   O13       1.0  0.75619  0.23694  0.90441  1.0000
  O   O14       1.0  0.24389  0.76299  0.09563  1.0000
  O   O15       1.0  0.67987  0.09861  0.74950  1.0000
  O   O16       1.0  0.32022  0.90136  0.25053  1.0000
