data_image0
_chemical_formula_structural       Cu4H16C32N12O16
_chemical_formula_sum              "Cu4 H16 C32 N12 O16"
_cell_length_a       4.80135
_cell_length_b       10.7157
_cell_length_c       19.7585
_cell_angle_alpha    90.0002
_cell_angle_beta     89.9996
_cell_angle_gamma    95.1007

_space_group_name_H-M_alt    "P 1"
_space_group_IT_number       1

loop_
  _space_group_symop_operation_xyz
  'x, y, z'

loop_
  _atom_site_type_symbol
  _atom_site_label
  _atom_site_symmetry_multiplicity
  _atom_site_fract_x
  _atom_site_fract_y
  _atom_site_fract_z
  _atom_site_occupancy
  Cu  Cu1       1.0  0.29044  0.46128  0.66157  1.0000
  Cu  Cu2       1.0  0.70956  0.03872  0.16157  1.0000
  Cu  Cu3       1.0  0.70955  0.53872  0.33843  1.0000
  Cu  Cu4       1.0  0.29045  0.96127  0.83843  1.0000
  H   H1        1.0  0.23782  0.45272  0.92174  1.0000
  H   H2        1.0  0.76218  0.04729  0.42174  1.0000
  H   H3        1.0  0.76218  0.54729  0.07826  1.0000
  H   H4        1.0  0.23782  0.95272  0.57826  1.0000
  H   H5        1.0  0.43493  0.54137  0.81106  1.0000
  H   H6        1.0  0.56506  0.95864  0.31106  1.0000
  H   H7        1.0  0.56504  0.45864  0.18894  1.0000
  H   H8        1.0  0.43495  0.04136  0.68895  1.0000
  H   H9        1.0  0.58749  0.31533  0.56613  1.0000
  H   H10       1.0  0.41252  0.18466  0.06613  1.0000
  H   H11       1.0  0.41251  0.68466  0.43387  1.0000
  H   H12       1.0  0.58749  0.81533  0.93387  1.0000
  H   H13       1.0  0.23329  0.65563  0.55459  1.0000
  H   H14       1.0  0.76672  0.84437  0.05459  1.0000
  H   H15       1.0  0.76671  0.34436  0.44541  1.0000
  H   H16       1.0  0.23329  0.15563  0.94542  1.0000
  C   C1        1.0  0.03915  0.29539  0.75534  1.0000
  C   C2        1.0  0.96085  0.20461  0.25533  1.0000
  C   C3        1.0  0.96085  0.70461  0.24467  1.0000
  C   C4        1.0  0.03915  0.79539  0.74466  1.0000
  C   C5        1.0  0.93260  0.24741  0.81678  1.0000
  C   C6        1.0  0.06740  0.25259  0.31678  1.0000
  C   C7        1.0  0.06741  0.75259  0.18322  1.0000
  C   C8        1.0  0.93259  0.74742  0.68322  1.0000
  C   C9        1.0  0.17969  0.40702  0.87378  1.0000
  C   C10       1.0  0.82031  0.09298  0.37377  1.0000
  C   C11       1.0  0.82031  0.59298  0.12623  1.0000
  C   C12       1.0  0.17969  0.90703  0.62623  1.0000
  C   C13       1.0  0.28823  0.45772  0.81305  1.0000
  C   C14       1.0  0.71177  0.04229  0.31305  1.0000
  C   C15       1.0  0.71175  0.54229  0.18695  1.0000
  C   C16       1.0  0.28824  0.95772  0.68695  1.0000
  C   C17       1.0  0.98555  0.23458  0.68715  1.0000
  C   C18       1.0  0.01443  0.26542  0.18715  1.0000
  C   C19       1.0  0.01444  0.76542  0.31285  1.0000
  C   C20       1.0  0.98555  0.73458  0.81285  1.0000
  C   C21       1.0  0.74863  0.12586  0.82255  1.0000
  C   C22       1.0  0.25138  0.37414  0.32255  1.0000
  C   C23       1.0  0.25138  0.87414  0.17745  1.0000
  C   C24       1.0  0.74862  0.62587  0.67745  1.0000
  C   C25       1.0  0.54797  0.39715  0.53609  1.0000
  C   C26       1.0  0.45204  0.10285  0.03609  1.0000
  C   C27       1.0  0.45204  0.60285  0.46391  1.0000
  C   C28       1.0  0.54797  0.89714  0.96391  1.0000
  C   C29       1.0  0.35299  0.58665  0.52980  1.0000
  C   C30       1.0  0.64702  0.91334  0.02980  1.0000
  C   C31       1.0  0.64702  0.41334  0.47020  1.0000
  C   C32       1.0  0.35298  0.08665  0.97020  1.0000
  N   N1        1.0  0.21472  0.40070  0.75485  1.0000
  N   N2        1.0  0.78527  0.09931  0.25485  1.0000
  N   N3        1.0  0.78526  0.59931  0.24516  1.0000
  N   N4        1.0  0.21473  0.90069  0.74515  1.0000
  N   N5        1.0  0.00366  0.30332  0.87611  1.0000
  N   N6        1.0  0.99634  0.19668  0.37611  1.0000
  N   N7        1.0  0.99635  0.69668  0.12389  1.0000
  N   N8        1.0  0.00365  0.80333  0.62389  1.0000
  N   N9        1.0  0.40209  0.48397  0.56520  1.0000
  N   N10       1.0  0.59791  0.01603  0.06520  1.0000
  N   N11       1.0  0.59791  0.51603  0.43480  1.0000
  N   N12       1.0  0.40209  0.98396  0.93480  1.0000
  O   O1        1.0  0.11476  0.29242  0.63708  1.0000
  O   O2        1.0  0.88525  0.20758  0.13708  1.0000
  O   O3        1.0  0.88523  0.70758  0.36292  1.0000
  O   O4        1.0  0.11476  0.79242  0.86292  1.0000
  O   O5        1.0  0.83369  0.13479  0.68235  1.0000
  O   O6        1.0  0.16631  0.36522  0.18234  1.0000
  O   O7        1.0  0.16632  0.86521  0.31766  1.0000
  O   O8        1.0  0.83367  0.63479  0.81765  1.0000
  O   O9        1.0  0.48512  0.13045  0.81436  1.0000
  O   O10       1.0  0.51489  0.36955  0.31436  1.0000
  O   O11       1.0  0.51490  0.86955  0.18564  1.0000
  O   O12       1.0  0.48511  0.63045  0.68564  1.0000
  O   O13       1.0  0.86114  0.02980  0.84031  1.0000
  O   O14       1.0  0.13887  0.47020  0.34030  1.0000
  O   O15       1.0  0.13888  0.97020  0.15970  1.0000
  O   O16       1.0  0.86113  0.52980  0.65969  1.0000
