data_image0
_chemical_formula_structural       Cu4Mo8H32C48N12O26
_chemical_formula_sum              "Cu4 Mo8 H32 C48 N12 O26"
_cell_length_a       11.3347
_cell_length_b       12.0999
_cell_length_c       12.514
_cell_angle_alpha    114.892
_cell_angle_beta     103.671
_cell_angle_gamma    93.2041

_space_group_name_H-M_alt    "P 1"
_space_group_IT_number       1

loop_
  _space_group_symop_operation_xyz
  'x, y, z'

loop_
  _atom_site_type_symbol
  _atom_site_label
  _atom_site_symmetry_multiplicity
  _atom_site_fract_x
  _atom_site_fract_y
  _atom_site_fract_z
  _atom_site_occupancy
  Cu  Cu1       1.0  0.44171  0.82126  0.16746  1.0000
  Cu  Cu2       1.0  0.55829  0.17875  0.83254  1.0000
  Cu  Cu3       1.0  0.54174  0.13679  0.31515  1.0000
  Cu  Cu4       1.0  0.45826  0.86321  0.68485  1.0000
  Mo  Mo1       1.0  0.31054  0.52666  0.93639  1.0000
  Mo  Mo2       1.0  0.68946  0.47334  0.06361  1.0000
  Mo  Mo3       1.0  0.00876  0.37749  0.71468  1.0000
  Mo  Mo4       1.0  0.99125  0.62253  0.28533  1.0000
  Mo  Mo5       1.0  0.26005  0.61134  0.21749  1.0000
  Mo  Mo6       1.0  0.73996  0.38866  0.78251  1.0000
  Mo  Mo7       1.0  0.99649  0.66096  0.01469  1.0000
  Mo  Mo8       1.0  0.00351  0.33904  0.98531  1.0000
  H   H1        1.0  0.24595  0.88828  0.29264  1.0000
  H   H2        1.0  0.75405  0.11173  0.70736  1.0000
  H   H3        1.0  0.08961  0.02714  0.30300  1.0000
  H   H4        1.0  0.91039  0.97287  0.69700  1.0000
  H   H5        1.0  0.06445  0.13359  0.16495  1.0000
  H   H6        1.0  0.93555  0.86641  0.83505  1.0000
  H   H7        1.0  0.20481  0.10693  0.03540  1.0000
  H   H8        1.0  0.79518  0.89307  0.96460  1.0000
  H   H9        1.0  0.17399  0.82157  0.92850  1.0000
  H   H10       1.0  0.82601  0.17843  0.07152  1.0000
  H   H11       1.0  0.00009  0.68120  0.74958  1.0000
  H   H12       1.0  0.99991  0.31880  0.25044  1.0000
  H   H13       1.0  0.01908  0.62066  0.53697  1.0000
  H   H14       1.0  0.98092  0.37933  0.46305  1.0000
  H   H15       1.0  0.21485  0.69784  0.51351  1.0000
  H   H16       1.0  0.78514  0.30216  0.48650  1.0000
  H   H17       1.0  0.66262  0.79326  0.06885  1.0000
  H   H18       1.0  0.33738  0.20674  0.93114  1.0000
  H   H19       1.0  0.88518  0.89302  0.15834  1.0000
  H   H20       1.0  0.11481  0.10698  0.84164  1.0000
  H   H21       1.0  0.96751  0.02399  0.39000  1.0000
  H   H22       1.0  0.03249  0.97600  0.60999  1.0000
  H   H23       1.0  0.82446  0.04384  0.51710  1.0000
  H   H24       1.0  0.17554  0.95615  0.48289  1.0000
  H   H25       1.0  0.68113  0.73793  0.35754  1.0000
  H   H26       1.0  0.31888  0.26206  0.64246  1.0000
  H   H27       1.0  0.75642  0.56144  0.38435  1.0000
  H   H28       1.0  0.24357  0.43854  0.61564  1.0000
  H   H29       1.0  0.71158  0.51616  0.55291  1.0000
  H   H30       1.0  0.28841  0.48384  0.44709  1.0000
  H   H31       1.0  0.58636  0.64428  0.67673  1.0000
  H   H32       1.0  0.41365  0.35573  0.32327  1.0000
  C   C1        1.0  0.23597  0.94076  0.23954  1.0000
  C   C2        1.0  0.76403  0.05925  0.76046  1.0000
  C   C3        1.0  0.14740  0.01595  0.24242  1.0000
  C   C4        1.0  0.85260  0.98405  0.75758  1.0000
  C   C5        1.0  0.13384  0.07558  0.16743  1.0000
  C   C6        1.0  0.86615  0.92443  0.83257  1.0000
  C   C7        1.0  0.21241  0.06032  0.09388  1.0000
  C   C8        1.0  0.78759  0.93968  0.90612  1.0000
  C   C9        1.0  0.30207  0.98728  0.09933  1.0000
  C   C10       1.0  0.69793  0.01273  0.90067  1.0000
  C   C11       1.0  0.40245  0.98537  0.04089  1.0000
  C   C12       1.0  0.59755  0.01463  0.95911  1.0000
  C   C13       1.0  0.39275  0.92568  0.91444  1.0000
  C   C14       1.0  0.60725  0.07433  0.08557  1.0000
  C   C15       1.0  0.28549  0.84012  0.81592  1.0000
  C   C16       1.0  0.71450  0.15988  0.18409  1.0000
  C   C17       1.0  0.18013  0.79647  0.83616  1.0000
  C   C18       1.0  0.81987  0.20354  0.16385  1.0000
  C   C19       1.0  0.08229  0.71765  0.73605  1.0000
  C   C20       1.0  0.91771  0.28236  0.26396  1.0000
  C   C21       1.0  0.09261  0.68281  0.61808  1.0000
  C   C22       1.0  0.90738  0.31719  0.38193  1.0000
  C   C23       1.0  0.20191  0.72571  0.60422  1.0000
  C   C24       1.0  0.79809  0.27429  0.39579  1.0000
  C   C25       1.0  0.70228  0.85113  0.16743  1.0000
  C   C26       1.0  0.29772  0.14887  0.83257  1.0000
  C   C27       1.0  0.82626  0.90612  0.21842  1.0000
  C   C28       1.0  0.17373  0.09388  0.78157  1.0000
  C   C29       1.0  0.87225  0.97627  0.34549  1.0000
  C   C30       1.0  0.12775  0.02372  0.65450  1.0000
  C   C31       1.0  0.79304  0.98757  0.41773  1.0000
  C   C32       1.0  0.20696  0.01243  0.58225  1.0000
  C   C33       1.0  0.66982  0.93181  0.35980  1.0000
  C   C34       1.0  0.33018  0.06819  0.64019  1.0000
  C   C35       1.0  0.57888  0.95903  0.43189  1.0000
  C   C36       1.0  0.42112  0.04097  0.56810  1.0000
  C   C37       1.0  0.55213  0.90002  0.50163  1.0000
  C   C38       1.0  0.44787  0.09997  0.49836  1.0000
  C   C39       1.0  0.59839  0.79092  0.50760  1.0000
  C   C40       1.0  0.40161  0.20908  0.49240  1.0000
  C   C41       1.0  0.66395  0.71862  0.43016  1.0000
  C   C42       1.0  0.33606  0.28138  0.56983  1.0000
  C   C43       1.0  0.70519  0.61807  0.44432  1.0000
  C   C44       1.0  0.29481  0.38193  0.55568  1.0000
  C   C45       1.0  0.67957  0.59160  0.53530  1.0000
  C   C46       1.0  0.32043  0.40840  0.46470  1.0000
  C   C47       1.0  0.61014  0.66474  0.60673  1.0000
  C   C48       1.0  0.38986  0.33526  0.39327  1.0000
  N   N1        1.0  0.31386  0.92722  0.17014  1.0000
  N   N2        1.0  0.68614  0.07279  0.82986  1.0000
  N   N3        1.0  0.50862  0.05643  0.12422  1.0000
  N   N4        1.0  0.49138  0.94357  0.87578  1.0000
  N   N5        1.0  0.29705  0.80258  0.70030  1.0000
  N   N6        1.0  0.70295  0.19742  0.29970  1.0000
  N   N7        1.0  0.62326  0.86622  0.23609  1.0000
  N   N8        1.0  0.37674  0.13377  0.76390  1.0000
  N   N9        1.0  0.52620  0.05522  0.42951  1.0000
  N   N10       1.0  0.47380  0.94477  0.57048  1.0000
  N   N11       1.0  0.56934  0.76189  0.59373  1.0000
  N   N12       1.0  0.43066  0.23811  0.40626  1.0000
  O   O1        1.0  0.39280  0.67634  0.99257  1.0000
  O   O2        1.0  0.60720  0.32366  0.00744  1.0000
  O   O3        1.0  0.39761  0.42514  0.86427  1.0000
  O   O4        1.0  0.60239  0.57486  0.13573  1.0000
  O   O5        1.0  0.16446  0.49604  0.81505  1.0000
  O   O6        1.0  0.83554  0.50396  0.18495  1.0000
  O   O7        1.0  0.95238  0.46669  0.64445  1.0000
  O   O8        1.0  0.04762  0.53331  0.35557  1.0000
  O   O9        1.0  0.05470  0.26001  0.60568  1.0000
  O   O10       1.0  0.94531  0.74001  0.39432  1.0000
  O   O11       1.0  0.92578  0.51323  0.87917  1.0000
  O   O12       1.0  0.07422  0.48676  0.12083  1.0000
  O   O13       1.0  0.84929  0.29437  0.69960  1.0000
  O   O14       1.0  0.15071  0.70563  0.30040  1.0000
  O   O15       1.0  0.31531  0.54238  0.30869  1.0000
  O   O16       1.0  0.68471  0.45762  0.69131  1.0000
  O   O17       1.0  0.29659  0.49603  0.06623  1.0000
  O   O18       1.0  0.70341  0.50397  0.93376  1.0000
  O   O19       1.0  0.37853  0.73247  0.25787  1.0000
  O   O20       1.0  0.62146  0.26753  0.74212  1.0000
  O   O21       1.0  0.06602  0.32026  0.86142  1.0000
  O   O22       1.0  0.93398  0.67975  0.13858  1.0000
  O   O23       1.0  0.15872  0.66983  0.06219  1.0000
  O   O24       1.0  0.84128  0.33017  0.93781  1.0000
  O   O25       1.0  0.96642  0.78136  0.97822  1.0000
  O   O26       1.0  0.03358  0.21863  0.02178  1.0000
