data_image0
_chemical_formula_structural       V8Cu2H8C8N4O20
_chemical_formula_sum              "V8 Cu2 H8 C8 N4 O20"
_cell_length_a       6.75349
_cell_length_b       8.11354
_cell_length_c       11.6778
_cell_angle_alpha    89.99
_cell_angle_beta     90.0034
_cell_angle_gamma    114.914

_space_group_name_H-M_alt    "P 1"
_space_group_IT_number       1

loop_
  _space_group_symop_operation_xyz
  'x, y, z'

loop_
  _atom_site_type_symbol
  _atom_site_label
  _atom_site_symmetry_multiplicity
  _atom_site_fract_x
  _atom_site_fract_y
  _atom_site_fract_z
  _atom_site_occupancy
  V   V1        1.0  0.56478  0.41082  0.60124  1.0000
  V   V2        1.0  0.43513  0.58939  0.10112  1.0000
  V   V3        1.0  0.14489  0.57370  0.89518  1.0000
  V   V4        1.0  0.85480  0.42604  0.39538  1.0000
  V   V5        1.0  0.43523  0.58917  0.39876  1.0000
  V   V6        1.0  0.56486  0.41061  0.89888  1.0000
  V   V7        1.0  0.85511  0.42629  0.10483  1.0000
  V   V8        1.0  0.14519  0.57395  0.60462  1.0000
  Cu  Cu1       1.0  0.29775  0.98492  0.74997  1.0000
  Cu  Cu2       1.0  0.70224  0.01506  0.25004  1.0000
  H   H1        1.0  0.62753  0.01397  0.57157  1.0000
  H   H2        1.0  0.37251  0.98633  0.07157  1.0000
  H   H3        1.0  0.62751  0.01368  0.92842  1.0000
  H   H4        1.0  0.37249  0.98604  0.42843  1.0000
  H   H5        1.0  0.00548  0.02265  0.57372  1.0000
  H   H6        1.0  0.99459  0.97785  0.07378  1.0000
  H   H7        1.0  0.00539  0.02215  0.92622  1.0000
  H   H8        1.0  0.99452  0.97734  0.42629  1.0000
  C   C1        1.0  0.70984  0.01395  0.65151  1.0000
  C   C2        1.0  0.29018  0.98620  0.15154  1.0000
  C   C3        1.0  0.70983  0.01380  0.84847  1.0000
  C   C4        1.0  0.29017  0.98605  0.34850  1.0000
  C   C5        1.0  0.91686  0.01738  0.65198  1.0000
  C   C6        1.0  0.08316  0.98287  0.15205  1.0000
  C   C7        1.0  0.91683  0.01713  0.84796  1.0000
  C   C8        1.0  0.08314  0.98264  0.34801  1.0000
  N   N1        1.0  0.02111  0.01823  0.74996  1.0000
  N   N2        1.0  0.97886  0.98177  0.25004  1.0000
  N   N3        1.0  0.60529  0.01181  0.74999  1.0000
  N   N4        1.0  0.39474  0.98819  0.25001  1.0000
  O   O1        1.0  0.40312  0.19606  0.60113  1.0000
  O   O2        1.0  0.59660  0.80418  0.10097  1.0000
  O   O3        1.0  0.19489  0.78793  0.88174  1.0000
  O   O4        1.0  0.80440  0.21178  0.38202  1.0000
  O   O5        1.0  0.59689  0.80395  0.39888  1.0000
  O   O6        1.0  0.40341  0.19583  0.89904  1.0000
  O   O7        1.0  0.80510  0.21207  0.11825  1.0000
  O   O8        1.0  0.19561  0.78822  0.61798  1.0000
  O   O9        1.0  0.59871  0.45451  0.42713  1.0000
  O   O10       1.0  0.40050  0.54474  0.92732  1.0000
  O   O11       1.0  0.14849  0.56523  0.07443  1.0000
  O   O12       1.0  0.85152  0.43558  0.57433  1.0000
  O   O13       1.0  0.40126  0.54546  0.57286  1.0000
  O   O14       1.0  0.59951  0.45527  0.07268  1.0000
  O   O15       1.0  0.85150  0.43477  0.92557  1.0000
  O   O16       1.0  0.14849  0.56445  0.42567  1.0000
  O   O17       1.0  0.61209  0.47387  0.75008  1.0000
  O   O18       1.0  0.38790  0.52613  0.24992  1.0000
  O   O19       1.0  0.13003  0.49874  0.74992  1.0000
  O   O20       1.0  0.86996  0.50125  0.25007  1.0000
