data_image0
_chemical_formula_structural       Hg8H48C48S4N8Cl16
_chemical_formula_sum              "Hg8 H48 C48 S4 N8 Cl16"
_cell_length_a       8.97646
_cell_length_b       12.4342
_cell_length_c       15.646
_cell_angle_alpha    90
_cell_angle_beta     90
_cell_angle_gamma    90

_space_group_name_H-M_alt    "P 1"
_space_group_IT_number       1

loop_
  _space_group_symop_operation_xyz
  'x, y, z'

loop_
  _atom_site_type_symbol
  _atom_site_label
  _atom_site_symmetry_multiplicity
  _atom_site_fract_x
  _atom_site_fract_y
  _atom_site_fract_z
  _atom_site_occupancy
  Hg  Hg1       1.0  0.81654  0.19511  0.71468  1.0000
  Hg  Hg2       1.0  0.31654  0.80489  0.28532  1.0000
  Hg  Hg3       1.0  0.81654  0.30489  0.21468  1.0000
  Hg  Hg4       1.0  0.31654  0.69511  0.78532  1.0000
  Hg  Hg5       1.0  0.18401  0.35767  0.71680  1.0000
  Hg  Hg6       1.0  0.68401  0.64233  0.28320  1.0000
  Hg  Hg7       1.0  0.18401  0.14233  0.21680  1.0000
  Hg  Hg8       1.0  0.68400  0.85767  0.78320  1.0000
  H   H1        1.0  0.96696  0.15148  0.53895  1.0000
  H   H2        1.0  0.46696  0.84852  0.46105  1.0000
  H   H3        1.0  0.96696  0.34852  0.03895  1.0000
  H   H4        1.0  0.46696  0.65148  0.96105  1.0000
  H   H5        1.0  0.90904  0.10979  0.38567  1.0000
  H   H6        1.0  0.40904  0.89021  0.61433  1.0000
  H   H7        1.0  0.90904  0.39021  0.88567  1.0000
  H   H8        1.0  0.40904  0.60978  0.11433  1.0000
  H   H9        1.0  0.64077  0.08593  0.34320  1.0000
  H   H10       1.0  0.14077  0.91407  0.65680  1.0000
  H   H11       1.0  0.64077  0.41407  0.84320  1.0000
  H   H12       1.0  0.14077  0.58593  0.15680  1.0000
  H   H13       1.0  0.44309  0.10861  0.45424  1.0000
  H   H14       1.0  0.94308  0.89139  0.54576  1.0000
  H   H15       1.0  0.44309  0.39139  0.95424  1.0000
  H   H16       1.0  0.94308  0.60861  0.04576  1.0000
  H   H17       1.0  0.49493  0.08114  0.66838  1.0000
  H   H18       1.0  0.99493  0.91886  0.33162  1.0000
  H   H19       1.0  0.49493  0.41886  0.16838  1.0000
  H   H20       1.0  0.99493  0.58114  0.83162  1.0000
  H   H21       1.0  0.37214  0.14532  0.59586  1.0000
  H   H22       1.0  0.87214  0.85468  0.40414  1.0000
  H   H23       1.0  0.37214  0.35468  0.09586  1.0000
  H   H24       1.0  0.87214  0.64532  0.90414  1.0000
  H   H25       1.0  0.00706  0.36019  0.55005  1.0000
  H   H26       1.0  0.50706  0.63981  0.44995  1.0000
  H   H27       1.0  0.00706  0.13981  0.05005  1.0000
  H   H28       1.0  0.50706  0.86019  0.94995  1.0000
  H   H29       1.0  0.04564  0.36226  0.39086  1.0000
  H   H30       1.0  0.54564  0.63774  0.60914  1.0000
  H   H31       1.0  0.04564  0.13774  0.89086  1.0000
  H   H32       1.0  0.54564  0.86226  0.10914  1.0000
  H   H33       1.0  0.30716  0.37298  0.33492  1.0000
  H   H34       1.0  0.80716  0.62702  0.66509  1.0000
  H   H35       1.0  0.30716  0.12702  0.83492  1.0000
  H   H36       1.0  0.80716  0.87298  0.16508  1.0000
  H   H37       1.0  0.51904  0.37709  0.43890  1.0000
  H   H38       1.0  0.01904  0.62291  0.56110  1.0000
  H   H39       1.0  0.51904  0.12291  0.93890  1.0000
  H   H40       1.0  0.01904  0.87709  0.06110  1.0000
  H   H41       1.0  0.49191  0.44871  0.65142  1.0000
  H   H42       1.0  0.99190  0.55129  0.34858  1.0000
  H   H43       1.0  0.49191  0.05129  0.15143  1.0000
  H   H44       1.0  0.99191  0.94871  0.84857  1.0000
  H   H45       1.0  0.60760  0.37535  0.58015  1.0000
  H   H46       1.0  0.10760  0.62465  0.41985  1.0000
  H   H47       1.0  0.60760  0.12465  0.08015  1.0000
  H   H48       1.0  0.10760  0.87535  0.91985  1.0000
  C   C1        1.0  0.85250  0.14230  0.51656  1.0000
  C   C2        1.0  0.35250  0.85770  0.48344  1.0000
  C   C3        1.0  0.85250  0.35770  0.01656  1.0000
  C   C4        1.0  0.35250  0.64230  0.98344  1.0000
  C   C5        1.0  0.81931  0.11778  0.43201  1.0000
  C   C6        1.0  0.31931  0.88223  0.56799  1.0000
  C   C7        1.0  0.81931  0.38223  0.93201  1.0000
  C   C8        1.0  0.31931  0.61777  0.06799  1.0000
  C   C9        1.0  0.67048  0.10550  0.40885  1.0000
  C   C10       1.0  0.17047  0.89450  0.59115  1.0000
  C   C11       1.0  0.67048  0.39450  0.90885  1.0000
  C   C12       1.0  0.17047  0.60550  0.09115  1.0000
  C   C13       1.0  0.56035  0.11775  0.47086  1.0000
  C   C14       1.0  0.06035  0.88225  0.52914  1.0000
  C   C15       1.0  0.56035  0.38225  0.97086  1.0000
  C   C16       1.0  0.06035  0.61775  0.02914  1.0000
  C   C17       1.0  0.60101  0.14179  0.55483  1.0000
  C   C18       1.0  0.10101  0.85821  0.44517  1.0000
  C   C19       1.0  0.60101  0.35821  0.05483  1.0000
  C   C20       1.0  0.10101  0.64179  0.94517  1.0000
  C   C21       1.0  0.48420  0.14919  0.62364  1.0000
  C   C22       1.0  0.98420  0.85081  0.37636  1.0000
  C   C23       1.0  0.48420  0.35081  0.12364  1.0000
  C   C24       1.0  0.98420  0.64919  0.87636  1.0000
  C   C25       1.0  0.11805  0.36291  0.52171  1.0000
  C   C26       1.0  0.61805  0.63709  0.47829  1.0000
  C   C27       1.0  0.11804  0.13709  0.02171  1.0000
  C   C28       1.0  0.61804  0.86291  0.97829  1.0000
  C   C29       1.0  0.14082  0.36550  0.43397  1.0000
  C   C30       1.0  0.64082  0.63450  0.56603  1.0000
  C   C31       1.0  0.14082  0.13450  0.93397  1.0000
  C   C32       1.0  0.64082  0.86550  0.06603  1.0000
  C   C33       1.0  0.28642  0.37082  0.40343  1.0000
  C   C34       1.0  0.78642  0.62918  0.59657  1.0000
  C   C35       1.0  0.28642  0.12918  0.90343  1.0000
  C   C36       1.0  0.78642  0.87082  0.09656  1.0000
  C   C37       1.0  0.40417  0.37321  0.46143  1.0000
  C   C38       1.0  0.90417  0.62679  0.53857  1.0000
  C   C39       1.0  0.40417  0.12679  0.96143  1.0000
  C   C40       1.0  0.90417  0.87321  0.03857  1.0000
  C   C41       1.0  0.37474  0.37001  0.54895  1.0000
  C   C42       1.0  0.87474  0.62999  0.45105  1.0000
  C   C43       1.0  0.37474  0.12999  0.04895  1.0000
  C   C44       1.0  0.87474  0.87001  0.95105  1.0000
  C   C45       1.0  0.49967  0.37472  0.61293  1.0000
  C   C46       1.0  0.99967  0.62528  0.38707  1.0000
  C   C47       1.0  0.49967  0.12528  0.11293  1.0000
  C   C48       1.0  0.99967  0.87472  0.88707  1.0000
  S   S1        1.0  0.49765  0.26710  0.69186  1.0000
  S   S2        1.0  0.99765  0.73290  0.30814  1.0000
  S   S3        1.0  0.49765  0.23290  0.19186  1.0000
  S   S4        1.0  0.99765  0.76710  0.80814  1.0000
  N   N1        1.0  0.74553  0.15471  0.57589  1.0000
  N   N2        1.0  0.24553  0.84529  0.42411  1.0000
  N   N3        1.0  0.74553  0.34529  0.07589  1.0000
  N   N4        1.0  0.24553  0.65471  0.92411  1.0000
  N   N5        1.0  0.23269  0.36437  0.57714  1.0000
  N   N6        1.0  0.73269  0.63563  0.42286  1.0000
  N   N7        1.0  0.23269  0.13563  0.07714  1.0000
  N   N8        1.0  0.73269  0.86437  0.92286  1.0000
  Cl  Cl1       1.0  0.87972  0.39929  0.70077  1.0000
  Cl  Cl2       1.0  0.37972  0.60070  0.29923  1.0000
  Cl  Cl3       1.0  0.87972  0.10070  0.20077  1.0000
  Cl  Cl4       1.0  0.37972  0.89930  0.79923  1.0000
  Cl  Cl5       1.0  0.75184  0.10725  0.84956  1.0000
  Cl  Cl6       1.0  0.25184  0.89274  0.15044  1.0000
  Cl  Cl7       1.0  0.75184  0.39275  0.34956  1.0000
  Cl  Cl8       1.0  0.25184  0.60725  0.65044  1.0000
  Cl  Cl9       1.0  0.10150  0.14193  0.69731  1.0000
  Cl  Cl10      1.0  0.60150  0.85807  0.30269  1.0000
  Cl  Cl11      1.0  0.10150  0.35807  0.19731  1.0000
  Cl  Cl12      1.0  0.60150  0.64193  0.80269  1.0000
  Cl  Cl13      1.0  0.20758  0.40106  0.86430  1.0000
  Cl  Cl14      1.0  0.70758  0.59894  0.13569  1.0000
  Cl  Cl15      1.0  0.20758  0.09894  0.36430  1.0000
  Cl  Cl16      1.0  0.70758  0.90106  0.63570  1.0000
