data_image0
_chemical_formula_structural       Cd2H38C46N6O12
_chemical_formula_sum              "Cd2 H38 C46 N6 O12"
_cell_length_a       10.0278
_cell_length_b       10.3633
_cell_length_c       13.648
_cell_angle_alpha    100.965
_cell_angle_beta     92.7853
_cell_angle_gamma    113.173

_space_group_name_H-M_alt    "P 1"
_space_group_IT_number       1

loop_
  _space_group_symop_operation_xyz
  'x, y, z'

loop_
  _atom_site_type_symbol
  _atom_site_label
  _atom_site_symmetry_multiplicity
  _atom_site_fract_x
  _atom_site_fract_y
  _atom_site_fract_z
  _atom_site_occupancy
  Cd  Cd1       1.0  0.55538  0.65282  0.91533  1.0000
  Cd  Cd2       1.0  0.44463  0.34718  0.08467  1.0000
  H   H1        1.0  0.48582  0.89220  0.08919  1.0000
  H   H2        1.0  0.51418  0.10780  0.91082  1.0000
  H   H3        1.0  0.33915  0.07973  0.34736  1.0000
  H   H4        1.0  0.66085  0.92027  0.65264  1.0000
  H   H5        1.0  0.39015  0.68157  0.33650  1.0000
  H   H6        1.0  0.60985  0.31843  0.66350  1.0000
  H   H7        1.0  0.02438  0.98676  0.58186  1.0000
  H   H8        1.0  0.97562  0.01324  0.41814  1.0000
  H   H9        1.0  0.93519  0.94183  0.74217  1.0000
  H   H10       1.0  0.06481  0.05817  0.25783  1.0000
  H   H11       1.0  0.26500  0.78505  0.80000  1.0000
  H   H12       1.0  0.73500  0.21494  0.20000  1.0000
  H   H13       1.0  0.34850  0.82221  0.63800  1.0000
  H   H14       1.0  0.65150  0.17779  0.36200  1.0000
  H   H15       1.0  0.81145  0.75075  0.80641  1.0000
  H   H16       1.0  0.18855  0.24925  0.19359  1.0000
  H   H17       1.0  0.84066  0.77277  0.11225  1.0000
  H   H18       1.0  0.15934  0.22723  0.88775  1.0000
  H   H19       1.0  0.11684  0.86891  0.12939  1.0000
  H   H20       1.0  0.88316  0.13109  0.87060  1.0000
  H   H21       1.0  0.24167  0.91223  0.97721  1.0000
  H   H22       1.0  0.75833  0.08777  0.02279  1.0000
  H   H23       1.0  0.32848  0.79497  0.48118  1.0000
  H   H24       1.0  0.67152  0.20503  0.51882  1.0000
  H   H25       1.0  0.15215  0.39963  0.68983  1.0000
  H   H26       1.0  0.84785  0.60037  0.31017  1.0000
  H   H27       1.0  0.97221  0.27339  0.70010  1.0000
  H   H28       1.0  0.02779  0.72661  0.29990  1.0000
  H   H29       1.0  0.99481  0.43396  0.65967  1.0000
  H   H30       1.0  0.00519  0.56604  0.34033  1.0000
  H   H31       1.0  0.19041  0.58795  0.94702  1.0000
  H   H32       1.0  0.80959  0.41205  0.05298  1.0000
  H   H33       1.0  0.96000  0.53767  0.92905  1.0000
  H   H34       1.0  0.04000  0.46233  0.07095  1.0000
  H   H35       1.0  0.87032  0.50503  0.80554  1.0000
  H   H36       1.0  0.12968  0.49497  0.19446  1.0000
  H   H37       1.0  0.85543  0.35658  0.85809  1.0000
  H   H38       1.0  0.14458  0.64342  0.14192  1.0000
  C   C1        1.0  0.42615  0.12339  0.17066  1.0000
  C   C2        1.0  0.57385  0.87661  0.82934  1.0000
  C   C3        1.0  0.46743  0.65003  0.15161  1.0000
  C   C4        1.0  0.53257  0.34997  0.84839  1.0000
  C   C5        1.0  0.44055  0.77483  0.20817  1.0000
  C   C6        1.0  0.55945  0.22517  0.79183  1.0000
  C   C7        1.0  0.45018  0.88825  0.16319  1.0000
  C   C8        1.0  0.54982  0.11175  0.83681  1.0000
  C   C9        1.0  0.41313  0.99707  0.21450  1.0000
  C   C10       1.0  0.58687  0.00293  0.78550  1.0000
  C   C11       1.0  0.36750  0.99387  0.30965  1.0000
  C   C12       1.0  0.63250  0.00613  0.69035  1.0000
  C   C13       1.0  0.36006  0.88114  0.35533  1.0000
  C   C14       1.0  0.63995  0.11886  0.64467  1.0000
  C   C15       1.0  0.39716  0.77200  0.30388  1.0000
  C   C16       1.0  0.60284  0.22799  0.69611  1.0000
  C   C17       1.0  0.23805  0.94292  0.50033  1.0000
  C   C18       1.0  0.76195  0.05708  0.49967  1.0000
  C   C19       1.0  0.19167  0.90741  0.59778  1.0000
  C   C20       1.0  0.80833  0.09259  0.40221  1.0000
  C   C21       1.0  0.07648  0.94216  0.62960  1.0000
  C   C22       1.0  0.92352  0.05784  0.37040  1.0000
  C   C23       1.0  0.02678  0.91672  0.71991  1.0000
  C   C24       1.0  0.97322  0.08328  0.28009  1.0000
  C   C25       1.0  0.09396  0.86054  0.78311  1.0000
  C   C26       1.0  0.90604  0.13945  0.21689  1.0000
  C   C27       1.0  0.21023  0.82725  0.75184  1.0000
  C   C28       1.0  0.78976  0.17275  0.24815  1.0000
  C   C29       1.0  0.25674  0.84791  0.65911  1.0000
  C   C30       1.0  0.74326  0.15209  0.34089  1.0000
  C   C31       1.0  0.03607  0.83532  0.87823  1.0000
  C   C32       1.0  0.96393  0.16468  0.12177  1.0000
  C   C33       1.0  0.88372  0.77931  0.87673  1.0000
  C   C34       1.0  0.11628  0.22069  0.12327  1.0000
  C   C35       1.0  0.89992  0.78959  0.04757  1.0000
  C   C36       1.0  0.10008  0.21041  0.95243  1.0000
  C   C37       1.0  0.05236  0.84275  0.05608  1.0000
  C   C38       1.0  0.94764  0.15725  0.94392  1.0000
  C   C39       1.0  0.12214  0.86612  0.97085  1.0000
  C   C40       1.0  0.87786  0.13388  0.02915  1.0000
  C   C41       1.0  0.04423  0.38823  0.70965  1.0000
  C   C42       1.0  0.95577  0.61177  0.29036  1.0000
  C   C43       1.0  0.19277  0.53086  0.87038  1.0000
  C   C44       1.0  0.80723  0.46914  0.12963  1.0000
  C   C45       1.0  0.92981  0.46601  0.85374  1.0000
  C   C46       1.0  0.07019  0.53399  0.14626  1.0000
  N   N1        1.0  0.31494  0.87190  0.45080  1.0000
  N   N2        1.0  0.68506  0.12810  0.54920  1.0000
  N   N3        1.0  0.81718  0.75735  0.95848  1.0000
  N   N4        1.0  0.18283  0.24265  0.04152  1.0000
  N   N5        1.0  0.06098  0.46523  0.81356  1.0000
  N   N6        1.0  0.93902  0.53477  0.18644  1.0000
  O   O1        1.0  0.39869  0.22321  0.22297  1.0000
  O   O2        1.0  0.60131  0.77679  0.77703  1.0000
  O   O3        1.0  0.46509  0.12605  0.08278  1.0000
  O   O4        1.0  0.53491  0.87395  0.91722  1.0000
  O   O5        1.0  0.54801  0.66907  0.08201  1.0000
  O   O6        1.0  0.45199  0.33093  0.91799  1.0000
  O   O7        1.0  0.40496  0.53090  0.17761  1.0000
  O   O8        1.0  0.59504  0.46910  0.82239  1.0000
  O   O9        1.0  0.20542  0.03058  0.46592  1.0000
  O   O10       1.0  0.79458  0.96942  0.53408  1.0000
  O   O11       1.0  0.30810  0.52963  0.84075  1.0000
  O   O12       1.0  0.69190  0.47037  0.15925  1.0000
