data_image0
_chemical_formula_structural       Ag2H26C26S2N4O4
_chemical_formula_sum              "Ag2 H26 C26 S2 N4 O4"
_cell_length_a       5.16478
_cell_length_b       8.53055
_cell_length_c       15.5939
_cell_angle_alpha    102.464
_cell_angle_beta     92.4616
_cell_angle_gamma    102.491

_space_group_name_H-M_alt    "P 1"
_space_group_IT_number       1

loop_
  _space_group_symop_operation_xyz
  'x, y, z'

loop_
  _atom_site_type_symbol
  _atom_site_label
  _atom_site_symmetry_multiplicity
  _atom_site_fract_x
  _atom_site_fract_y
  _atom_site_fract_z
  _atom_site_occupancy
  Ag  Ag1       1.0  0.77047  0.48907  0.05078  1.0000
  Ag  Ag2       1.0  0.24886  0.51098  0.94965  1.0000
  H   H1        1.0  0.75858  0.81413  0.97752  1.0000
  H   H2        1.0  0.26002  0.18761  0.02329  1.0000
  H   H3        1.0  0.87585  0.10349  0.07519  1.0000
  H   H4        1.0  0.13737  0.89876  0.92510  1.0000
  H   H5        1.0  0.59604  0.17219  0.19614  1.0000
  H   H6        1.0  0.41366  0.82893  0.80337  1.0000
  H   H7        1.0  0.27202  0.96567  0.31208  1.0000
  H   H8        1.0  0.73867  0.03254  0.68748  1.0000
  H   H9        1.0  0.99013  0.87093  0.23550  1.0000
  H   H10       1.0  0.02235  0.12761  0.76330  1.0000
  H   H11       1.0  0.13959  0.08572  0.24896  1.0000
  H   H12       1.0  0.87219  0.91315  0.75076  1.0000
  H   H13       1.0  0.60897  0.75297  0.33167  1.0000
  H   H14       1.0  0.40844  0.24875  0.66904  1.0000
  H   H15       1.0  0.56129  0.87729  0.48796  1.0000
  H   H16       1.0  0.45223  0.12493  0.51235  1.0000
  H   H17       1.0  0.76260  0.58060  0.46191  1.0000
  H   H18       1.0  0.25364  0.41716  0.53750  1.0000
  H   H19       1.0  0.80819  0.45872  0.30482  1.0000
  H   H20       1.0  0.21172  0.53886  0.69488  1.0000
  H   H21       1.0  0.01048  0.73218  0.61263  1.0000
  H   H22       1.0  0.01428  0.26553  0.38840  1.0000
  H   H23       1.0  0.00222  0.91618  0.57902  1.0000
  H   H24       1.0  0.99609  0.07666  0.41992  1.0000
  H   H25       1.0  0.31014  0.88463  0.61734  1.0000
  H   H26       1.0  0.70129  0.12371  0.38139  1.0000
  C   C1        1.0  0.65544  0.84936  0.03567  1.0000
  C   C2        1.0  0.36187  0.15202  0.96487  1.0000
  C   C3        1.0  0.71686  0.00803  0.08859  1.0000
  C   C4        1.0  0.29723  0.99365  0.91161  1.0000
  C   C5        1.0  0.56036  0.04552  0.15725  1.0000
  C   C6        1.0  0.45208  0.95547  0.84258  1.0000
  C   C7        1.0  0.35652  0.92319  0.17564  1.0000
  C   C8        1.0  0.65749  0.07689  0.82420  1.0000
  C   C9        1.0  0.32006  0.76146  0.12309  1.0000
  C   C10       1.0  0.69748  0.23849  0.87716  1.0000
  C   C11       1.0  0.17933  0.96376  0.24695  1.0000
  C   C12       1.0  0.83284  0.03516  0.75252  1.0000
  C   C13       1.0  0.21009  0.59991  0.30908  1.0000
  C   C14       1.0  0.80868  0.39960  0.69118  1.0000
  C   C15       1.0  0.42230  0.71780  0.36013  1.0000
  C   C16       1.0  0.59482  0.28297  0.64027  1.0000
  C   C17       1.0  0.39391  0.78713  0.44782  1.0000
  C   C18       1.0  0.62110  0.21396  0.55237  1.0000
  C   C19       1.0  0.15566  0.74190  0.48560  1.0000
  C   C20       1.0  0.85906  0.25799  0.51421  1.0000
  C   C21       1.0  0.94768  0.62033  0.43336  1.0000
  C   C22       1.0  0.06882  0.37820  0.56632  1.0000
  C   C23       1.0  0.97234  0.54991  0.34572  1.0000
  C   C24       1.0  0.04621  0.44846  0.65418  1.0000
  C   C25       1.0  0.11927  0.82236  0.57852  1.0000
  C   C26       1.0  0.89321  0.17746  0.42110  1.0000
  S   S1        1.0  0.23873  0.51480  0.19614  1.0000
  S   S2        1.0  0.78175  0.48504  0.80422  1.0000
  N   N1        1.0  0.45943  0.72982  0.05183  1.0000
  N   N2        1.0  0.55947  0.27063  0.94872  1.0000
  N   N3        1.0  0.13215  0.62738  0.13888  1.0000
  N   N4        1.0  0.88708  0.37188  0.86144  1.0000
  O   O1        1.0  0.05807  0.35233  0.17411  1.0000
  O   O2        1.0  0.96424  0.64687  0.82610  1.0000
  O   O3        1.0  0.52368  0.52234  0.19058  1.0000
  O   O4        1.0  0.49730  0.47898  0.81002  1.0000
