data_image0
_chemical_formula_structural       Ag2H34C30S2N4O4
_chemical_formula_sum              "Ag2 H34 C30 S2 N4 O4"
_cell_length_a       7.89005
_cell_length_b       8.08648
_cell_length_c       12.4519
_cell_angle_alpha    94.8597
_cell_angle_beta     95.6518
_cell_angle_gamma    107.474

_space_group_name_H-M_alt    "P 1"
_space_group_IT_number       1

loop_
  _space_group_symop_operation_xyz
  'x, y, z'

loop_
  _atom_site_type_symbol
  _atom_site_label
  _atom_site_symmetry_multiplicity
  _atom_site_fract_x
  _atom_site_fract_y
  _atom_site_fract_z
  _atom_site_occupancy
  Ag  Ag1       1.0  0.50000  0.50000  0.00000  1.0000
  Ag  Ag2       1.0  1.00000  0.50000  1.00000  1.0000
  H   H1        1.0  0.72833  0.13309  0.95333  1.0000
  H   H2        1.0  0.27167  0.86691  0.04666  1.0000
  H   H3        1.0  0.72210  0.83642  0.87474  1.0000
  H   H4        1.0  0.27790  0.16359  0.12525  1.0000
  H   H5        1.0  0.00195  0.80211  0.80560  1.0000
  H   H6        1.0  0.99805  0.19789  0.19440  1.0000
  H   H7        1.0  0.30621  0.06239  0.70718  1.0000
  H   H8        1.0  0.69379  0.93761  0.29281  1.0000
  H   H9        1.0  0.32759  0.93106  0.81142  1.0000
  H   H10       1.0  0.67241  0.06894  0.18858  1.0000
  H   H11       1.0  0.43061  0.16338  0.83365  1.0000
  H   H12       1.0  0.56939  0.83663  0.16635  1.0000
  H   H13       1.0  0.09804  0.14336  0.43457  1.0000
  H   H14       1.0  0.90196  0.85665  0.56543  1.0000
  H   H15       1.0  0.89485  0.21355  0.51647  1.0000
  H   H16       1.0  0.10515  0.78645  0.48353  1.0000
  H   H17       1.0  0.95760  0.43202  0.58211  1.0000
  H   H18       1.0  0.04239  0.56799  0.41788  1.0000
  H   H19       1.0  0.92635  0.25781  0.66079  1.0000
  H   H20       1.0  0.07364  0.74219  0.33921  1.0000
  H   H21       1.0  0.30017  0.01127  0.34912  1.0000
  H   H22       1.0  0.69983  0.98873  0.65088  1.0000
  H   H23       1.0  0.52197  0.05081  0.41397  1.0000
  H   H24       1.0  0.47803  0.94919  0.58604  1.0000
  H   H25       1.0  0.47459  0.19808  0.32816  1.0000
  H   H26       1.0  0.52541  0.80192  0.67184  1.0000
  H   H27       1.0  0.65584  0.30990  0.55924  1.0000
  H   H28       1.0  0.34415  0.69009  0.44077  1.0000
  H   H29       1.0  0.76299  0.44660  0.72448  1.0000
  H   H30       1.0  0.23701  0.55339  0.27552  1.0000
  H   H31       1.0  0.62476  0.47802  0.82369  1.0000
  H   H32       1.0  0.37523  0.52197  0.17632  1.0000
  H   H33       1.0  0.69717  0.63749  0.73577  1.0000
  H   H34       1.0  0.30283  0.36250  0.26423  1.0000
  C   C1        1.0  0.84228  0.11254  0.91759  1.0000
  C   C2        1.0  0.15772  0.88746  0.08240  1.0000
  C   C3        1.0  0.84121  0.94785  0.87518  1.0000
  C   C4        1.0  0.15879  0.05216  0.12481  1.0000
  C   C5        1.0  0.99524  0.93058  0.83589  1.0000
  C   C6        1.0  0.00476  0.06942  0.16411  1.0000
  C   C7        1.0  0.14501  0.07725  0.83552  1.0000
  C   C8        1.0  0.85500  0.92275  0.16448  1.0000
  C   C9        1.0  0.13352  0.24139  0.87641  1.0000
  C   C10       1.0  0.86649  0.75861  0.12359  1.0000
  C   C11       1.0  0.31163  0.05726  0.79542  1.0000
  C   C12       1.0  0.68838  0.94274  0.20458  1.0000
  C   C13       1.0  0.31350  0.40989  0.66550  1.0000
  C   C14       1.0  0.68649  0.59011  0.33450  1.0000
  C   C15       1.0  0.17036  0.31423  0.58465  1.0000
  C   C16       1.0  0.82964  0.68578  0.41535  1.0000
  C   C17       1.0  0.20895  0.21858  0.49618  1.0000
  C   C18       1.0  0.79104  0.78142  0.50382  1.0000
  C   C19       1.0  0.97694  0.30384  0.58614  1.0000
  C   C20       1.0  0.02306  0.69617  0.41386  1.0000
  C   C21       1.0  0.42091  0.11319  0.38931  1.0000
  C   C22       1.0  0.57908  0.88680  0.61069  1.0000
  C   C23       1.0  0.38207  0.21547  0.48470  1.0000
  C   C24       1.0  0.61793  0.78453  0.51530  1.0000
  C   C25       1.0  0.51973  0.31129  0.56594  1.0000
  C   C26       1.0  0.48026  0.68871  0.43406  1.0000
  C   C27       1.0  0.49069  0.40681  0.65717  1.0000
  C   C28       1.0  0.50930  0.59319  0.34283  1.0000
  C   C29       1.0  0.65186  0.49631  0.73971  1.0000
  C   C30       1.0  0.34813  0.50368  0.26029  1.0000
  S   S1        1.0  0.27213  0.52221  0.78607  1.0000
  S   S2        1.0  0.72786  0.47779  0.21393  1.0000
  N   N1        1.0  0.98543  0.25505  0.91916  1.0000
  N   N2        1.0  0.01458  0.74495  0.08084  1.0000
  N   N3        1.0  0.27624  0.39644  0.87995  1.0000
  N   N4        1.0  0.72377  0.60356  0.12005  1.0000
  O   O1        1.0  0.09811  0.54888  0.76450  1.0000
  O   O2        1.0  0.90190  0.45112  0.23551  1.0000
  O   O3        1.0  0.42402  0.67943  0.82030  1.0000
  O   O4        1.0  0.57599  0.32057  0.17969  1.0000
