data_image0
_chemical_formula_structural       Co2H36C52N4O12
_chemical_formula_sum              "Co2 H36 C52 N4 O12"
_cell_length_a       7.60391
_cell_length_b       11.237
_cell_length_c       13.3854
_cell_angle_alpha    82.436
_cell_angle_beta     83.0666
_cell_angle_gamma    72.535

_space_group_name_H-M_alt    "P 1"
_space_group_IT_number       1

loop_
  _space_group_symop_operation_xyz
  'x, y, z'

loop_
  _atom_site_type_symbol
  _atom_site_label
  _atom_site_symmetry_multiplicity
  _atom_site_fract_x
  _atom_site_fract_y
  _atom_site_fract_z
  _atom_site_occupancy
  Co  Co1       1.0  0.69739  0.37506  0.98959  1.0000
  Co  Co2       1.0  0.30246  0.62623  0.01050  1.0000
  H   H1        1.0  0.96230  0.35421  0.85873  1.0000
  H   H2        1.0  0.03788  0.64621  0.14099  1.0000
  H   H3        1.0  0.06568  0.35196  0.96058  1.0000
  H   H4        1.0  0.93428  0.65003  0.03908  1.0000
  H   H5        1.0  0.72306  0.56553  0.12360  1.0000
  H   H6        1.0  0.27770  0.43470  0.87690  1.0000
  H   H7        1.0  0.85444  0.54122  0.29117  1.0000
  H   H8        1.0  0.14778  0.45839  0.70882  1.0000
  H   H9        1.0  0.96442  0.32817  0.38420  1.0000
  H   H10       1.0  0.03826  0.67132  0.61537  1.0000
  H   H11       1.0  0.00953  0.08750  0.38404  1.0000
  H   H12       1.0  0.99384  0.91120  0.61466  1.0000
  H   H13       1.0  0.97460  0.91589  0.29705  1.0000
  H   H14       1.0  0.02542  0.08385  0.70189  1.0000
  H   H15       1.0  0.86376  0.84807  0.14350  1.0000
  H   H16       1.0  0.13050  0.15315  0.85553  1.0000
  H   H17       1.0  0.71762  0.91598  0.98097  1.0000
  H   H18       1.0  0.27200  0.08764  0.01971  1.0000
  H   H19       1.0  0.64159  0.14241  0.91083  1.0000
  H   H20       1.0  0.35052  0.86137  0.09040  1.0000
  H   H21       1.0  0.39522  0.26386  0.80398  1.0000
  H   H22       1.0  0.60103  0.73858  0.19510  1.0000
  H   H23       1.0  0.23789  0.20398  0.67324  1.0000
  H   H24       1.0  0.76082  0.79696  0.32569  1.0000
  H   H25       1.0  0.70836  0.20083  0.45876  1.0000
  H   H26       1.0  0.29645  0.79261  0.54305  1.0000
  H   H27       1.0  0.86243  0.26504  0.58932  1.0000
  H   H28       1.0  0.13974  0.73069  0.41243  1.0000
  H   H29       1.0  0.33973  0.10729  0.16657  1.0000
  H   H30       1.0  0.66192  0.89389  0.83203  1.0000
  H   H31       1.0  0.37315  0.02800  0.34841  1.0000
  H   H32       1.0  0.62904  0.97075  0.64967  1.0000
  H   H33       1.0  0.40058  0.38913  0.40927  1.0000
  H   H34       1.0  0.60324  0.60821  0.59188  1.0000
  H   H35       1.0  0.38577  0.46192  0.22539  1.0000
  H   H36       1.0  0.61692  0.53779  0.77626  1.0000
  C   C1        1.0  0.77575  0.47438  0.16511  1.0000
  C   C2        1.0  0.22546  0.52574  0.83509  1.0000
  C   C3        1.0  0.84637  0.45860  0.25994  1.0000
  C   C4        1.0  0.15554  0.54109  0.74009  1.0000
  C   C5        1.0  0.90735  0.34064  0.31135  1.0000
  C   C6        1.0  0.09491  0.65890  0.68836  1.0000
  C   C7        1.0  0.89767  0.23579  0.26693  1.0000
  C   C8        1.0  0.10415  0.76390  0.73266  1.0000
  C   C9        1.0  0.95140  0.10803  0.31094  1.0000
  C   C10       1.0  0.05048  0.89141  0.68815  1.0000
  C   C11       1.0  0.93256  0.01264  0.26294  1.0000
  C   C12       1.0  0.06752  0.98726  0.73614  1.0000
  C   C13       1.0  0.85873  0.03683  0.16620  1.0000
  C   C14       1.0  0.13951  0.96381  0.83331  1.0000
  C   C15       1.0  0.82590  0.94621  0.11310  1.0000
  C   C16       1.0  0.16919  0.05532  0.88658  1.0000
  C   C17       1.0  0.74624  0.98474  0.02208  1.0000
  C   C18       1.0  0.24627  0.01801  0.97836  1.0000
  C   C19       1.0  0.70498  0.11078  0.98185  1.0000
  C   C20       1.0  0.28909  0.89197  0.01878  1.0000
  C   C21       1.0  0.81168  0.16156  0.12069  1.0000
  C   C22       1.0  0.18757  0.83923  0.87908  1.0000
  C   C23       1.0  0.82909  0.25963  0.17076  1.0000
  C   C24       1.0  0.17195  0.74056  0.82902  1.0000
  C   C25       1.0  0.73252  0.30970  0.78105  1.0000
  C   C26       1.0  0.26636  0.69053  0.21914  1.0000
  C   C27       1.0  0.63771  0.27063  0.70449  1.0000
  C   C28       1.0  0.36153  0.72874  0.29591  1.0000
  C   C29       1.0  0.46285  0.25115  0.72793  1.0000
  C   C30       1.0  0.53541  0.74955  0.27167  1.0000
  C   C31       1.0  0.37520  0.21674  0.65560  1.0000
  C   C32       1.0  0.62430  0.78307  0.34384  1.0000
  C   C33       1.0  0.46381  0.20030  0.55849  1.0000
  C   C34       1.0  0.53786  0.79716  0.44164  1.0000
  C   C35       1.0  0.64024  0.21623  0.53419  1.0000
  C   C36       1.0  0.36255  0.77953  0.46691  1.0000
  C   C37       1.0  0.72543  0.25157  0.60699  1.0000
  C   C38       1.0  0.27598  0.74529  0.39412  1.0000
  C   C39       1.0  0.32693  0.34223  0.07707  1.0000
  C   C40       1.0  0.67300  0.65946  0.92343  1.0000
  C   C41       1.0  0.35689  0.29113  0.18480  1.0000
  C   C42       1.0  0.64447  0.70951  0.81544  1.0000
  C   C43       1.0  0.35559  0.16820  0.21965  1.0000
  C   C44       1.0  0.64601  0.83216  0.77968  1.0000
  C   C45       1.0  0.37287  0.12369  0.32110  1.0000
  C   C46       1.0  0.62915  0.87539  0.67801  1.0000
  C   C47       1.0  0.38454  0.20440  0.38948  1.0000
  C   C48       1.0  0.61825  0.79362  0.61039  1.0000
  C   C49       1.0  0.38986  0.32673  0.35602  1.0000
  C   C50       1.0  0.61319  0.67145  0.64467  1.0000
  C   C51       1.0  0.37943  0.36804  0.25365  1.0000
  C   C52       1.0  0.62295  0.63151  0.74723  1.0000
  N   N1        1.0  0.76881  0.37667  0.12030  1.0000
  N   N2        1.0  0.23225  0.62368  0.87973  1.0000
  N   N3        1.0  0.74010  0.19891  0.02864  1.0000
  N   N4        1.0  0.25776  0.80279  0.97153  1.0000
  O   O1        1.0  0.62798  0.34951  0.86067  1.0000
  O   O2        1.0  0.37089  0.65174  0.13924  1.0000
  O   O3        1.0  0.90254  0.30235  0.76303  1.0000
  O   O4        1.0  0.09639  0.69774  0.23704  1.0000
  O   O5        1.0  0.37522  0.16010  0.49120  1.0000
  O   O6        1.0  0.62784  0.83697  0.50846  1.0000
  O   O7        1.0  0.24712  0.28967  0.02678  1.0000
  O   O8        1.0  0.75108  0.71299  0.97392  1.0000
  O   O9        1.0  0.39187  0.43521  0.04166  1.0000
  O   O10       1.0  0.60865  0.56627  0.95903  1.0000
  O   O11       1.0  0.95347  0.39284  0.92326  1.0000
  O   O12       1.0  0.04646  0.60818  0.07618  1.0000
