data_image0
_chemical_formula_structural       Zn2Cd4H28C36O32
_chemical_formula_sum              "Zn2 Cd4 H28 C36 O32"
_cell_length_a       7.00328
_cell_length_b       10.3527
_cell_length_c       16.3076
_cell_angle_alpha    81.9178
_cell_angle_beta     78.1042
_cell_angle_gamma    70.2693

_space_group_name_H-M_alt    "P 1"
_space_group_IT_number       1

loop_
  _space_group_symop_operation_xyz
  'x, y, z'

loop_
  _atom_site_type_symbol
  _atom_site_label
  _atom_site_symmetry_multiplicity
  _atom_site_fract_x
  _atom_site_fract_y
  _atom_site_fract_z
  _atom_site_occupancy
  Zn  Zn1       1.0  0.74484  0.24993  0.75018  1.0000
  Zn  Zn2       1.0  0.25516  0.75007  0.24982  1.0000
  Cd  Cd1       1.0  0.29883  0.39320  0.97225  1.0000
  Cd  Cd2       1.0  0.66269  0.10792  0.52853  1.0000
  Cd  Cd3       1.0  0.70117  0.60680  0.02775  1.0000
  Cd  Cd4       1.0  0.33731  0.89208  0.47147  1.0000
  H   H1        1.0  0.37475  0.90653  0.97093  1.0000
  H   H2        1.0  0.25154  0.59406  0.52970  1.0000
  H   H3        1.0  0.62526  0.09346  0.02907  1.0000
  H   H4        1.0  0.74846  0.40594  0.47030  1.0000
  H   H5        1.0  0.32142  0.73456  0.75387  1.0000
  H   H6        1.0  0.81118  0.76535  0.74530  1.0000
  H   H7        1.0  0.67858  0.26544  0.24613  1.0000
  H   H8        1.0  0.18882  0.23465  0.25470  1.0000
  H   H9        1.0  0.42041  0.12658  0.72791  1.0000
  H   H10       1.0  0.27422  0.37252  0.77258  1.0000
  H   H11       1.0  0.57959  0.87343  0.27209  1.0000
  H   H12       1.0  0.72578  0.62748  0.22742  1.0000
  H   H13       1.0  0.96611  0.30080  0.85637  1.0000
  H   H14       1.0  0.12204  0.19935  0.64483  1.0000
  H   H15       1.0  0.03389  0.69920  0.14363  1.0000
  H   H16       1.0  0.87796  0.80065  0.35517  1.0000
  H   H17       1.0  0.79650  0.24552  0.90612  1.0000
  H   H18       1.0  0.94746  0.25437  0.59396  1.0000
  H   H19       1.0  0.20350  0.75448  0.09388  1.0000
  H   H20       1.0  0.05254  0.74562  0.40604  1.0000
  H   H21       1.0  0.63000  0.52419  0.70333  1.0000
  H   H22       1.0  0.85756  0.97632  0.79714  1.0000
  H   H23       1.0  0.37000  0.47581  0.29667  1.0000
  H   H24       1.0  0.14244  0.02368  0.20286  1.0000
  H   H25       1.0  0.52925  0.51188  0.79958  1.0000
  H   H26       1.0  0.84139  0.98798  0.70039  1.0000
  H   H27       1.0  0.47075  0.48812  0.20042  1.0000
  H   H28       1.0  0.15861  0.01202  0.29961  1.0000
  C   C1        1.0  0.39887  0.02861  0.85352  1.0000
  C   C2        1.0  0.27990  0.47120  0.64706  1.0000
  C   C3        1.0  0.60113  0.97139  0.14648  1.0000
  C   C4        1.0  0.72010  0.52880  0.35294  1.0000
  C   C5        1.0  0.37343  0.91294  0.90403  1.0000
  C   C6        1.0  0.18991  0.58733  0.59638  1.0000
  C   C7        1.0  0.62657  0.08707  0.09597  1.0000
  C   C8        1.0  0.81009  0.41267  0.40362  1.0000
  C   C9        1.0  0.35322  0.80406  0.86821  1.0000
  C   C10       1.0  0.02589  0.69613  0.63174  1.0000
  C   C11       1.0  0.64678  0.19593  0.13179  1.0000
  C   C12       1.0  0.97411  0.30387  0.36826  1.0000
  C   C13       1.0  0.34620  0.81538  0.78225  1.0000
  C   C14       1.0  0.94445  0.68443  0.71735  1.0000
  C   C15       1.0  0.65381  0.18462  0.21775  1.0000
  C   C16       1.0  0.05555  0.31557  0.28265  1.0000
  C   C17       1.0  0.36761  0.93237  0.73204  1.0000
  C   C18       1.0  0.03208  0.56704  0.76777  1.0000
  C   C19       1.0  0.63239  0.06763  0.26796  1.0000
  C   C20       1.0  0.96792  0.43295  0.23223  1.0000
  C   C21       1.0  0.39848  0.03721  0.76749  1.0000
  C   C22       1.0  0.20253  0.46212  0.73284  1.0000
  C   C23       1.0  0.60151  0.96279  0.23251  1.0000
  C   C24       1.0  0.79747  0.53788  0.26716  1.0000
  C   C25       1.0  0.40781  0.14837  0.89188  1.0000
  C   C26       1.0  0.44604  0.35202  0.60851  1.0000
  C   C27       1.0  0.59219  0.85163  0.10812  1.0000
  C   C28       1.0  0.55396  0.64798  0.39149  1.0000
  C   C29       1.0  0.34998  0.67484  0.92136  1.0000
  C   C30       1.0  0.94711  0.82553  0.57836  1.0000
  C   C31       1.0  0.65002  0.32516  0.07864  1.0000
  C   C32       1.0  0.05289  0.17447  0.42164  1.0000
  C   C33       1.0  0.35886  0.94676  0.64059  1.0000
  C   C34       1.0  0.94631  0.55253  0.85892  1.0000
  C   C35       1.0  0.64114  0.05324  0.35941  1.0000
  C   C36       1.0  0.05369  0.44747  0.14108  1.0000
  O   O1        1.0  0.49325  0.23467  0.84818  1.0000
  O   O2        1.0  0.57465  0.26474  0.65235  1.0000
  O   O3        1.0  0.50675  0.76533  0.15182  1.0000
  O   O4        1.0  0.42534  0.73526  0.34765  1.0000
  O   O5        1.0  0.31771  0.16703  0.96697  1.0000
  O   O6        1.0  0.44906  0.33457  0.53300  1.0000
  O   O7        1.0  0.68229  0.83297  0.03303  1.0000
  O   O8        1.0  0.55093  0.66543  0.46700  1.0000
  O   O9        1.0  0.35528  0.06182  0.59837  1.0000
  O   O10       1.0  0.01587  0.43732  0.90129  1.0000
  O   O11       1.0  0.64472  0.93817  0.40163  1.0000
  O   O12       1.0  0.98413  0.56268  0.09871  1.0000
  O   O13       1.0  0.35350  0.84353  0.60842  1.0000
  O   O14       1.0  0.80577  0.65542  0.89080  1.0000
  O   O15       1.0  0.64649  0.15647  0.39158  1.0000
  O   O16       1.0  0.19423  0.34458  0.10920  1.0000
  O   O17       1.0  0.34846  0.57279  0.88454  1.0000
  O   O18       1.0  0.80702  0.92735  0.61498  1.0000
  O   O19       1.0  0.65154  0.42721  0.11546  1.0000
  O   O20       1.0  0.19297  0.07265  0.38502  1.0000
  O   O21       1.0  0.35513  0.66640  0.99939  1.0000
  O   O22       1.0  0.02112  0.83412  0.50066  1.0000
  O   O23       1.0  0.64487  0.33359  0.00061  1.0000
  O   O24       1.0  0.97887  0.16588  0.49934  1.0000
  O   O25       1.0  0.89677  0.23296  0.85306  1.0000
  O   O26       1.0  0.98180  0.26676  0.64760  1.0000
  O   O27       1.0  0.10323  0.76704  0.14694  1.0000
  O   O28       1.0  0.01820  0.73324  0.35240  1.0000
  O   O29       1.0  0.64806  0.46770  0.75588  1.0000
  O   O30       1.0  0.87179  0.03249  0.74460  1.0000
  O   O31       1.0  0.35194  0.53230  0.24412  1.0000
  O   O32       1.0  0.12821  0.96751  0.25540  1.0000
