data_image0
_chemical_formula_structural       Fe2H24C36N4O8
_chemical_formula_sum              "Fe2 H24 C36 N4 O8"
_cell_length_a       8.73533
_cell_length_b       9.9225
_cell_length_c       10.089
_cell_angle_alpha    77.2081
_cell_angle_beta     71.3151
_cell_angle_gamma    81.1955

_space_group_name_H-M_alt    "P 1"
_space_group_IT_number       1

loop_
  _space_group_symop_operation_xyz
  'x, y, z'

loop_
  _atom_site_type_symbol
  _atom_site_label
  _atom_site_symmetry_multiplicity
  _atom_site_fract_x
  _atom_site_fract_y
  _atom_site_fract_z
  _atom_site_occupancy
  Fe  Fe1       1.0  0.93905  0.36332  0.88747  1.0000
  Fe  Fe2       1.0  0.06092  0.63668  0.11254  1.0000
  H   H1        1.0  0.02962  0.54129  0.60985  1.0000
  H   H2        1.0  0.97037  0.45873  0.39015  1.0000
  H   H3        1.0  0.89258  0.91560  0.94134  1.0000
  H   H4        1.0  0.10735  0.08440  0.05869  1.0000
  H   H5        1.0  0.64625  0.55077  0.99489  1.0000
  H   H6        1.0  0.35372  0.44921  0.00512  1.0000
  H   H7        1.0  0.25272  0.55103  0.38847  1.0000
  H   H8        1.0  0.74728  0.44898  0.61153  1.0000
  H   H9        1.0  0.44264  0.56663  0.22283  1.0000
  H   H10       1.0  0.55737  0.43337  0.77719  1.0000
  H   H11       1.0  0.80838  0.72640  0.62945  1.0000
  H   H12       1.0  0.19171  0.27360  0.37050  1.0000
  H   H13       1.0  0.77860  0.17302  0.57561  1.0000
  H   H14       1.0  0.22148  0.82698  0.42436  1.0000
  H   H15       1.0  0.25242  0.19530  0.81141  1.0000
  H   H16       1.0  0.74753  0.80468  0.18858  1.0000
  H   H17       1.0  0.48858  0.18720  0.59754  1.0000
  H   H18       1.0  0.51140  0.81280  0.40247  1.0000
  H   H19       1.0  0.63552  0.15749  0.38690  1.0000
  H   H20       1.0  0.36449  0.84252  0.61312  1.0000
  H   H21       1.0  0.83628  0.16145  0.15050  1.0000
  H   H22       1.0  0.16372  0.83854  0.84952  1.0000
  H   H23       1.0  0.76004  0.95887  0.48958  1.0000
  H   H24       1.0  0.24006  0.04114  0.51037  1.0000
  C   C1        1.0  0.89105  0.66711  0.87995  1.0000
  C   C2        1.0  0.10893  0.33288  0.12005  1.0000
  C   C3        1.0  0.52113  0.36451  0.33174  1.0000
  C   C4        1.0  0.47887  0.63549  0.66827  1.0000
  C   C5        1.0  0.13431  0.46528  0.60211  1.0000
  C   C6        1.0  0.86569  0.53472  0.39789  1.0000
  C   C7        1.0  0.86024  0.92469  0.84391  1.0000
  C   C8        1.0  0.13974  0.07531  0.15610  1.0000
  C   C9        1.0  0.39442  0.36780  0.46833  1.0000
  C   C10       1.0  0.60558  0.63220  0.53168  1.0000
  C   C11       1.0  0.64357  0.46729  0.08535  1.0000
  C   C12       1.0  0.35641  0.53272  0.91466  1.0000
  C   C13       1.0  0.83370  0.05653  0.76555  1.0000
  C   C14       1.0  0.16629  0.94347  0.23445  1.0000
  C   C15       1.0  0.86088  0.17682  0.81621  1.0000
  C   C16       1.0  0.13910  0.82317  0.18381  1.0000
  C   C17       1.0  0.26214  0.46974  0.47837  1.0000
  C   C18       1.0  0.73786  0.53026  0.52163  1.0000
  C   C19       1.0  0.85106  0.80507  0.79616  1.0000
  C   C20       1.0  0.14895  0.19494  0.20383  1.0000
  C   C21       1.0  0.52808  0.47445  0.21518  1.0000
  C   C22       1.0  0.47192  0.52556  0.78484  1.0000
  C   C23       1.0  0.81378  0.81909  0.66805  1.0000
  C   C24       1.0  0.18628  0.18091  0.33191  1.0000
  C   C25       1.0  0.79493  0.07004  0.63816  1.0000
  C   C26       1.0  0.20514  0.92997  0.36181  1.0000
  C   C27       1.0  0.25845  0.27149  0.71435  1.0000
  C   C28       1.0  0.74152  0.72850  0.28565  1.0000
  C   C29       1.0  0.39025  0.26845  0.59289  1.0000
  C   C30       1.0  0.60974  0.73154  0.40712  1.0000
  C   C31       1.0  0.63548  0.24983  0.30507  1.0000
  C   C32       1.0  0.36454  0.75019  0.69494  1.0000
  C   C33       1.0  0.74865  0.25025  0.17227  1.0000
  C   C34       1.0  0.25134  0.74975  0.82773  1.0000
  C   C35       1.0  0.78540  0.95060  0.59041  1.0000
  C   C36       1.0  0.21469  0.04941  0.40954  1.0000
  N   N1        1.0  0.75737  0.35889  0.06182  1.0000
  N   N2        1.0  0.24261  0.64112  0.93818  1.0000
  N   N3        1.0  0.12900  0.36730  0.72013  1.0000
  N   N4        1.0  0.87097  0.63270  0.27986  1.0000
  O   O1        1.0  0.94520  0.15891  0.90333  1.0000
  O   O2        1.0  0.05478  0.84109  0.09668  1.0000
  O   O3        1.0  0.90974  0.66714  0.99964  1.0000
  O   O4        1.0  0.09024  0.33286  0.00037  1.0000
  O   O5        1.0  0.81078  0.30294  0.77405  1.0000
  O   O6        1.0  0.18919  0.69705  0.22598  1.0000
  O   O7        1.0  0.89850  0.56011  0.82581  1.0000
  O   O8        1.0  0.10146  0.43989  0.17419  1.0000
