data_image0
_chemical_formula_structural       K2H50C26N4O16
_chemical_formula_sum              "K2 H50 C26 N4 O16"
_cell_length_a       7.90392
_cell_length_b       8.12448
_cell_length_c       13.9969
_cell_angle_alpha    90
_cell_angle_beta     89.9998
_cell_angle_gamma    98.469

_space_group_name_H-M_alt    "P 1"
_space_group_IT_number       1

loop_
  _space_group_symop_operation_xyz
  'x, y, z'

loop_
  _atom_site_type_symbol
  _atom_site_label
  _atom_site_symmetry_multiplicity
  _atom_site_fract_x
  _atom_site_fract_y
  _atom_site_fract_z
  _atom_site_occupancy
  K   K1        1.0  0.23830  0.82083  0.24787  1.0000
  K   K2        1.0  0.73828  0.82082  0.75214  1.0000
  H   H1        1.0  0.17005  0.82327  0.53032  1.0000
  H   H2        1.0  0.67005  0.82327  0.46968  1.0000
  H   H3        1.0  0.37871  0.78851  0.56795  1.0000
  H   H4        1.0  0.87871  0.78851  0.43204  1.0000
  H   H5        1.0  0.37737  0.57192  0.43936  1.0000
  H   H6        1.0  0.87737  0.57192  0.56064  1.0000
  H   H7        1.0  0.22109  0.52257  0.53172  1.0000
  H   H8        1.0  0.72109  0.52257  0.46828  1.0000
  H   H9        1.0  0.03770  0.33684  0.42261  1.0000
  H   H10       1.0  0.53770  0.33684  0.57739  1.0000
  H   H11       1.0  0.20979  0.37895  0.33951  1.0000
  H   H12       1.0  0.70979  0.37895  0.66049  1.0000
  H   H13       1.0  0.92812  0.27940  0.26485  1.0000
  H   H14       1.0  0.42812  0.27941  0.73516  1.0000
  H   H15       1.0  0.84643  0.46132  0.30717  1.0000
  H   H16       1.0  0.34643  0.46132  0.69283  1.0000
  H   H17       1.0  0.81398  0.53343  0.13525  1.0000
  H   H18       1.0  0.31398  0.53343  0.86475  1.0000
  H   H19       1.0  0.90947  0.35641  0.09991  1.0000
  H   H20       1.0  0.40946  0.35641  0.90009  1.0000
  H   H21       1.0  0.15808  0.54312  0.03044  1.0000
  H   H22       1.0  0.65808  0.54311  0.96956  1.0000
  H   H23       1.0  0.96036  0.57121  0.97541  1.0000
  H   H24       1.0  0.46036  0.57121  0.02459  1.0000
  H   H25       1.0  0.05639  0.85887  0.93202  1.0000
  H   H26       1.0  0.55640  0.85886  0.06798  1.0000
  H   H27       1.0  0.26220  0.82138  0.97180  1.0000
  H   H28       1.0  0.76220  0.82138  0.02820  1.0000
  H   H29       1.0  0.21613  0.12207  0.96768  1.0000
  H   H30       1.0  0.71613  0.12206  0.03232  1.0000
  H   H31       1.0  0.05828  0.07800  0.05988  1.0000
  H   H32       1.0  0.55828  0.07800  0.94012  1.0000
  H   H33       1.0  0.23358  0.27209  0.15803  1.0000
  H   H34       1.0  0.73357  0.27208  0.84197  1.0000
  H   H35       1.0  0.40902  0.30445  0.07608  1.0000
  H   H36       1.0  0.90902  0.30444  0.92392  1.0000
  H   H37       1.0  0.58217  0.16052  0.19719  1.0000
  H   H38       1.0  0.08217  0.16052  0.80281  1.0000
  H   H39       1.0  0.52680  0.35983  0.23120  1.0000
  H   H40       1.0  0.02680  0.35983  0.76880  1.0000
  H   H41       1.0  0.53291  0.28819  0.40355  1.0000
  H   H42       1.0  0.03291  0.28819  0.59644  1.0000
  H   H43       1.0  0.61227  0.10505  0.36193  1.0000
  H   H44       1.0  0.11227  0.10505  0.63807  1.0000
  H   H45       1.0  0.47289  0.07420  0.52572  1.0000
  H   H46       1.0  0.97289  0.07420  0.47428  1.0000
  H   H47       1.0  0.27495  0.10524  0.47176  1.0000
  H   H48       1.0  0.77495  0.10524  0.52824  1.0000
  H   H49       1.0  0.82916  0.72021  0.26890  1.0000
  H   H50       1.0  0.32915  0.72021  0.73110  1.0000
  C   C1        1.0  0.29074  0.78282  0.50642  1.0000
  C   C2        1.0  0.79074  0.78282  0.49358  1.0000
  C   C3        1.0  0.25869  0.60612  0.47043  1.0000
  C   C4        1.0  0.75869  0.60612  0.52957  1.0000
  C   C5        1.0  0.09130  0.42172  0.36483  1.0000
  C   C6        1.0  0.59130  0.42172  0.63517  1.0000
  C   C7        1.0  0.96319  0.41141  0.28462  1.0000
  C   C8        1.0  0.46318  0.41141  0.71538  1.0000
  C   C9        1.0  0.93740  0.48874  0.12171  1.0000
  C   C10       1.0  0.43739  0.48874  0.87830  1.0000
  C   C11       1.0  0.03433  0.58843  0.04272  1.0000
  C   C12       1.0  0.53433  0.58843  0.95729  1.0000
  C   C13       1.0  0.14178  0.86376  0.99453  1.0000
  C   C14       1.0  0.64178  0.86376  0.00547  1.0000
  C   C15       1.0  0.17626  0.04080  0.02961  1.0000
  C   C16       1.0  0.67626  0.04079  0.97039  1.0000
  C   C17       1.0  0.35000  0.22344  0.13431  1.0000
  C   C18       1.0  0.85000  0.22343  0.86569  1.0000
  C   C19       1.0  0.47549  0.22860  0.21572  1.0000
  C   C20       1.0  0.97549  0.22860  0.78428  1.0000
  C   C21       1.0  0.49507  0.15783  0.37954  1.0000
  C   C22       1.0  0.99507  0.15783  0.62046  1.0000
  C   C23       1.0  0.39790  0.05903  0.45873  1.0000
  C   C24       1.0  0.89790  0.05903  0.54127  1.0000
  C   C25       1.0  0.75192  0.81886  0.25275  1.0000
  C   C26       1.0  0.25189  0.81888  0.74725  1.0000
  N   N1        1.0  0.58268  0.78648  0.23738  1.0000
  N   N2        1.0  0.08267  0.78648  0.76262  1.0000
  N   N3        1.0  0.81993  0.98093  0.25023  1.0000
  N   N4        1.0  0.31991  0.98093  0.74977  1.0000
  O   O1        1.0  0.36770  0.88810  0.43163  1.0000
  O   O2        1.0  0.86770  0.88810  0.56837  1.0000
  O   O3        1.0  0.12630  0.58875  0.40009  1.0000
  O   O4        1.0  0.62630  0.58875  0.59991  1.0000
  O   O5        1.0  0.04109  0.50531  0.20523  1.0000
  O   O6        1.0  0.54108  0.50532  0.79477  1.0000
  O   O7        1.0  0.06252  0.75933  0.06952  1.0000
  O   O8        1.0  0.56251  0.75933  0.93049  1.0000
  O   O9        1.0  0.30781  0.05637  0.10021  1.0000
  O   O10       1.0  0.80781  0.05636  0.89979  1.0000
  O   O11       1.0  0.38714  0.15291  0.29788  1.0000
  O   O12       1.0  0.88714  0.15291  0.70212  1.0000
  O   O13       1.0  0.51571  0.63296  0.24256  1.0000
  O   O14       1.0  0.01570  0.63295  0.75744  1.0000
  O   O15       1.0  0.97950  0.01196  0.27016  1.0000
  O   O16       1.0  0.47950  0.01196  0.72985  1.0000
