data_image0
_chemical_formula_structural       Ca4H8C24S4O16
_chemical_formula_sum              "Ca4 H8 C24 S4 O16"
_cell_length_a       5.30719
_cell_length_b       6.94767
_cell_length_c       18.2431
_cell_angle_alpha    90.0003
_cell_angle_beta     90.0005
_cell_angle_gamma    89.9991

_space_group_name_H-M_alt    "P 1"
_space_group_IT_number       1

loop_
  _space_group_symop_operation_xyz
  'x, y, z'

loop_
  _atom_site_type_symbol
  _atom_site_label
  _atom_site_symmetry_multiplicity
  _atom_site_fract_x
  _atom_site_fract_y
  _atom_site_fract_z
  _atom_site_occupancy
  Ca  Ca1       1.0  0.15271  0.25000  0.00000  1.0000
  Ca  Ca2       1.0  0.84729  0.75000  0.50000  1.0000
  Ca  Ca3       1.0  0.84729  0.75000  0.00000  1.0000
  Ca  Ca4       1.0  0.15271  0.25001  0.50000  1.0000
  H   H1        1.0  0.09537  0.94605  0.82270  1.0000
  H   H2        1.0  0.90463  0.05395  0.32270  1.0000
  H   H3        1.0  0.09537  0.55395  0.17730  1.0000
  H   H4        1.0  0.90462  0.44603  0.67730  1.0000
  H   H5        1.0  0.90462  0.05394  0.17730  1.0000
  H   H6        1.0  0.09539  0.94606  0.67730  1.0000
  H   H7        1.0  0.90465  0.44605  0.82269  1.0000
  H   H8        1.0  0.09536  0.55395  0.32270  1.0000
  C   C1        1.0  0.72616  0.08095  0.81750  1.0000
  C   C2        1.0  0.27385  0.91904  0.31750  1.0000
  C   C3        1.0  0.72616  0.41905  0.18249  1.0000
  C   C4        1.0  0.27384  0.58094  0.68249  1.0000
  C   C5        1.0  0.27383  0.91904  0.18250  1.0000
  C   C6        1.0  0.72616  0.08096  0.68250  1.0000
  C   C7        1.0  0.27383  0.58095  0.81749  1.0000
  C   C8        1.0  0.72617  0.41905  0.31750  1.0000
  C   C9        1.0  0.65907  0.10466  0.89551  1.0000
  C   C10       1.0  0.34093  0.89534  0.39551  1.0000
  C   C11       1.0  0.65906  0.39534  0.10449  1.0000
  C   C12       1.0  0.34091  0.60466  0.60449  1.0000
  C   C13       1.0  0.34094  0.89535  0.10451  1.0000
  C   C14       1.0  0.65906  0.10468  0.60451  1.0000
  C   C15       1.0  0.34093  0.60464  0.89550  1.0000
  C   C16       1.0  0.65908  0.39535  0.39551  1.0000
  C   C17       1.0  0.94372  0.00036  0.78855  1.0000
  C   C18       1.0  0.05629  0.99963  0.28855  1.0000
  C   C19       1.0  0.94372  0.49963  0.21145  1.0000
  C   C20       1.0  0.05628  0.50037  0.71146  1.0000
  C   C21       1.0  0.05629  0.99963  0.21146  1.0000
  C   C22       1.0  0.94372  0.00038  0.71146  1.0000
  C   C23       1.0  0.05628  0.50036  0.78855  1.0000
  C   C24       1.0  0.94371  0.49963  0.28855  1.0000
  S   S1        1.0  0.52327  0.15668  0.75000  1.0000
  S   S2        1.0  0.47674  0.84332  0.25000  1.0000
  S   S3        1.0  0.52328  0.34333  0.25000  1.0000
  S   S4        1.0  0.47671  0.65667  0.75000  1.0000
  O   O1        1.0  0.44205  0.16632  0.91110  1.0000
  O   O2        1.0  0.55794  0.83368  0.41110  1.0000
  O   O3        1.0  0.44205  0.33369  0.08889  1.0000
  O   O4        1.0  0.55792  0.66632  0.58889  1.0000
  O   O5        1.0  0.55795  0.83368  0.08889  1.0000
  O   O6        1.0  0.44205  0.16633  0.58889  1.0000
  O   O7        1.0  0.55794  0.66631  0.91110  1.0000
  O   O8        1.0  0.44206  0.33370  0.41110  1.0000
  O   O9        1.0  0.82974  0.05956  0.94324  1.0000
  O   O10       1.0  0.17028  0.94043  0.44324  1.0000
  O   O11       1.0  0.82978  0.44045  0.05676  1.0000
  O   O12       1.0  0.17021  0.55955  0.55676  1.0000
  O   O13       1.0  0.17023  0.94044  0.05675  1.0000
  O   O14       1.0  0.82977  0.05956  0.55676  1.0000
  O   O15       1.0  0.17024  0.55956  0.94323  1.0000
  O   O16       1.0  0.82978  0.44045  0.44323  1.0000
