data_image0
_chemical_formula_structural       KNaH30Ru2C24O12
_chemical_formula_sum              "K1 Na1 H30 Ru2 C24 O12"
_cell_length_a       9.69581
_cell_length_b       9.69582
_cell_length_c       9.69581
_cell_angle_alpha    62.1688
_cell_angle_beta     62.1686
_cell_angle_gamma    62.1685

_space_group_name_H-M_alt    "P 1"
_space_group_IT_number       1

loop_
  _space_group_symop_operation_xyz
  'x, y, z'

loop_
  _atom_site_type_symbol
  _atom_site_label
  _atom_site_symmetry_multiplicity
  _atom_site_fract_x
  _atom_site_fract_y
  _atom_site_fract_z
  _atom_site_occupancy
  K   K1        1.0  0.50000  0.49999  0.50002  1.0000
  Na  Na1       1.0  0.00000  1.00000  0.00000  1.0000
  H   H1        1.0  0.29803  0.25432  0.50660  1.0000
  H   H2        1.0  0.50661  0.29802  0.25432  1.0000
  H   H3        1.0  0.25432  0.50660  0.29802  1.0000
  H   H4        1.0  0.70197  0.74570  0.49340  1.0000
  H   H5        1.0  0.49340  0.70197  0.74569  1.0000
  H   H6        1.0  0.74568  0.49340  0.70198  1.0000
  H   H7        1.0  0.21315  0.09110  0.64987  1.0000
  H   H8        1.0  0.64987  0.21314  0.09110  1.0000
  H   H9        1.0  0.09110  0.64987  0.21314  1.0000
  H   H10       1.0  0.78685  0.90891  0.35013  1.0000
  H   H11       1.0  0.35013  0.78686  0.90891  1.0000
  H   H12       1.0  0.90890  0.35013  0.78686  1.0000
  H   H13       1.0  0.42265  0.06207  0.60584  1.0000
  H   H14       1.0  0.60584  0.42264  0.06206  1.0000
  H   H15       1.0  0.06207  0.60585  0.42265  1.0000
  H   H16       1.0  0.57735  0.93795  0.39416  1.0000
  H   H17       1.0  0.39416  0.57735  0.93794  1.0000
  H   H18       1.0  0.93794  0.39416  0.57736  1.0000
  H   H19       1.0  0.25006  0.93305  0.42686  1.0000
  H   H20       1.0  0.42686  0.25006  0.93305  1.0000
  H   H21       1.0  0.93305  0.42686  0.25006  1.0000
  H   H22       1.0  0.74994  0.06695  0.57314  1.0000
  H   H23       1.0  0.57314  0.74994  0.06695  1.0000
  H   H24       1.0  0.06695  0.57314  0.74994  1.0000
  H   H25       1.0  0.98070  0.15665  0.47516  1.0000
  H   H26       1.0  0.47517  0.98070  0.15665  1.0000
  H   H27       1.0  0.15665  0.47517  0.98070  1.0000
  H   H28       1.0  0.01930  0.84335  0.52483  1.0000
  H   H29       1.0  0.52483  0.01930  0.84335  1.0000
  H   H30       1.0  0.84335  0.52484  0.01930  1.0000
  Ru  Ru1       1.0  0.13776  0.13776  0.13776  1.0000
  Ru  Ru2       1.0  0.86224  0.86224  0.86224  1.0000
  C   C1        1.0  0.25501  0.21355  0.75985  1.0000
  C   C2        1.0  0.75986  0.25500  0.21354  1.0000
  C   C3        1.0  0.21355  0.75984  0.25501  1.0000
  C   C4        1.0  0.74499  0.78648  0.24015  1.0000
  C   C5        1.0  0.24014  0.74499  0.78647  1.0000
  C   C6        1.0  0.78646  0.24015  0.74500  1.0000
  C   C7        1.0  0.29827  0.15207  0.62188  1.0000
  C   C8        1.0  0.62189  0.29827  0.15206  1.0000
  C   C9        1.0  0.15206  0.62189  0.29827  1.0000
  C   C10       1.0  0.70172  0.84795  0.37811  1.0000
  C   C11       1.0  0.37811  0.70173  0.84794  1.0000
  C   C12       1.0  0.84794  0.37811  0.70173  1.0000
  C   C13       1.0  0.23418  0.05465  0.33447  1.0000
  C   C14       1.0  0.33447  0.23418  0.05465  1.0000
  C   C15       1.0  0.05465  0.33448  0.23418  1.0000
  C   C16       1.0  0.76582  0.94535  0.66553  1.0000
  C   C17       1.0  0.66552  0.76583  0.94535  1.0000
  C   C18       1.0  0.94535  0.66553  0.76582  1.0000
  C   C19       1.0  0.08114  0.18122  0.36247  1.0000
  C   C20       1.0  0.36247  0.08113  0.18122  1.0000
  C   C21       1.0  0.18122  0.36247  0.08114  1.0000
  C   C22       1.0  0.91886  0.81878  0.63753  1.0000
  C   C23       1.0  0.63753  0.91887  0.81878  1.0000
  C   C24       1.0  0.81878  0.63753  0.91886  1.0000
  O   O1        1.0  0.20650  0.11231  0.90662  1.0000
  O   O2        1.0  0.90663  0.20650  0.11230  1.0000
  O   O3        1.0  0.11232  0.90662  0.20650  1.0000
  O   O4        1.0  0.79349  0.88770  0.09338  1.0000
  O   O5        1.0  0.09338  0.79350  0.88770  1.0000
  O   O6        1.0  0.88770  0.09338  0.79350  1.0000
  O   O7        1.0  0.27032  0.34630  0.72932  1.0000
  O   O8        1.0  0.72933  0.27032  0.34629  1.0000
  O   O9        1.0  0.34629  0.72931  0.27033  1.0000
  O   O10       1.0  0.72967  0.65370  0.27068  1.0000
  O   O11       1.0  0.27068  0.72968  0.65371  1.0000
  O   O12       1.0  0.65371  0.27067  0.72968  1.0000
