data_image0
_chemical_formula_structural       Zn2H32C32N4O12
_chemical_formula_sum              "Zn2 H32 C32 N4 O12"
_cell_length_a       7.49476
_cell_length_b       9.64376
_cell_length_c       11.8328
_cell_angle_alpha    66.7978
_cell_angle_beta     81.9438
_cell_angle_gamma    86.1813

_space_group_name_H-M_alt    "P 1"
_space_group_IT_number       1

loop_
  _space_group_symop_operation_xyz
  'x, y, z'

loop_
  _atom_site_type_symbol
  _atom_site_label
  _atom_site_symmetry_multiplicity
  _atom_site_fract_x
  _atom_site_fract_y
  _atom_site_fract_z
  _atom_site_occupancy
  Zn  Zn1       1.0  0.10861  0.66538  0.25947  1.0000
  Zn  Zn2       1.0  0.89140  0.33462  0.74053  1.0000
  H   H1        1.0  0.25563  0.15197  0.48232  1.0000
  H   H2        1.0  0.74437  0.84803  0.51768  1.0000
  H   H3        1.0  0.34211  0.55058  0.46865  1.0000
  H   H4        1.0  0.65789  0.44943  0.53135  1.0000
  H   H5        1.0  0.38808  0.91626  0.58653  1.0000
  H   H6        1.0  0.61192  0.08374  0.41347  1.0000
  H   H7        1.0  0.04799  0.19689  0.26238  1.0000
  H   H8        1.0  0.95201  0.80311  0.73762  1.0000
  H   H9        1.0  0.09885  0.96105  0.28390  1.0000
  H   H10       1.0  0.90115  0.03895  0.71610  1.0000
  H   H11       1.0  0.46145  0.64706  0.61114  1.0000
  H   H12       1.0  0.53855  0.35294  0.38886  1.0000
  H   H13       1.0  0.42423  0.87658  0.12300  1.0000
  H   H14       1.0  0.57577  0.12342  0.87700  1.0000
  H   H15       1.0  0.37676  0.42181  0.20567  1.0000
  H   H16       1.0  0.62324  0.57819  0.79433  1.0000
  H   H17       1.0  0.86913  0.64286  0.99876  1.0000
  H   H18       1.0  0.13086  0.35714  0.00124  1.0000
  H   H19       1.0  0.50489  0.21306  0.21711  1.0000
  H   H20       1.0  0.49511  0.78694  0.78289  1.0000
  H   H21       1.0  0.73236  0.88344  0.00648  1.0000
  H   H22       1.0  0.26764  0.11656  0.99352  1.0000
  H   H23       1.0  0.85509  0.37206  0.06510  1.0000
  H   H24       1.0  0.14491  0.62795  0.93490  1.0000
  H   H25       1.0  0.84695  0.66438  0.43473  1.0000
  H   H26       1.0  0.15305  0.33562  0.56527  1.0000
  H   H27       1.0  0.08852  0.86371  0.02673  1.0000
  H   H28       1.0  0.91148  0.13629  0.97327  1.0000
  H   H29       1.0  0.78459  0.79287  0.31058  1.0000
  H   H30       1.0  0.21541  0.20713  0.68942  1.0000
  H   H31       1.0  0.00133  0.94576  0.12090  1.0000
  H   H32       1.0  0.99867  0.05424  0.87910  1.0000
  C   C1        1.0  0.20078  0.11665  0.41710  1.0000
  C   C2        1.0  0.79922  0.88335  0.58290  1.0000
  C   C3        1.0  0.24051  0.96112  0.43210  1.0000
  C   C4        1.0  0.75949  0.03888  0.56790  1.0000
  C   C5        1.0  0.31808  0.66645  0.46057  1.0000
  C   C6        1.0  0.68191  0.33355  0.53943  1.0000
  C   C7        1.0  0.34284  0.86926  0.52555  1.0000
  C   C8        1.0  0.65716  0.13074  0.47445  1.0000
  C   C9        1.0  0.09222  0.37808  0.32296  1.0000
  C   C10       1.0  0.90778  0.62192  0.67704  1.0000
  C   C11       1.0  0.10727  0.22049  0.33196  1.0000
  C   C12       1.0  0.89273  0.77951  0.66804  1.0000
  C   C13       1.0  0.18079  0.89630  0.35716  1.0000
  C   C14       1.0  0.81921  0.10369  0.64284  1.0000
  C   C15       1.0  0.38252  0.72097  0.53959  1.0000
  C   C16       1.0  0.61748  0.27903  0.46041  1.0000
  C   C17       1.0  0.48672  0.77574  0.11372  1.0000
  C   C18       1.0  0.51327  0.22425  0.88628  1.0000
  C   C19       1.0  0.46127  0.52114  0.16205  1.0000
  C   C20       1.0  0.53873  0.47886  0.83795  1.0000
  C   C21       1.0  0.63577  0.51009  0.10480  1.0000
  C   C22       1.0  0.36423  0.48991  0.89521  1.0000
  C   C23       1.0  0.74517  0.08597  0.18571  1.0000
  C   C24       1.0  0.25483  0.91403  0.81429  1.0000
  C   C25       1.0  0.73361  0.64437  0.04571  1.0000
  C   C26       1.0  0.26639  0.35563  0.95429  1.0000
  C   C27       1.0  0.64232  0.22851  0.16959  1.0000
  C   C28       1.0  0.35768  0.77149  0.83041  1.0000
  C   C29       1.0  0.65809  0.77827  0.04998  1.0000
  C   C30       1.0  0.34191  0.22173  0.95002  1.0000
  C   C31       1.0  0.71674  0.36614  0.11012  1.0000
  C   C32       1.0  0.28326  0.63386  0.88988  1.0000
  N   N1        1.0  0.38851  0.64908  0.16752  1.0000
  N   N2        1.0  0.61149  0.35092  0.83248  1.0000
  N   N3        1.0  0.21810  0.75306  0.37151  1.0000
  N   N4        1.0  0.78190  0.24694  0.62849  1.0000
  O   O1        1.0  0.90319  0.09516  0.12276  1.0000
  O   O2        1.0  0.09681  0.90484  0.87724  1.0000
  O   O3        1.0  0.08445  0.86206  0.11204  1.0000
  O   O4        1.0  0.91555  0.13794  0.88796  1.0000
  O   O5        1.0  0.14302  0.41441  0.40636  1.0000
  O   O6        1.0  0.85698  0.58559  0.59365  1.0000
  O   O7        1.0  0.03963  0.47905  0.22439  1.0000
  O   O8        1.0  0.96037  0.52095  0.77562  1.0000
  O   O9        1.0  0.84365  0.69076  0.34488  1.0000
  O   O10       1.0  0.15635  0.30924  0.65512  1.0000
  O   O11       1.0  0.67519  0.96420  0.26392  1.0000
  O   O12       1.0  0.32481  0.03580  0.73608  1.0000
