data_image0
_chemical_formula_structural       Zn2H32C48N4Cl4O4
_chemical_formula_sum              "Zn2 H32 C48 N4 Cl4 O4"
_cell_length_a       8.98449
_cell_length_b       10.7624
_cell_length_c       12.2233
_cell_angle_alpha    65.0113
_cell_angle_beta     89.6972
_cell_angle_gamma    83.4241

_space_group_name_H-M_alt    "P 1"
_space_group_IT_number       1

loop_
  _space_group_symop_operation_xyz
  'x, y, z'

loop_
  _atom_site_type_symbol
  _atom_site_label
  _atom_site_symmetry_multiplicity
  _atom_site_fract_x
  _atom_site_fract_y
  _atom_site_fract_z
  _atom_site_occupancy
  Zn  Zn1       1.0  0.89796  0.65583  0.62436  1.0000
  Zn  Zn2       1.0  0.10204  0.34417  0.37564  1.0000
  H   H1        1.0  0.95128  0.09504  0.16672  1.0000
  H   H2        1.0  0.04872  0.90496  0.83328  1.0000
  H   H3        1.0  0.98248  0.24509  0.94961  1.0000
  H   H4        1.0  0.01752  0.75491  0.05039  1.0000
  H   H5        1.0  0.83236  0.22706  0.79073  1.0000
  H   H6        1.0  0.16764  0.77295  0.20927  1.0000
  H   H7        1.0  0.64616  0.05489  0.84730  1.0000
  H   H8        1.0  0.35385  0.94512  0.15270  1.0000
  H   H9        1.0  0.62257  0.89789  0.06170  1.0000
  H   H10       1.0  0.37743  0.10210  0.93830  1.0000
  H   H11       1.0  0.95589  0.89733  0.37528  1.0000
  H   H12       1.0  0.04411  0.10267  0.62472  1.0000
  H   H13       1.0  0.40574  0.73016  0.33797  1.0000
  H   H14       1.0  0.59426  0.26984  0.66203  1.0000
  H   H15       1.0  0.76767  0.44681  0.57540  1.0000
  H   H16       1.0  0.23233  0.55319  0.42460  1.0000
  H   H17       1.0  0.21327  0.56567  0.82843  1.0000
  H   H18       1.0  0.78673  0.43433  0.17157  1.0000
  H   H19       1.0  0.05968  0.41452  0.98701  1.0000
  H   H20       1.0  0.94031  0.58548  0.01299  1.0000
  H   H21       1.0  0.17903  0.19963  0.15589  1.0000
  H   H22       1.0  0.82097  0.80037  0.84411  1.0000
  H   H23       1.0  0.45623  0.13376  0.16299  1.0000
  H   H24       1.0  0.54377  0.86624  0.83701  1.0000
  H   H25       1.0  0.61090  0.28438  0.00718  1.0000
  H   H26       1.0  0.38910  0.71562  0.99282  1.0000
  H   H27       1.0  0.75477  0.43142  0.84207  1.0000
  H   H28       1.0  0.24523  0.56858  0.15793  1.0000
  H   H29       1.0  0.29810  0.84610  0.55865  1.0000
  H   H30       1.0  0.70191  0.15390  0.44135  1.0000
  H   H31       1.0  0.75915  0.91314  0.59193  1.0000
  H   H32       1.0  0.24085  0.08686  0.40807  1.0000
  C   C1        1.0  0.78556  0.98524  0.12872  1.0000
  C   C2        1.0  0.21444  0.01476  0.87128  1.0000
  C   C3        1.0  0.88580  0.08528  0.09651  1.0000
  C   C4        1.0  0.11420  0.91472  0.90349  1.0000
  C   C5        1.0  0.90163  0.17063  0.97537  1.0000
  C   C6        1.0  0.09838  0.82937  0.02463  1.0000
  C   C7        1.0  0.81633  0.15992  0.88502  1.0000
  C   C8        1.0  0.18367  0.84008  0.11498  1.0000
  C   C9        1.0  0.71376  0.06384  0.91685  1.0000
  C   C10       1.0  0.28624  0.93616  0.08315  1.0000
  C   C11       1.0  0.69877  0.97611  0.03769  1.0000
  C   C12       1.0  0.30123  0.02389  0.96231  1.0000
  C   C13       1.0  0.77886  0.88712  0.25349  1.0000
  C   C14       1.0  0.22114  0.11288  0.74650  1.0000
  C   C15       1.0  0.86362  0.85043  0.35787  1.0000
  C   C16       1.0  0.13638  0.14957  0.64213  1.0000
  C   C17       1.0  0.69691  0.70745  0.39966  1.0000
  C   C18       1.0  0.30308  0.29255  0.60034  1.0000
  C   C19       1.0  0.59785  0.60129  0.45155  1.0000
  C   C20       1.0  0.40216  0.39871  0.54845  1.0000
  C   C21       1.0  0.44701  0.62879  0.40839  1.0000
  C   C22       1.0  0.55299  0.37121  0.59161  1.0000
  C   C23       1.0  0.65011  0.47069  0.54355  1.0000
  C   C24       1.0  0.34989  0.52931  0.45645  1.0000
  C   C25       1.0  0.42249  0.43530  0.90693  1.0000
  C   C26       1.0  0.57750  0.56470  0.09307  1.0000
  C   C27       1.0  0.26653  0.47142  0.90195  1.0000
  C   C28       1.0  0.73347  0.52858  0.09805  1.0000
  C   C29       1.0  0.18054  0.38589  0.99132  1.0000
  C   C30       1.0  0.81946  0.61411  0.00868  1.0000
  C   C31       1.0  0.24728  0.26439  0.08538  1.0000
  C   C32       1.0  0.75272  0.73561  0.91462  1.0000
  C   C33       1.0  0.40233  0.22797  0.08972  1.0000
  C   C34       1.0  0.59767  0.77203  0.91028  1.0000
  C   C35       1.0  0.48983  0.31244  0.00166  1.0000
  C   C36       1.0  0.51017  0.68756  0.99834  1.0000
  C   C37       1.0  0.51633  0.52513  0.81978  1.0000
  C   C38       1.0  0.48366  0.47487  0.18022  1.0000
  C   C39       1.0  0.66653  0.51636  0.79944  1.0000
  C   C40       1.0  0.33347  0.48364  0.20056  1.0000
  C   C41       1.0  0.56592  0.72017  0.67300  1.0000
  C   C42       1.0  0.43408  0.27983  0.32700  1.0000
  C   C43       1.0  0.53302  0.86204  0.58445  1.0000
  C   C44       1.0  0.46698  0.13796  0.41555  1.0000
  C   C45       1.0  0.38654  0.91322  0.53279  1.0000
  C   C46       1.0  0.61345  0.08679  0.46721  1.0000
  C   C47       1.0  0.64577  0.95043  0.55113  1.0000
  C   C48       1.0  0.35423  0.04957  0.44887  1.0000
  N   N1        1.0  0.81103  0.73745  0.44841  1.0000
  N   N2        1.0  0.18897  0.26255  0.55159  1.0000
  N   N3        1.0  0.69556  0.63932  0.70722  1.0000
  N   N4        1.0  0.30444  0.36068  0.29278  1.0000
  Cl  Cl1       1.0  0.02852  0.80815  0.64880  1.0000
  Cl  Cl2       1.0  0.97148  0.19185  0.35120  1.0000
  Cl  Cl3       1.0  0.01230  0.44110  0.69313  1.0000
  Cl  Cl4       1.0  0.98770  0.55890  0.30687  1.0000
  O   O1        1.0  0.67143  0.79688  0.28140  1.0000
  O   O2        1.0  0.32857  0.20312  0.71860  1.0000
  O   O3        1.0  0.45241  0.65443  0.73746  1.0000
  O   O4        1.0  0.54759  0.34557  0.26254  1.0000
