data_image0
_chemical_formula_structural       Cu6H42C40N16
_chemical_formula_sum              "Cu6 H42 C40 N16"
_cell_length_a       11.2736
_cell_length_b       11.6623
_cell_length_c       12.918
_cell_angle_alpha    63.9072
_cell_angle_beta     89.78
_cell_angle_gamma    71.3244

_space_group_name_H-M_alt    "P 1"
_space_group_IT_number       1

loop_
  _space_group_symop_operation_xyz
  'x, y, z'

loop_
  _atom_site_type_symbol
  _atom_site_label
  _atom_site_symmetry_multiplicity
  _atom_site_fract_x
  _atom_site_fract_y
  _atom_site_fract_z
  _atom_site_occupancy
  Cu  Cu1       1.0  0.37459  0.17298  0.07685  1.0000
  Cu  Cu2       1.0  0.62541  0.82702  0.92315  1.0000
  Cu  Cu3       1.0  0.53793  0.87456  0.49331  1.0000
  Cu  Cu4       1.0  0.46205  0.12546  0.50669  1.0000
  Cu  Cu5       1.0  0.31171  0.64225  0.79293  1.0000
  Cu  Cu6       1.0  0.68827  0.35775  0.20706  1.0000
  H   H1        1.0  0.88013  0.53710  0.94660  1.0000
  H   H2        1.0  0.11987  0.46290  0.05340  1.0000
  H   H3        1.0  0.97955  0.43546  0.88812  1.0000
  H   H4        1.0  0.02045  0.56454  0.11187  1.0000
  H   H5        1.0  0.81977  0.44375  0.89829  1.0000
  H   H6        1.0  0.18023  0.55625  0.10171  1.0000
  H   H7        1.0  0.64810  0.64173  0.72040  1.0000
  H   H8        1.0  0.35189  0.35826  0.27959  1.0000
  H   H9        1.0  0.41216  0.88688  0.22320  1.0000
  H   H10       1.0  0.58786  0.11313  0.77679  1.0000
  H   H11       1.0  0.76785  0.95236  0.40723  1.0000
  H   H12       1.0  0.23214  0.04765  0.59277  1.0000
  H   H13       1.0  0.92945  0.90188  0.46846  1.0000
  H   H14       1.0  0.07054  0.09812  0.53155  1.0000
  H   H15       1.0  0.80448  0.01425  0.50063  1.0000
  H   H16       1.0  0.19551  0.98576  0.49937  1.0000
  H   H17       1.0  0.09720  0.59209  0.77609  1.0000
  H   H18       1.0  0.90280  0.40791  0.22391  1.0000
  H   H19       1.0  0.07735  0.74065  0.64574  1.0000
  H   H20       1.0  0.92264  0.25935  0.35426  1.0000
  H   H21       1.0  0.84138  0.85066  0.79905  1.0000
  H   H22       1.0  0.15861  0.14935  0.20096  1.0000
  H   H23       1.0  0.87121  0.96492  0.91613  1.0000
  H   H24       1.0  0.12879  0.03508  0.08387  1.0000
  H   H25       1.0  0.09267  0.94871  0.97207  1.0000
  H   H26       1.0  0.90734  0.05128  0.02795  1.0000
  H   H27       1.0  0.34849  0.85519  0.83401  1.0000
  H   H28       1.0  0.65151  0.14479  0.16599  1.0000
  H   H29       1.0  0.37077  0.70124  0.95848  1.0000
  H   H30       1.0  0.62923  0.29875  0.04153  1.0000
  H   H31       1.0  0.45804  0.62975  0.28139  1.0000
  H   H32       1.0  0.54197  0.37026  0.71861  1.0000
  H   H33       1.0  0.44762  0.58937  0.16583  1.0000
  H   H34       1.0  0.55241  0.41063  0.83417  1.0000
  H   H35       1.0  0.30885  0.64171  0.22463  1.0000
  H   H36       1.0  0.69117  0.35829  0.77538  1.0000
  H   H37       1.0  0.28993  0.21768  0.83979  1.0000
  H   H38       1.0  0.71009  0.78231  0.16020  1.0000
  H   H39       1.0  0.18524  0.14968  0.80294  1.0000
  H   H40       1.0  0.81477  0.85031  0.19706  1.0000
  H   H41       1.0  0.34367  0.10457  0.77667  1.0000
  H   H42       1.0  0.65635  0.89542  0.22333  1.0000
  C   C1        1.0  0.88229  0.50341  0.87915  1.0000
  C   C2        1.0  0.11770  0.49659  0.12084  1.0000
  C   C3        1.0  0.84085  0.62230  0.76019  1.0000
  C   C4        1.0  0.15914  0.37771  0.23981  1.0000
  C   C5        1.0  0.90401  0.70755  0.69127  1.0000
  C   C6        1.0  0.09598  0.29246  0.30873  1.0000
  C   C7        1.0  0.81704  0.80513  0.58767  1.0000
  C   C8        1.0  0.18294  0.19488  0.41233  1.0000
  C   C9        1.0  0.83123  0.92410  0.48555  1.0000
  C   C10       1.0  0.16876  0.07590  0.51445  1.0000
  C   C11       1.0  0.03389  0.69951  0.72433  1.0000
  C   C12       1.0  0.96610  0.30049  0.27568  1.0000
  C   C13       1.0  0.04146  0.77340  0.79396  1.0000
  C   C14       1.0  0.95853  0.22660  0.20604  1.0000
  C   C15       1.0  0.93552  0.84565  0.82503  1.0000
  C   C16       1.0  0.06447  0.15435  0.17497  1.0000
  C   C17       1.0  0.95282  0.90954  0.88999  1.0000
  C   C18       1.0  0.04718  0.09046  0.11002  1.0000
  C   C19       1.0  0.07484  0.90045  0.92142  1.0000
  C   C20       1.0  0.92517  0.09954  0.07859  1.0000
  C   C21       1.0  0.17718  0.82676  0.88796  1.0000
  C   C22       1.0  0.82283  0.17323  0.11204  1.0000
  C   C23       1.0  0.31294  0.81115  0.91711  1.0000
  C   C24       1.0  0.68707  0.18884  0.08290  1.0000
  C   C25       1.0  0.39787  0.65875  0.20092  1.0000
  C   C26       1.0  0.60215  0.34125  0.79908  1.0000
  C   C27       1.0  0.37299  0.80309  0.11387  1.0000
  C   C28       1.0  0.62702  0.19691  0.88612  1.0000
  C   C29       1.0  0.33500  0.87153  0.99263  1.0000
  C   C30       1.0  0.66501  0.12847  0.00737  1.0000
  C   C31       1.0  0.32372  0.00870  0.95699  1.0000
  C   C32       1.0  0.67629  0.99129  0.04301  1.0000
  C   C33       1.0  0.28363  0.12677  0.83763  1.0000
  C   C34       1.0  0.71639  0.87321  0.16236  1.0000
  C   C35       1.0  0.47913  0.99672  0.33968  1.0000
  C   C36       1.0  0.52087  0.00329  0.66032  1.0000
  C   C37       1.0  0.40021  0.71092  0.67564  1.0000
  C   C38       1.0  0.59978  0.28909  0.32435  1.0000
  C   C39       1.0  0.34259  0.35084  0.97203  1.0000
  C   C40       1.0  0.65740  0.64916  0.02797  1.0000
  N   N1        1.0  0.70808  0.78002  0.59259  1.0000
  N   N2        1.0  0.29192  0.21998  0.40741  1.0000
  N   N3        1.0  0.72496  0.66949  0.69702  1.0000
  N   N4        1.0  0.27503  0.33051  0.30298  1.0000
  N   N5        1.0  0.15980  0.76402  0.82579  1.0000
  N   N6        1.0  0.84020  0.23598  0.17421  1.0000
  N   N7        1.0  0.38343  0.89753  0.14367  1.0000
  N   N8        1.0  0.61659  0.10246  0.85632  1.0000
  N   N9        1.0  0.35435  0.02281  0.05043  1.0000
  N   N10       1.0  0.64566  0.97718  0.94956  1.0000
  N   N11       1.0  0.43817  0.06868  0.23939  1.0000
  N   N12       1.0  0.56184  0.93133  0.76061  1.0000
  N   N13       1.0  0.45527  0.76095  0.60097  1.0000
  N   N14       1.0  0.54471  0.23907  0.39901  1.0000
  N   N15       1.0  0.32988  0.46397  0.90445  1.0000
  N   N16       1.0  0.67010  0.53603  0.09554  1.0000
