data_image0
_chemical_formula_structural       Zn4H12C6N36
_chemical_formula_sum              "Zn4 H12 C6 N36"
_cell_length_a       9.30566
_cell_length_b       9.30566
_cell_length_c       9.30565
_cell_angle_alpha    67.7166
_cell_angle_beta     67.7166
_cell_angle_gamma    67.7166

_space_group_name_H-M_alt    "P 1"
_space_group_IT_number       1

loop_
  _space_group_symop_operation_xyz
  'x, y, z'

loop_
  _atom_site_type_symbol
  _atom_site_label
  _atom_site_symmetry_multiplicity
  _atom_site_fract_x
  _atom_site_fract_y
  _atom_site_fract_z
  _atom_site_occupancy
  Zn  Zn1       1.0  0.39777  0.39777  0.39777  1.0000
  Zn  Zn2       1.0  0.10222  0.10222  0.10222  1.0000
  Zn  Zn3       1.0  0.60222  0.60222  0.60222  1.0000
  Zn  Zn4       1.0  0.89777  0.89777  0.89777  1.0000
  H   H1        1.0  0.84889  0.97822  0.42137  1.0000
  H   H2        1.0  0.42137  0.84889  0.97821  1.0000
  H   H3        1.0  0.97821  0.42137  0.84889  1.0000
  H   H4        1.0  0.07863  0.52179  0.65111  1.0000
  H   H5        1.0  0.52179  0.65111  0.07863  1.0000
  H   H6        1.0  0.65111  0.07863  0.52179  1.0000
  H   H7        1.0  0.15111  0.02179  0.57863  1.0000
  H   H8        1.0  0.57863  0.15112  0.02179  1.0000
  H   H9        1.0  0.02179  0.57863  0.15111  1.0000
  H   H10       1.0  0.92137  0.47822  0.34889  1.0000
  H   H11       1.0  0.47822  0.34889  0.92137  1.0000
  H   H12       1.0  0.34889  0.92137  0.47822  1.0000
  C   C1        1.0  0.75000  0.20619  0.29381  1.0000
  C   C2        1.0  0.29381  0.75000  0.20619  1.0000
  C   C3        1.0  0.20619  0.29381  0.75000  1.0000
  C   C4        1.0  0.25000  0.79381  0.70619  1.0000
  C   C5        1.0  0.70619  0.25000  0.79381  1.0000
  C   C6        1.0  0.79381  0.70619  0.25000  1.0000
  N   N1        1.0  0.62927  0.34578  0.27871  1.0000
  N   N2        1.0  0.27871  0.62927  0.34578  1.0000
  N   N3        1.0  0.34578  0.27871  0.62927  1.0000
  N   N4        1.0  0.22129  0.15422  0.87073  1.0000
  N   N5        1.0  0.15422  0.87073  0.22129  1.0000
  N   N6        1.0  0.87073  0.22129  0.15422  1.0000
  N   N7        1.0  0.37072  0.65422  0.72129  1.0000
  N   N8        1.0  0.72129  0.37073  0.65422  1.0000
  N   N9        1.0  0.65422  0.72129  0.37073  1.0000
  N   N10       1.0  0.77871  0.84578  0.12927  1.0000
  N   N11       1.0  0.84578  0.12927  0.77871  1.0000
  N   N12       1.0  0.12927  0.77871  0.84578  1.0000
  N   N13       1.0  0.75000  0.07758  0.42242  1.0000
  N   N14       1.0  0.42242  0.75000  0.07758  1.0000
  N   N15       1.0  0.07758  0.42242  0.75000  1.0000
  N   N16       1.0  0.25000  0.92242  0.57758  1.0000
  N   N17       1.0  0.57758  0.25000  0.92242  1.0000
  N   N18       1.0  0.92242  0.57758  0.25000  1.0000
  N   N19       1.0  0.67895  0.44407  0.12862  1.0000
  N   N20       1.0  0.12862  0.67895  0.44407  1.0000
  N   N21       1.0  0.44407  0.12862  0.67895  1.0000
  N   N22       1.0  0.37139  0.05593  0.82105  1.0000
  N   N23       1.0  0.05593  0.82105  0.37139  1.0000
  N   N24       1.0  0.82105  0.37139  0.05593  1.0000
  N   N25       1.0  0.32105  0.55593  0.87139  1.0000
  N   N26       1.0  0.87139  0.32105  0.55593  1.0000
  N   N27       1.0  0.55593  0.87139  0.32105  1.0000
  N   N28       1.0  0.62861  0.94407  0.17895  1.0000
  N   N29       1.0  0.94407  0.17895  0.62862  1.0000
  N   N30       1.0  0.17895  0.62862  0.94407  1.0000
  N   N31       1.0  0.25000  0.25000  0.25000  1.0000
  N   N32       1.0  0.75000  0.75000  0.75000  1.0000
  N   N33       1.0  0.30478  0.30478  0.30478  1.0000
  N   N34       1.0  0.19522  0.19521  0.19522  1.0000
  N   N35       1.0  0.69521  0.69521  0.69522  1.0000
  N   N36       1.0  0.80478  0.80478  0.80477  1.0000
