data_image0
_chemical_formula_structural       Cd4H32C40N12O20
_chemical_formula_sum              "Cd4 H32 C40 N12 O20"
_cell_length_a       7.71266
_cell_length_b       11.6922
_cell_length_c       12.699
_cell_angle_alpha    90
_cell_angle_beta     90
_cell_angle_gamma    93.6375

_space_group_name_H-M_alt    "P 1"
_space_group_IT_number       1

loop_
  _space_group_symop_operation_xyz
  'x, y, z'

loop_
  _atom_site_type_symbol
  _atom_site_label
  _atom_site_symmetry_multiplicity
  _atom_site_fract_x
  _atom_site_fract_y
  _atom_site_fract_z
  _atom_site_occupancy
  Cd  Cd1       1.0  0.39511  0.15917  0.72803  1.0000
  Cd  Cd2       1.0  0.10489  0.34083  0.22803  1.0000
  Cd  Cd3       1.0  0.60489  0.84083  0.27197  1.0000
  Cd  Cd4       1.0  0.89511  0.65917  0.77197  1.0000
  H   H1        1.0  0.34396  0.57765  0.56595  1.0000
  H   H2        1.0  0.15604  0.92235  0.06594  1.0000
  H   H3        1.0  0.65604  0.42235  0.43406  1.0000
  H   H4        1.0  0.84396  0.07765  0.93406  1.0000
  H   H5        1.0  0.39457  0.08876  0.95283  1.0000
  H   H6        1.0  0.10543  0.41124  0.45283  1.0000
  H   H7        1.0  0.60543  0.91124  0.04717  1.0000
  H   H8        1.0  0.89457  0.58876  0.54717  1.0000
  H   H9        1.0  0.57412  0.05460  0.90818  1.0000
  H   H10       1.0  0.92588  0.44540  0.40818  1.0000
  H   H11       1.0  0.42588  0.94540  0.09182  1.0000
  H   H12       1.0  0.07412  0.55460  0.59182  1.0000
  H   H13       1.0  0.75283  0.35251  0.84253  1.0000
  H   H14       1.0  0.74717  0.14749  0.34253  1.0000
  H   H15       1.0  0.24717  0.64749  0.15747  1.0000
  H   H16       1.0  0.25283  0.85251  0.65747  1.0000
  H   H17       1.0  0.54423  0.91919  0.64264  1.0000
  H   H18       1.0  0.95577  0.58081  0.14264  1.0000
  H   H19       1.0  0.45577  0.08081  0.35736  1.0000
  H   H20       1.0  0.04423  0.41919  0.85736  1.0000
  H   H21       1.0  0.79009  0.84931  0.54766  1.0000
  H   H22       1.0  0.70991  0.65069  0.04766  1.0000
  H   H23       1.0  0.20991  0.15069  0.45234  1.0000
  H   H24       1.0  0.29009  0.34931  0.95234  1.0000
  H   H25       1.0  0.00181  0.20216  0.52818  1.0000
  H   H26       1.0  0.49819  0.29784  0.02818  1.0000
  H   H27       1.0  0.99819  0.79784  0.47182  1.0000
  H   H28       1.0  0.50181  0.70216  0.97182  1.0000
  H   H29       1.0  0.73871  0.25758  0.61864  1.0000
  H   H30       1.0  0.76129  0.24242  0.11864  1.0000
  H   H31       1.0  0.26129  0.74242  0.38136  1.0000
  H   H32       1.0  0.23871  0.75758  0.88136  1.0000
  C   C1        1.0  0.46119  0.42034  0.67734  1.0000
  C   C2        1.0  0.03881  0.07966  0.17734  1.0000
  C   C3        1.0  0.53881  0.57966  0.32266  1.0000
  C   C4        1.0  0.96119  0.92034  0.82266  1.0000
  C   C5        1.0  0.55821  0.52480  0.69169  1.0000
  C   C6        1.0  0.94179  0.97520  0.19169  1.0000
  C   C7        1.0  0.44179  0.47520  0.30831  1.0000
  C   C8        1.0  0.05821  0.02480  0.80831  1.0000
  C   C9        1.0  0.66980  0.39489  0.78772  1.0000
  C   C10       1.0  0.83020  0.10511  0.28772  1.0000
  C   C11       1.0  0.33020  0.60511  0.21228  1.0000
  C   C12       1.0  0.16980  0.89489  0.71228  1.0000
  C   C13       1.0  0.31518  0.38549  0.60656  1.0000
  C   C14       1.0  0.18482  0.11451  0.10656  1.0000
  C   C15       1.0  0.68482  0.61451  0.39344  1.0000
  C   C16       1.0  0.81518  0.88549  0.89344  1.0000
  C   C17       1.0  0.54182  0.63989  0.64781  1.0000
  C   C18       1.0  0.95818  0.86011  0.14781  1.0000
  C   C19       1.0  0.45818  0.36011  0.35219  1.0000
  C   C20       1.0  0.04182  0.13989  0.85219  1.0000
  C   C21       1.0  0.64641  0.98027  0.61470  1.0000
  C   C22       1.0  0.85359  0.51973  0.11470  1.0000
  C   C23       1.0  0.35359  0.01973  0.38530  1.0000
  C   C24       1.0  0.14641  0.48027  0.88530  1.0000
  C   C25       1.0  0.78845  0.94094  0.56153  1.0000
  C   C26       1.0  0.71155  0.55906  0.06153  1.0000
  C   C27       1.0  0.21156  0.05906  0.43847  1.0000
  C   C28       1.0  0.28845  0.44094  0.93847  1.0000
  C   C29       1.0  0.92280  0.01910  0.52813  1.0000
  C   C30       1.0  0.57720  0.48090  0.02813  1.0000
  C   C31       1.0  0.07720  0.98090  0.47187  1.0000
  C   C32       1.0  0.42280  0.51910  0.97187  1.0000
  C   C33       1.0  0.90390  0.13540  0.55020  1.0000
  C   C34       1.0  0.59610  0.36460  0.05020  1.0000
  C   C35       1.0  0.09610  0.86460  0.44979  1.0000
  C   C36       1.0  0.40390  0.63540  0.94980  1.0000
  C   C37       1.0  0.75659  0.16774  0.60218  1.0000
  C   C38       1.0  0.74341  0.33226  0.10218  1.0000
  C   C39       1.0  0.24341  0.83226  0.39782  1.0000
  C   C40       1.0  0.25659  0.66774  0.89782  1.0000
  N   N1        1.0  0.53331  0.33999  0.73925  1.0000
  N   N2        1.0  0.96669  0.16001  0.23925  1.0000
  N   N3        1.0  0.46669  0.66001  0.26075  1.0000
  N   N4        1.0  0.03331  0.83999  0.76075  1.0000
  N   N5        1.0  0.69035  0.50660  0.76145  1.0000
  N   N6        1.0  0.80965  0.99340  0.26145  1.0000
  N   N7        1.0  0.30965  0.49340  0.23855  1.0000
  N   N8        1.0  0.19035  0.00660  0.73855  1.0000
  N   N9        1.0  0.62882  0.09198  0.63502  1.0000
  N   N10       1.0  0.87118  0.40802  0.13502  1.0000
  N   N11       1.0  0.37118  0.90802  0.36498  1.0000
  N   N12       1.0  0.12882  0.59198  0.86498  1.0000
  O   O1        1.0  0.26386  0.28153  0.60023  1.0000
  O   O2        1.0  0.23614  0.21847  0.10023  1.0000
  O   O3        1.0  0.73614  0.71847  0.39977  1.0000
  O   O4        1.0  0.76386  0.78153  0.89977  1.0000
  O   O5        1.0  0.24815  0.46538  0.55109  1.0000
  O   O6        1.0  0.25185  0.03462  0.05109  1.0000
  O   O7        1.0  0.75185  0.53462  0.44891  1.0000
  O   O8        1.0  0.74815  0.96538  0.94891  1.0000
  O   O9        1.0  0.64479  0.72159  0.67305  1.0000
  O   O10       1.0  0.85521  0.77841  0.17305  1.0000
  O   O11       1.0  0.35521  0.27841  0.32695  1.0000
  O   O12       1.0  0.14479  0.22159  0.82695  1.0000
  O   O13       1.0  0.41392  0.65563  0.58096  1.0000
  O   O14       1.0  0.08608  0.84437  0.08096  1.0000
  O   O15       1.0  0.58608  0.34437  0.41904  1.0000
  O   O16       1.0  0.91392  0.15563  0.91904  1.0000
  O   O17       1.0  0.48714  0.11218  0.90101  1.0000
  O   O18       1.0  0.01286  0.38782  0.40101  1.0000
  O   O19       1.0  0.51286  0.88782  0.09899  1.0000
  O   O20       1.0  0.98714  0.61218  0.59899  1.0000
