data_image0
_chemical_formula_structural       Cd12H24C12N72Cl8
_chemical_formula_sum              "Cd12 H24 C12 N72 Cl8"
_cell_length_a       6.95044
_cell_length_b       13.5766
_cell_length_c       16.836
_cell_angle_alpha    90
_cell_angle_beta     90
_cell_angle_gamma    90

_space_group_name_H-M_alt    "P 1"
_space_group_IT_number       1

loop_
  _space_group_symop_operation_xyz
  'x, y, z'

loop_
  _atom_site_type_symbol
  _atom_site_label
  _atom_site_symmetry_multiplicity
  _atom_site_fract_x
  _atom_site_fract_y
  _atom_site_fract_z
  _atom_site_occupancy
  Cd  Cd1       1.0  0.39169  0.79820  0.61376  1.0000
  Cd  Cd2       1.0  0.89168  0.20180  0.38624  1.0000
  Cd  Cd3       1.0  0.89168  0.70180  0.11376  1.0000
  Cd  Cd4       1.0  0.39168  0.29820  0.88624  1.0000
  Cd  Cd5       1.0  0.39300  0.52999  0.72813  1.0000
  Cd  Cd6       1.0  0.89299  0.47001  0.27187  1.0000
  Cd  Cd7       1.0  0.89299  0.97001  0.22813  1.0000
  Cd  Cd8       1.0  0.39299  0.02999  0.77186  1.0000
  Cd  Cd9       1.0  0.65738  0.07190  0.56587  1.0000
  Cd  Cd10      1.0  0.15739  0.92810  0.43413  1.0000
  Cd  Cd11      1.0  0.15739  0.42810  0.06587  1.0000
  Cd  Cd12      1.0  0.65740  0.57190  0.93413  1.0000
  H   H1        1.0  0.77256  0.73717  0.74771  1.0000
  H   H2        1.0  0.27256  0.26283  0.25229  1.0000
  H   H3        1.0  0.27256  0.76283  0.24771  1.0000
  H   H4        1.0  0.77256  0.23717  0.75229  1.0000
  H   H5        1.0  0.01803  0.74012  0.74751  1.0000
  H   H6        1.0  0.51802  0.25988  0.25249  1.0000
  H   H7        1.0  0.51803  0.75988  0.24750  1.0000
  H   H8        1.0  0.01803  0.24012  0.75249  1.0000
  H   H9        1.0  0.01802  0.45330  0.59497  1.0000
  H   H10       1.0  0.51802  0.54670  0.40503  1.0000
  H   H11       1.0  0.51802  0.04671  0.09497  1.0000
  H   H12       1.0  0.01802  0.95330  0.90503  1.0000
  H   H13       1.0  0.77623  0.45322  0.59211  1.0000
  H   H14       1.0  0.27623  0.54678  0.40789  1.0000
  H   H15       1.0  0.27623  0.04678  0.09211  1.0000
  H   H16       1.0  0.77623  0.95322  0.90789  1.0000
  H   H17       1.0  0.46005  0.92835  0.95162  1.0000
  H   H18       1.0  0.96005  0.07165  0.04838  1.0000
  H   H19       1.0  0.96005  0.57165  0.45162  1.0000
  H   H20       1.0  0.46005  0.42835  0.54838  1.0000
  H   H21       1.0  0.56778  0.82496  0.98746  1.0000
  H   H22       1.0  0.06778  0.17504  0.01254  1.0000
  H   H23       1.0  0.06778  0.67504  0.48746  1.0000
  H   H24       1.0  0.56778  0.32496  0.51254  1.0000
  C   C1        1.0  0.89425  0.51153  0.69134  1.0000
  C   C2        1.0  0.39424  0.48847  0.30866  1.0000
  C   C3        1.0  0.39425  0.98847  0.19134  1.0000
  C   C4        1.0  0.89425  0.01153  0.80866  1.0000
  C   C5        1.0  0.88989  0.79674  0.64865  1.0000
  C   C6        1.0  0.38988  0.20326  0.35136  1.0000
  C   C7        1.0  0.38988  0.70326  0.14864  1.0000
  C   C8        1.0  0.88989  0.29674  0.85135  1.0000
  C   C9        1.0  0.48586  0.81622  0.87182  1.0000
  C   C10       1.0  0.98586  0.18379  0.12818  1.0000
  C   C11       1.0  0.98586  0.68378  0.37182  1.0000
  C   C12       1.0  0.48586  0.31622  0.62818  1.0000
  N   N1        1.0  0.05356  0.52998  0.73564  1.0000
  N   N2        1.0  0.55356  0.47002  0.26437  1.0000
  N   N3        1.0  0.55357  0.97002  0.23563  1.0000
  N   N4        1.0  0.05356  0.02998  0.76436  1.0000
  N   N5        1.0  0.73536  0.52350  0.73661  1.0000
  N   N6        1.0  0.23536  0.47650  0.26339  1.0000
  N   N7        1.0  0.23536  0.97650  0.23661  1.0000
  N   N8        1.0  0.73535  0.02350  0.76339  1.0000
  N   N9        1.0  0.04559  0.82040  0.60442  1.0000
  N   N10       1.0  0.54559  0.17960  0.39558  1.0000
  N   N11       1.0  0.54559  0.67960  0.10442  1.0000
  N   N12       1.0  0.04560  0.32040  0.89558  1.0000
  N   N13       1.0  0.39065  0.78406  0.75376  1.0000
  N   N14       1.0  0.89065  0.21594  0.24624  1.0000
  N   N15       1.0  0.89065  0.71594  0.25376  1.0000
  N   N16       1.0  0.39064  0.28406  0.74624  1.0000
  N   N17       1.0  0.72969  0.83702  0.61654  1.0000
  N   N18       1.0  0.22969  0.16298  0.38346  1.0000
  N   N19       1.0  0.22969  0.66298  0.11654  1.0000
  N   N20       1.0  0.72969  0.33702  0.88346  1.0000
  N   N21       1.0  0.41697  0.85883  0.80523  1.0000
  N   N22       1.0  0.91697  0.14117  0.19477  1.0000
  N   N23       1.0  0.91697  0.64117  0.30523  1.0000
  N   N24       1.0  0.41696  0.35883  0.69476  1.0000
  N   N25       1.0  0.38640  0.82313  0.47775  1.0000
  N   N26       1.0  0.88639  0.17686  0.52225  1.0000
  N   N27       1.0  0.88640  0.67686  0.97775  1.0000
  N   N28       1.0  0.38640  0.32314  0.02225  1.0000
  N   N29       1.0  0.99027  0.55534  0.80847  1.0000
  N   N30       1.0  0.49027  0.44466  0.19153  1.0000
  N   N31       1.0  0.49028  0.94466  0.30847  1.0000
  N   N32       1.0  0.99027  0.05534  0.69153  1.0000
  N   N33       1.0  0.89471  0.74136  0.71515  1.0000
  N   N34       1.0  0.39470  0.25864  0.28485  1.0000
  N   N35       1.0  0.39470  0.75864  0.21515  1.0000
  N   N36       1.0  0.89471  0.24136  0.78485  1.0000
  N   N37       1.0  0.80392  0.55131  0.80880  1.0000
  N   N38       1.0  0.30392  0.44869  0.19120  1.0000
  N   N39       1.0  0.30392  0.94869  0.30880  1.0000
  N   N40       1.0  0.80391  0.05131  0.69120  1.0000
  N   N41       1.0  0.79108  0.89038  0.55351  1.0000
  N   N42       1.0  0.29108  0.10963  0.44649  1.0000
  N   N43       1.0  0.29108  0.60962  0.05351  1.0000
  N   N44       1.0  0.79108  0.39037  0.94649  1.0000
  N   N45       1.0  0.97714  0.88029  0.54696  1.0000
  N   N46       1.0  0.47714  0.11971  0.45304  1.0000
  N   N47       1.0  0.47714  0.61970  0.04696  1.0000
  N   N48       1.0  0.97714  0.38029  0.95304  1.0000
  N   N49       1.0  0.89644  0.48902  0.61241  1.0000
  N   N50       1.0  0.39643  0.51098  0.38759  1.0000
  N   N51       1.0  0.39644  0.01098  0.11241  1.0000
  N   N52       1.0  0.89644  0.98902  0.88759  1.0000
  N   N53       1.0  0.50607  0.71820  0.86117  1.0000
  N   N54       1.0  0.00607  0.28180  0.13883  1.0000
  N   N55       1.0  0.00607  0.78180  0.36117  1.0000
  N   N56       1.0  0.50606  0.21820  0.63883  1.0000
  N   N57       1.0  0.44442  0.70088  0.78688  1.0000
  N   N58       1.0  0.94441  0.29912  0.21312  1.0000
  N   N59       1.0  0.94442  0.79912  0.28688  1.0000
  N   N60       1.0  0.44441  0.20088  0.71312  1.0000
  N   N61       1.0  0.47748  0.77293  0.43202  1.0000
  N   N62       1.0  0.97747  0.22706  0.56798  1.0000
  N   N63       1.0  0.97747  0.72706  0.93202  1.0000
  N   N64       1.0  0.47747  0.27294  0.06798  1.0000
  N   N65       1.0  0.53782  0.86664  0.93881  1.0000
  N   N66       1.0  0.03782  0.13336  0.06119  1.0000
  N   N67       1.0  0.03782  0.63336  0.43881  1.0000
  N   N68       1.0  0.53782  0.36664  0.56119  1.0000
  N   N69       1.0  0.56485  0.72393  0.38850  1.0000
  N   N70       1.0  0.06483  0.27606  0.61150  1.0000
  N   N71       1.0  0.06484  0.77606  0.88850  1.0000
  N   N72       1.0  0.56484  0.22393  0.11150  1.0000
  Cl  Cl1       1.0  0.39617  0.60725  0.58698  1.0000
  Cl  Cl2       1.0  0.89617  0.39275  0.41302  1.0000
  Cl  Cl3       1.0  0.89618  0.89275  0.08698  1.0000
  Cl  Cl4       1.0  0.39615  0.10724  0.91302  1.0000
  Cl  Cl5       1.0  0.35569  0.99122  0.61848  1.0000
  Cl  Cl6       1.0  0.85570  0.00878  0.38152  1.0000
  Cl  Cl7       1.0  0.85570  0.50878  0.11848  1.0000
  Cl  Cl8       1.0  0.35569  0.49122  0.88152  1.0000
