data_image0
_chemical_formula_structural       Cd4H48C48S8N24
_chemical_formula_sum              "Cd4 H48 C48 S8 N24"
_cell_length_a       5.59731
_cell_length_b       13.7728
_cell_length_c       18.666
_cell_angle_alpha    90
_cell_angle_beta     90
_cell_angle_gamma    90

_space_group_name_H-M_alt    "P 1"
_space_group_IT_number       1

loop_
  _space_group_symop_operation_xyz
  'x, y, z'

loop_
  _atom_site_type_symbol
  _atom_site_label
  _atom_site_symmetry_multiplicity
  _atom_site_fract_x
  _atom_site_fract_y
  _atom_site_fract_z
  _atom_site_occupancy
  Cd  Cd1       1.0  0.00000  0.50000  0.00000  1.0000
  Cd  Cd2       1.0  0.00000  0.00000  0.50000  1.0000
  Cd  Cd3       1.0  0.50000  0.50000  0.50000  1.0000
  Cd  Cd4       1.0  0.50000  1.00000  1.00000  1.0000
  H   H1        1.0  0.55661  0.70781  0.30521  1.0000
  H   H2        1.0  0.44340  0.79219  0.80521  1.0000
  H   H3        1.0  0.05659  0.29218  0.19479  1.0000
  H   H4        1.0  0.94339  0.20782  0.69479  1.0000
  H   H5        1.0  0.44340  0.29219  0.69479  1.0000
  H   H6        1.0  0.55659  0.20781  0.19478  1.0000
  H   H7        1.0  0.94340  0.70782  0.80521  1.0000
  H   H8        1.0  0.05662  0.79218  0.30522  1.0000
  H   H9        1.0  0.32408  0.65214  0.34887  1.0000
  H   H10       1.0  0.67593  0.84786  0.84887  1.0000
  H   H11       1.0  0.82406  0.34786  0.15113  1.0000
  H   H12       1.0  0.17592  0.15215  0.65113  1.0000
  H   H13       1.0  0.67593  0.34786  0.65113  1.0000
  H   H14       1.0  0.32406  0.15214  0.15113  1.0000
  H   H15       1.0  0.17592  0.65215  0.84887  1.0000
  H   H16       1.0  0.82409  0.84785  0.34887  1.0000
  H   H17       1.0  0.42690  0.64144  0.06032  1.0000
  H   H18       1.0  0.57311  0.85856  0.56032  1.0000
  H   H19       1.0  0.92688  0.35856  0.43968  1.0000
  H   H20       1.0  0.07311  0.14144  0.93968  1.0000
  H   H21       1.0  0.57311  0.35856  0.93968  1.0000
  H   H22       1.0  0.42688  0.14144  0.43968  1.0000
  H   H23       1.0  0.07311  0.64144  0.56032  1.0000
  H   H24       1.0  0.92690  0.85856  0.06032  1.0000
  H   H25       1.0  0.59553  0.70232  0.17280  1.0000
  H   H26       1.0  0.40448  0.79768  0.67280  1.0000
  H   H27       1.0  0.09551  0.29768  0.32720  1.0000
  H   H28       1.0  0.90447  0.20232  0.82720  1.0000
  H   H29       1.0  0.40447  0.29768  0.82720  1.0000
  H   H30       1.0  0.59551  0.20232  0.32720  1.0000
  H   H31       1.0  0.90448  0.70232  0.67280  1.0000
  H   H32       1.0  0.09554  0.79769  0.17280  1.0000
  H   H33       1.0  0.98487  0.57728  0.28227  1.0000
  H   H34       1.0  0.01513  0.92273  0.78227  1.0000
  H   H35       1.0  0.48486  0.42273  0.21773  1.0000
  H   H36       1.0  0.51513  0.07728  0.71773  1.0000
  H   H37       1.0  0.01513  0.42272  0.71773  1.0000
  H   H38       1.0  0.98486  0.07727  0.21773  1.0000
  H   H39       1.0  0.51513  0.57728  0.78227  1.0000
  H   H40       1.0  0.48489  0.92272  0.28227  1.0000
  H   H41       1.0  0.84221  0.52114  0.16344  1.0000
  H   H42       1.0  0.15780  0.97887  0.66344  1.0000
  H   H43       1.0  0.34219  0.47887  0.33656  1.0000
  H   H44       1.0  0.65781  0.02114  0.83656  1.0000
  H   H45       1.0  0.15780  0.47887  0.83656  1.0000
  H   H46       1.0  0.84219  0.02113  0.33656  1.0000
  H   H47       1.0  0.65781  0.52114  0.66344  1.0000
  H   H48       1.0  0.34220  0.97886  0.16344  1.0000
  C   C1        1.0  0.33279  0.62802  0.11028  1.0000
  C   C2        1.0  0.66722  0.87199  0.61027  1.0000
  C   C3        1.0  0.83277  0.37199  0.38972  1.0000
  C   C4        1.0  0.16722  0.12802  0.88972  1.0000
  C   C5        1.0  0.66721  0.37199  0.88972  1.0000
  C   C6        1.0  0.33277  0.12801  0.38972  1.0000
  C   C7        1.0  0.16722  0.62801  0.61028  1.0000
  C   C8        1.0  0.83280  0.87199  0.11028  1.0000
  C   C9        1.0  0.42756  0.66245  0.17380  1.0000
  C   C10       1.0  0.57245  0.83754  0.67380  1.0000
  C   C11       1.0  0.92754  0.33754  0.32620  1.0000
  C   C12       1.0  0.07245  0.16245  0.82620  1.0000
  C   C13       1.0  0.57245  0.33755  0.82620  1.0000
  C   C14       1.0  0.42754  0.16245  0.32619  1.0000
  C   C15       1.0  0.07245  0.66245  0.67380  1.0000
  C   C16       1.0  0.92757  0.83755  0.17380  1.0000
  C   C17       1.0  0.30624  0.64528  0.23888  1.0000
  C   C18       1.0  0.69377  0.85472  0.73888  1.0000
  C   C19       1.0  0.80622  0.35472  0.26112  1.0000
  C   C20       1.0  0.19376  0.14529  0.76111  1.0000
  C   C21       1.0  0.69377  0.35472  0.76112  1.0000
  C   C22       1.0  0.30622  0.14528  0.26112  1.0000
  C   C23       1.0  0.19377  0.64529  0.73889  1.0000
  C   C24       1.0  0.80625  0.85471  0.23889  1.0000
  C   C25       1.0  0.08970  0.59262  0.23436  1.0000
  C   C26       1.0  0.91030  0.90738  0.73436  1.0000
  C   C27       1.0  0.58969  0.40738  0.26564  1.0000
  C   C28       1.0  0.41031  0.09262  0.76564  1.0000
  C   C29       1.0  0.91031  0.40738  0.76564  1.0000
  C   C30       1.0  0.08969  0.09261  0.26564  1.0000
  C   C31       1.0  0.41030  0.59262  0.73436  1.0000
  C   C32       1.0  0.58971  0.90738  0.23436  1.0000
  C   C33       1.0  0.00931  0.56111  0.16820  1.0000
  C   C34       1.0  0.99069  0.93889  0.66820  1.0000
  C   C35       1.0  0.50930  0.43889  0.33180  1.0000
  C   C36       1.0  0.49069  0.06111  0.83179  1.0000
  C   C37       1.0  0.99069  0.43889  0.83180  1.0000
  C   C38       1.0  0.00930  0.06110  0.33179  1.0000
  C   C39       1.0  0.49070  0.56111  0.66821  1.0000
  C   C40       1.0  0.50932  0.93888  0.16821  1.0000
  C   C41       1.0  0.50804  0.60610  0.94204  1.0000
  C   C42       1.0  0.49200  0.89391  0.44204  1.0000
  C   C43       1.0  0.00803  0.39391  0.55796  1.0000
  C   C44       1.0  0.99196  0.10608  0.05796  1.0000
  C   C45       1.0  0.49197  0.39391  0.05796  1.0000
  C   C46       1.0  0.50802  0.10610  0.55796  1.0000
  C   C47       1.0  0.99197  0.60609  0.44204  1.0000
  C   C48       1.0  0.00804  0.89391  0.94204  1.0000
  S   S1        1.0  0.75598  0.66485  0.95537  1.0000
  S   S2        1.0  0.24399  0.83515  0.45537  1.0000
  S   S3        1.0  0.25600  0.33515  0.54463  1.0000
  S   S4        1.0  0.74401  0.16484  0.04463  1.0000
  S   S5        1.0  0.24401  0.33516  0.04463  1.0000
  S   S6        1.0  0.75599  0.16485  0.54463  1.0000
  S   S7        1.0  0.74401  0.66484  0.45538  1.0000
  S   S8        1.0  0.25598  0.83516  0.95537  1.0000
  N   N1        1.0  0.12672  0.57734  0.10612  1.0000
  N   N2        1.0  0.87329  0.92267  0.60611  1.0000
  N   N3        1.0  0.62670  0.42267  0.39388  1.0000
  N   N4        1.0  0.37329  0.07734  0.89388  1.0000
  N   N5        1.0  0.87328  0.42267  0.89389  1.0000
  N   N6        1.0  0.12670  0.07733  0.39388  1.0000
  N   N7        1.0  0.37329  0.57733  0.60612  1.0000
  N   N8        1.0  0.62672  0.92266  0.10612  1.0000
  N   N9        1.0  0.38647  0.68180  0.30233  1.0000
  N   N10       1.0  0.61354  0.81820  0.80233  1.0000
  N   N11       1.0  0.88645  0.31820  0.19767  1.0000
  N   N12       1.0  0.11353  0.18180  0.69767  1.0000
  N   N13       1.0  0.61353  0.31820  0.69767  1.0000
  N   N14       1.0  0.38646  0.18180  0.19767  1.0000
  N   N15       1.0  0.11353  0.68181  0.80233  1.0000
  N   N16       1.0  0.88649  0.81819  0.30233  1.0000
  N   N17       1.0  0.32448  0.56445  0.93278  1.0000
  N   N18       1.0  0.67556  0.93556  0.43279  1.0000
  N   N19       1.0  0.82447  0.43556  0.56722  1.0000
  N   N20       1.0  0.17552  0.06443  0.06722  1.0000
  N   N21       1.0  0.67554  0.43556  0.06722  1.0000
  N   N22       1.0  0.32446  0.06445  0.56721  1.0000
  N   N23       1.0  0.17552  0.56444  0.43279  1.0000
  N   N24       1.0  0.82448  0.93556  0.93278  1.0000
