data_image0
_chemical_formula_structural       Cd4H36C36S8N20
_chemical_formula_sum              "Cd4 H36 C36 S8 N20"
_cell_length_a       9.66942
_cell_length_b       10.1121
_cell_length_c       13.612
_cell_angle_alpha    90
_cell_angle_beta     102.065
_cell_angle_gamma    90

_space_group_name_H-M_alt    "P 1"
_space_group_IT_number       1

loop_
  _space_group_symop_operation_xyz
  'x, y, z'

loop_
  _atom_site_type_symbol
  _atom_site_label
  _atom_site_symmetry_multiplicity
  _atom_site_fract_x
  _atom_site_fract_y
  _atom_site_fract_z
  _atom_site_occupancy
  Cd  Cd1       1.0  0.72754  0.35012  0.96298  1.0000
  Cd  Cd2       1.0  0.27246  0.85012  0.53702  1.0000
  Cd  Cd3       1.0  0.27247  0.64988  0.03702  1.0000
  Cd  Cd4       1.0  0.72753  0.14988  0.46298  1.0000
  H   H1        1.0  0.89336  0.21346  0.71601  1.0000
  H   H2        1.0  0.10664  0.71346  0.78399  1.0000
  H   H3        1.0  0.10664  0.78654  0.28399  1.0000
  H   H4        1.0  0.89335  0.28654  0.21601  1.0000
  H   H5        1.0  0.84776  0.36271  0.76323  1.0000
  H   H6        1.0  0.15224  0.86271  0.73677  1.0000
  H   H7        1.0  0.15224  0.63729  0.23677  1.0000
  H   H8        1.0  0.84775  0.13729  0.26323  1.0000
  H   H9        1.0  0.59660  0.16689  0.11326  1.0000
  H   H10       1.0  0.40340  0.66689  0.38674  1.0000
  H   H11       1.0  0.40340  0.83311  0.88673  1.0000
  H   H12       1.0  0.59660  0.33311  0.61327  1.0000
  H   H13       1.0  0.58704  0.92880  0.16379  1.0000
  H   H14       1.0  0.41296  0.42880  0.33621  1.0000
  H   H15       1.0  0.41295  0.07121  0.83621  1.0000
  H   H16       1.0  0.58704  0.57120  0.66379  1.0000
  H   H17       1.0  0.70200  0.75890  0.07190  1.0000
  H   H18       1.0  0.29800  0.25890  0.42810  1.0000
  H   H19       1.0  0.29799  0.24110  0.92810  1.0000
  H   H20       1.0  0.70200  0.74110  0.57190  1.0000
  H   H21       1.0  0.81745  0.83224  0.93454  1.0000
  H   H22       1.0  0.18255  0.33224  0.56546  1.0000
  H   H23       1.0  0.18255  0.16776  0.06546  1.0000
  H   H24       1.0  0.81745  0.66776  0.43455  1.0000
  H   H25       1.0  0.95702  0.03355  0.75780  1.0000
  H   H26       1.0  0.04298  0.53355  0.74220  1.0000
  H   H27       1.0  0.04299  0.96645  0.24220  1.0000
  H   H28       1.0  0.95702  0.46645  0.25780  1.0000
  H   H29       1.0  0.83021  0.91369  0.77432  1.0000
  H   H30       1.0  0.16979  0.41369  0.72568  1.0000
  H   H31       1.0  0.16979  0.08631  0.22568  1.0000
  H   H32       1.0  0.83021  0.58630  0.27432  1.0000
  H   H33       1.0  0.98727  0.93308  0.86709  1.0000
  H   H34       1.0  0.01273  0.43307  0.63291  1.0000
  H   H35       1.0  0.01273  0.06692  0.13291  1.0000
  H   H36       1.0  0.98727  0.56692  0.36709  1.0000
  C   C1        1.0  0.64487  0.08901  0.07609  1.0000
  C   C2        1.0  0.35513  0.58901  0.42391  1.0000
  C   C3        1.0  0.35513  0.91099  0.92391  1.0000
  C   C4        1.0  0.64487  0.41099  0.57609  1.0000
  C   C5        1.0  0.64039  0.95689  0.10409  1.0000
  C   C6        1.0  0.35961  0.45689  0.39590  1.0000
  C   C7        1.0  0.35961  0.04311  0.89590  1.0000
  C   C8        1.0  0.64038  0.54311  0.60410  1.0000
  C   C9        1.0  0.70427  0.86341  0.05277  1.0000
  C   C10       1.0  0.29573  0.36341  0.44723  1.0000
  C   C11       1.0  0.29573  0.13659  0.94723  1.0000
  C   C12       1.0  0.70427  0.63659  0.55277  1.0000
  C   C13       1.0  0.76897  0.90453  0.97579  1.0000
  C   C14       1.0  0.23103  0.40454  0.52421  1.0000
  C   C15       1.0  0.23103  0.09547  0.02421  1.0000
  C   C16       1.0  0.76897  0.59546  0.47579  1.0000
  C   C17       1.0  0.76905  0.03926  0.95086  1.0000
  C   C18       1.0  0.23095  0.53926  0.54914  1.0000
  C   C19       1.0  0.23095  0.96074  0.04913  1.0000
  C   C20       1.0  0.76905  0.46074  0.45087  1.0000
  C   C21       1.0  0.83462  0.08591  0.86845  1.0000
  C   C22       1.0  0.16538  0.58591  0.63155  1.0000
  C   C23       1.0  0.16538  0.91409  0.13155  1.0000
  C   C24       1.0  0.83462  0.41409  0.36845  1.0000
  C   C25       1.0  0.90594  0.98721  0.81350  1.0000
  C   C26       1.0  0.09406  0.48721  0.68650  1.0000
  C   C27       1.0  0.09406  0.01279  0.18650  1.0000
  C   C28       1.0  0.90594  0.51279  0.31350  1.0000
  C   C29       1.0  0.41680  0.48948  0.86920  1.0000
  C   C30       1.0  0.58321  0.98949  0.63080  1.0000
  C   C31       1.0  0.58321  0.51051  0.13080  1.0000
  C   C32       1.0  0.41679  0.01052  0.36920  1.0000
  C   C33       1.0  0.93169  0.60957  0.90173  1.0000
  C   C34       1.0  0.06831  0.10956  0.59827  1.0000
  C   C35       1.0  0.06832  0.39044  0.09827  1.0000
  C   C36       1.0  0.93168  0.89044  0.40172  1.0000
  S   S1        1.0  0.47700  0.36764  0.81189  1.0000
  S   S2        1.0  0.52301  0.86765  0.68811  1.0000
  S   S3        1.0  0.52301  0.63235  0.18811  1.0000
  S   S4        1.0  0.47699  0.13236  0.31189  1.0000
  S   S5        1.0  0.76582  0.56980  0.86238  1.0000
  S   S6        1.0  0.23418  0.06979  0.63762  1.0000
  S   S7        1.0  0.23418  0.43021  0.13762  1.0000
  S   S8        1.0  0.76582  0.93020  0.36238  1.0000
  N   N1        1.0  0.70708  0.12868  0.00201  1.0000
  N   N2        1.0  0.29291  0.62868  0.49799  1.0000
  N   N3        1.0  0.29292  0.87132  0.99799  1.0000
  N   N4        1.0  0.70708  0.37132  0.50201  1.0000
  N   N5        1.0  0.82687  0.21212  0.84946  1.0000
  N   N6        1.0  0.17313  0.71211  0.65054  1.0000
  N   N7        1.0  0.17313  0.78788  0.15054  1.0000
  N   N8        1.0  0.82687  0.28788  0.34947  1.0000
  N   N9        1.0  0.88272  0.26819  0.77747  1.0000
  N   N10       1.0  0.11728  0.76819  0.72253  1.0000
  N   N11       1.0  0.11729  0.73181  0.22253  1.0000
  N   N12       1.0  0.88271  0.23181  0.27747  1.0000
  N   N13       1.0  0.37271  0.57912  0.90961  1.0000
  N   N14       1.0  0.62730  0.07913  0.59039  1.0000
  N   N15       1.0  0.62730  0.42088  0.09039  1.0000
  N   N16       1.0  0.37271  0.92088  0.40961  1.0000
  N   N17       1.0  0.05146  0.64290  0.92547  1.0000
  N   N18       1.0  0.94854  0.14290  0.57453  1.0000
  N   N19       1.0  0.94854  0.35710  0.07453  1.0000
  N   N20       1.0  0.05145  0.85710  0.42546  1.0000
