data_image0
_chemical_formula_structural       Ni2H44C28S4N16
_chemical_formula_sum              "Ni2 H44 C28 S4 N16"
_cell_length_a       9.19265
_cell_length_b       9.97264
_cell_length_c       11.0316
_cell_angle_alpha    90
_cell_angle_beta     89.9996
_cell_angle_gamma    114.107

_space_group_name_H-M_alt    "P 1"
_space_group_IT_number       1

loop_
  _space_group_symop_operation_xyz
  'x, y, z'

loop_
  _atom_site_type_symbol
  _atom_site_label
  _atom_site_symmetry_multiplicity
  _atom_site_fract_x
  _atom_site_fract_y
  _atom_site_fract_z
  _atom_site_occupancy
  Ni  Ni1       1.0  0.00000  0.50000  1.00000  1.0000
  Ni  Ni2       1.0  0.50000  0.00000  0.50000  1.0000
  H   H1        1.0  0.64933  0.45580  0.09307  1.0000
  H   H2        1.0  0.85067  0.04419  0.59307  1.0000
  H   H3        1.0  0.35067  0.54420  0.90693  1.0000
  H   H4        1.0  0.14934  0.95580  0.40693  1.0000
  H   H5        1.0  0.65563  0.28210  0.09561  1.0000
  H   H6        1.0  0.84437  0.21789  0.59560  1.0000
  H   H7        1.0  0.34437  0.71789  0.90440  1.0000
  H   H8        1.0  0.15564  0.78211  0.40439  1.0000
  H   H9        1.0  0.44616  0.19748  0.92791  1.0000
  H   H10       1.0  0.05384  0.30252  0.42791  1.0000
  H   H11       1.0  0.55384  0.80252  0.07209  1.0000
  H   H12       1.0  0.94617  0.69748  0.57209  1.0000
  H   H13       1.0  0.43781  0.37025  0.93133  1.0000
  H   H14       1.0  0.06219  0.12974  0.43132  1.0000
  H   H15       1.0  0.56218  0.62975  0.06868  1.0000
  H   H16       1.0  0.93782  0.87026  0.56868  1.0000
  H   H17       1.0  0.34624  0.32916  0.14813  1.0000
  H   H18       1.0  0.15376  0.17084  0.64812  1.0000
  H   H19       1.0  0.65376  0.67084  0.85187  1.0000
  H   H20       1.0  0.84624  0.82916  0.35187  1.0000
  H   H21       1.0  0.21858  0.18606  0.05199  1.0000
  H   H22       1.0  0.28142  0.31394  0.55199  1.0000
  H   H23       1.0  0.78141  0.81394  0.94801  1.0000
  H   H24       1.0  0.71859  0.68606  0.44801  1.0000
  H   H25       1.0  0.32019  0.95634  0.03813  1.0000
  H   H26       1.0  0.17979  0.54365  0.53811  1.0000
  H   H27       1.0  0.67980  0.04366  0.96188  1.0000
  H   H28       1.0  0.82021  0.45635  0.46188  1.0000
  H   H29       1.0  0.41776  0.83549  0.23558  1.0000
  H   H30       1.0  0.08223  0.66450  0.73557  1.0000
  H   H31       1.0  0.58224  0.16452  0.76442  1.0000
  H   H32       1.0  0.91777  0.33550  0.26443  1.0000
  H   H33       1.0  0.43655  0.24944  0.33581  1.0000
  H   H34       1.0  0.06346  0.25056  0.83581  1.0000
  H   H35       1.0  0.56346  0.75056  0.66419  1.0000
  H   H36       1.0  0.93654  0.74944  0.16419  1.0000
  H   H37       1.0  0.73895  0.47373  0.87997  1.0000
  H   H38       1.0  0.76104  0.02627  0.37997  1.0000
  H   H39       1.0  0.26104  0.52627  0.12003  1.0000
  H   H40       1.0  0.23896  0.97373  0.62003  1.0000
  H   H41       1.0  0.75368  0.31756  0.89490  1.0000
  H   H42       1.0  0.74632  0.18243  0.39490  1.0000
  H   H43       1.0  0.24631  0.68243  0.10510  1.0000
  H   H44       1.0  0.25368  0.81757  0.60510  1.0000
  C   C1        1.0  0.63299  0.36007  0.03627  1.0000
  C   C2        1.0  0.86701  0.13992  0.53626  1.0000
  C   C3        1.0  0.36701  0.63992  0.96374  1.0000
  C   C4        1.0  0.13299  0.86008  0.46373  1.0000
  C   C5        1.0  0.46279  0.29103  0.98760  1.0000
  C   C6        1.0  0.03721  0.20896  0.48759  1.0000
  C   C7        1.0  0.53721  0.70897  0.01241  1.0000
  C   C8        1.0  0.96279  0.79103  0.51241  1.0000
  C   C9        1.0  0.33949  0.23801  0.08926  1.0000
  C   C10       1.0  0.16051  0.26199  0.58925  1.0000
  C   C11       1.0  0.66051  0.76199  0.91075  1.0000
  C   C12       1.0  0.83949  0.73801  0.41074  1.0000
  C   C13       1.0  0.35886  0.99664  0.12896  1.0000
  C   C14       1.0  0.14113  0.50335  0.62895  1.0000
  C   C15       1.0  0.64114  0.00336  0.87104  1.0000
  C   C16       1.0  0.85887  0.49665  0.37105  1.0000
  C   C17       1.0  0.40656  0.93890  0.22666  1.0000
  C   C18       1.0  0.09343  0.56110  0.72665  1.0000
  C   C19       1.0  0.59344  0.06110  0.77335  1.0000
  C   C20       1.0  0.90657  0.43890  0.27335  1.0000
  C   C21       1.0  0.41804  0.15171  0.28340  1.0000
  C   C22       1.0  0.08196  0.34829  0.78340  1.0000
  C   C23       1.0  0.58196  0.84830  0.71660  1.0000
  C   C24       1.0  0.91804  0.65170  0.21660  1.0000
  C   C25       1.0  0.06287  0.82249  0.90416  1.0000
  C   C26       1.0  0.43715  0.67750  0.40416  1.0000
  C   C27       1.0  0.93713  0.17750  0.09584  1.0000
  C   C28       1.0  0.56286  0.32251  0.59584  1.0000
  S   S1        1.0  0.11366  0.98118  0.83853  1.0000
  S   S2        1.0  0.38634  0.51882  0.33853  1.0000
  S   S3        1.0  0.88634  0.01883  0.16147  1.0000
  S   S4        1.0  0.61366  0.48119  0.66147  1.0000
  N   N1        1.0  0.75777  0.40670  0.94285  1.0000
  N   N2        1.0  0.74223  0.09329  0.44285  1.0000
  N   N3        1.0  0.24223  0.59330  0.05715  1.0000
  N   N4        1.0  0.25777  0.90671  0.55715  1.0000
  N   N5        1.0  0.36659  0.13136  0.16660  1.0000
  N   N6        1.0  0.13340  0.36863  0.66659  1.0000
  N   N7        1.0  0.63340  0.86864  0.83340  1.0000
  N   N8        1.0  0.86660  0.63136  0.33340  1.0000
  N   N9        1.0  0.44221  0.03590  0.32254  1.0000
  N   N10       1.0  0.05779  0.46410  0.82253  1.0000
  N   N11       1.0  0.55779  0.96410  0.67746  1.0000
  N   N12       1.0  0.94221  0.53590  0.17746  1.0000
  N   N13       1.0  0.02538  0.70673  0.95262  1.0000
  N   N14       1.0  0.47463  0.79327  0.45262  1.0000
  N   N15       1.0  0.97462  0.29328  0.04738  1.0000
  N   N16       1.0  0.52538  0.20674  0.54738  1.0000
