data_image0
_chemical_formula_structural       CdH22C14S2N8
_chemical_formula_sum              "Cd1 H22 C14 S2 N8"
_cell_length_a       7.66281
_cell_length_b       8.03211
_cell_length_c       8.81307
_cell_angle_alpha    93.0157
_cell_angle_beta     98.5114
_cell_angle_gamma    118.533

_space_group_name_H-M_alt    "P 1"
_space_group_IT_number       1

loop_
  _space_group_symop_operation_xyz
  'x, y, z'

loop_
  _atom_site_type_symbol
  _atom_site_label
  _atom_site_symmetry_multiplicity
  _atom_site_fract_x
  _atom_site_fract_y
  _atom_site_fract_z
  _atom_site_occupancy
  Cd  Cd1       1.0  0.50000  0.00000  0.50000  1.0000
  H   H1        1.0  0.72088  0.32174  0.81919  1.0000
  H   H2        1.0  0.27912  0.67825  0.18081  1.0000
  H   H3        1.0  0.62646  0.44766  0.70724  1.0000
  H   H4        1.0  0.37353  0.55233  0.29276  1.0000
  H   H5        1.0  0.07315  0.57855  0.84081  1.0000
  H   H6        1.0  0.92684  0.42145  0.15919  1.0000
  H   H7        1.0  0.00109  0.69243  0.70003  1.0000
  H   H8        1.0  0.99890  0.30756  0.29997  1.0000
  H   H9        1.0  0.88090  0.65077  0.02110  1.0000
  H   H10       1.0  0.11910  0.34924  0.97890  1.0000
  H   H11       1.0  0.08045  0.85603  0.97029  1.0000
  H   H12       1.0  0.91956  0.14397  0.02971  1.0000
  H   H13       1.0  0.61441  0.72505  0.05245  1.0000
  H   H14       1.0  0.38559  0.27494  0.94754  1.0000
  H   H15       1.0  0.41001  0.87943  0.87018  1.0000
  H   H16       1.0  0.58999  0.12056  0.12982  1.0000
  H   H17       1.0  0.87630  0.89795  0.65892  1.0000
  H   H18       1.0  0.12371  0.10206  0.34108  1.0000
  H   H19       1.0  0.88774  0.30919  0.60117  1.0000
  H   H20       1.0  0.11226  0.69081  0.39883  1.0000
  H   H21       1.0  0.76301  0.40139  0.50083  1.0000
  H   H22       1.0  0.23698  0.59860  0.49917  1.0000
  C   C1        1.0  0.75439  0.42012  0.73179  1.0000
  C   C2        1.0  0.24560  0.57988  0.26821  1.0000
  C   C3        1.0  0.95051  0.60790  0.79484  1.0000
  C   C4        1.0  0.04949  0.39210  0.20516  1.0000
  C   C5        1.0  0.93203  0.72942  0.92391  1.0000
  C   C6        1.0  0.06796  0.27058  0.07609  1.0000
  C   C7        1.0  0.63561  0.78449  0.94472  1.0000
  C   C8        1.0  0.36439  0.21549  0.05528  1.0000
  C   C9        1.0  0.53709  0.86033  0.85372  1.0000
  C   C10       1.0  0.46289  0.13966  0.14628  1.0000
  C   C11       1.0  0.77476  0.87234  0.73925  1.0000
  C   C12       1.0  0.22524  0.12767  0.26076  1.0000
  C   C13       1.0  0.24352  0.17428  0.64791  1.0000
  C   C14       1.0  0.75648  0.82575  0.35208  1.0000
  S   S1        1.0  0.23213  0.36896  0.68384  1.0000
  S   S2        1.0  0.76788  0.63107  0.31616  1.0000
  N   N1        1.0  0.75818  0.32054  0.58818  1.0000
  N   N2        1.0  0.24181  0.67946  0.41182  1.0000
  N   N3        1.0  0.78579  0.79303  0.87039  1.0000
  N   N4        1.0  0.21421  0.20696  0.12962  1.0000
  N   N5        1.0  0.62490  0.91389  0.72599  1.0000
  N   N6        1.0  0.37511  0.08611  0.27402  1.0000
  N   N7        1.0  0.25695  0.03358  0.62613  1.0000
  N   N8        1.0  0.74307  0.96644  0.37386  1.0000
