data_image0
_chemical_formula_structural       CuH22C12N6Cl2O8
_chemical_formula_sum              "Cu1 H22 C12 N6 Cl2 O8"
_cell_length_a       7.58007
_cell_length_b       8.15305
_cell_length_c       9.24167
_cell_angle_alpha    64.6467
_cell_angle_beta     74.7249
_cell_angle_gamma    67.0219

_space_group_name_H-M_alt    "P 1"
_space_group_IT_number       1

loop_
  _space_group_symop_operation_xyz
  'x, y, z'

loop_
  _atom_site_type_symbol
  _atom_site_label
  _atom_site_symmetry_multiplicity
  _atom_site_fract_x
  _atom_site_fract_y
  _atom_site_fract_z
  _atom_site_occupancy
  Cu  Cu1       1.0  0.50000  0.50000  1.00000  1.0000
  H   H1        1.0  0.38341  0.94783  0.94796  1.0000
  H   H2        1.0  0.61658  0.05217  0.05205  1.0000
  H   H3        1.0  0.16496  0.89562  0.01220  1.0000
  H   H4        1.0  0.83504  0.10437  0.98780  1.0000
  H   H5        1.0  0.07543  0.09886  0.72211  1.0000
  H   H6        1.0  0.92457  0.90114  0.27788  1.0000
  H   H7        1.0  0.07313  0.22158  0.83998  1.0000
  H   H8        1.0  0.92687  0.77842  0.16002  1.0000
  H   H9        1.0  0.40493  0.12397  0.58445  1.0000
  H   H10       1.0  0.59508  0.87602  0.41556  1.0000
  H   H11       1.0  0.21875  0.34566  0.55543  1.0000
  H   H12       1.0  0.78125  0.65434  0.44456  1.0000
  H   H13       1.0  0.68177  0.23729  0.54234  1.0000
  H   H14       1.0  0.31822  0.76273  0.45765  1.0000
  H   H15       1.0  0.78355  0.40041  0.70421  1.0000
  H   H16       1.0  0.21644  0.59961  0.29578  1.0000
  H   H17       1.0  0.22337  0.36570  0.89663  1.0000
  H   H18       1.0  0.77664  0.63429  0.10338  1.0000
  H   H19       1.0  0.46107  0.79745  0.75649  1.0000
  H   H20       1.0  0.53893  0.20256  0.24350  1.0000
  H   H21       1.0  0.24922  0.75573  0.81162  1.0000
  H   H22       1.0  0.75079  0.24427  0.18838  1.0000
  C   C1        1.0  0.26905  0.93354  0.90649  1.0000
  C   C2        1.0  0.73094  0.06646  0.09351  1.0000
  C   C3        1.0  0.16887  0.12247  0.77929  1.0000
  C   C4        1.0  0.83112  0.87753  0.22072  1.0000
  C   C5        1.0  0.30341  0.21916  0.64596  1.0000
  C   C6        1.0  0.69659  0.78083  0.35404  1.0000
  C   C7        1.0  0.60242  0.28979  0.63793  1.0000
  C   C8        1.0  0.39758  0.71022  0.36207  1.0000
  C   C9        1.0  0.65202  0.36982  0.71869  1.0000
  C   C10       1.0  0.34798  0.63018  0.28130  1.0000
  C   C11       1.0  0.36159  0.35362  0.82283  1.0000
  C   C12       1.0  0.63842  0.64637  0.17718  1.0000
  N   N1        1.0  0.35476  0.77137  0.85040  1.0000
  N   N2        1.0  0.64524  0.22863  0.14959  1.0000
  N   N3        1.0  0.41955  0.28017  0.70503  1.0000
  N   N4        1.0  0.58045  0.71982  0.29497  1.0000
  N   N5        1.0  0.50069  0.40827  0.83402  1.0000
  N   N6        1.0  0.49931  0.59173  0.16598  1.0000
  Cl  Cl1       1.0  0.88497  0.72754  0.73516  1.0000
  Cl  Cl2       1.0  0.11502  0.27246  0.26484  1.0000
  O   O1        1.0  0.84540  0.55362  0.85807  1.0000
  O   O2        1.0  0.15461  0.44637  0.14194  1.0000
  O   O3        1.0  0.70701  0.86337  0.66453  1.0000
  O   O4        1.0  0.29299  0.13663  0.33547  1.0000
  O   O5        1.0  0.03151  0.67779  0.60944  1.0000
  O   O6        1.0  0.96850  0.32221  0.39056  1.0000
  O   O7        1.0  0.95179  0.81418  0.81097  1.0000
  O   O8        1.0  0.04820  0.18583  0.18903  1.0000
