data_image0
_chemical_formula_structural       CoH16C16N2Cl6O6
_chemical_formula_sum              "Co1 H16 C16 N2 Cl6 O6"
_cell_length_a       7.09235
_cell_length_b       9.34725
_cell_length_c       9.25777
_cell_angle_alpha    106.76
_cell_angle_beta     111.197
_cell_angle_gamma    92.322

_space_group_name_H-M_alt    "P 1"
_space_group_IT_number       1

loop_
  _space_group_symop_operation_xyz
  'x, y, z'

loop_
  _atom_site_type_symbol
  _atom_site_label
  _atom_site_symmetry_multiplicity
  _atom_site_fract_x
  _atom_site_fract_y
  _atom_site_fract_z
  _atom_site_occupancy
  Co  Co1       1.0  0.00000  0.00000  1.00000  1.0000
  H   H1        1.0  0.27196  0.82833  0.10170  1.0000
  H   H2        1.0  0.72803  0.17167  0.89830  1.0000
  H   H3        1.0  0.26649  0.70787  0.83422  1.0000
  H   H4        1.0  0.73352  0.29213  0.16578  1.0000
  H   H5        1.0  0.51681  0.81417  0.96869  1.0000
  H   H6        1.0  0.48319  0.18583  0.03131  1.0000
  H   H7        1.0  0.33727  0.89410  0.83462  1.0000
  H   H8        1.0  0.66274  0.10590  0.16538  1.0000
  H   H9        1.0  0.33286  0.04781  0.31383  1.0000
  H   H10       1.0  0.66714  0.95219  0.68618  1.0000
  H   H11       1.0  0.56678  0.26361  0.54059  1.0000
  H   H12       1.0  0.43322  0.73639  0.45941  1.0000
  H   H13       1.0  0.24780  0.55543  0.27726  1.0000
  H   H14       1.0  0.75220  0.44457  0.72275  1.0000
  H   H15       1.0  0.02774  0.32803  0.06366  1.0000
  H   H16       1.0  0.97227  0.67197  0.93634  1.0000
  C   C1        1.0  0.35373  0.82169  0.91115  1.0000
  C   C2        1.0  0.64626  0.17831  0.08886  1.0000
  C   C3        1.0  0.31940  0.16222  0.31033  1.0000
  C   C4        1.0  0.68060  0.83778  0.68967  1.0000
  C   C5        1.0  0.45090  0.28540  0.43768  1.0000
  C   C6        1.0  0.54910  0.71460  0.56232  1.0000
  C   C7        1.0  0.43215  0.43318  0.43281  1.0000
  C   C8        1.0  0.56786  0.56682  0.56719  1.0000
  C   C9        1.0  0.27563  0.44618  0.29324  1.0000
  C   C10       1.0  0.72437  0.55382  0.70677  1.0000
  C   C11       1.0  0.14982  0.31784  0.17080  1.0000
  C   C12       1.0  0.85019  0.68216  0.82921  1.0000
  C   C13       1.0  0.98827  0.17195  0.77534  1.0000
  C   C14       1.0  0.01173  0.82805  0.22466  1.0000
  C   C15       1.0  0.12409  0.23392  0.69692  1.0000
  C   C16       1.0  0.87591  0.76609  0.30307  1.0000
  N   N1        1.0  0.16950  0.17594  0.17678  1.0000
  N   N2        1.0  0.83050  0.82405  0.82321  1.0000
  Cl  Cl1       1.0  0.28533  0.10467  0.64916  1.0000
  Cl  Cl2       1.0  0.71466  0.89532  0.35083  1.0000
  Cl  Cl3       1.0  0.28036  0.40604  0.85241  1.0000
  Cl  Cl4       1.0  0.71965  0.59396  0.14759  1.0000
  Cl  Cl5       1.0  0.97548  0.27749  0.52015  1.0000
  Cl  Cl6       1.0  0.02451  0.72251  0.47985  1.0000
  O   O1        1.0  0.27765  0.89217  0.03390  1.0000
  O   O2        1.0  0.72235  0.10783  0.96610  1.0000
  O   O3        1.0  0.06866  0.07944  0.84684  1.0000
  O   O4        1.0  0.93135  0.92056  0.15316  1.0000
  O   O5        1.0  0.82641  0.22507  0.76684  1.0000
  O   O6        1.0  0.17358  0.77492  0.23314  1.0000
