data_image0
_chemical_formula_structural       Ag4H16C24N4O14
_chemical_formula_sum              "Ag4 H16 C24 N4 O14"
_cell_length_a       6.31655
_cell_length_b       9.24652
_cell_length_c       11.6792
_cell_angle_alpha    90.2783
_cell_angle_beta     99.0456
_cell_angle_gamma    105.918

_space_group_name_H-M_alt    "P 1"
_space_group_IT_number       1

loop_
  _space_group_symop_operation_xyz
  'x, y, z'

loop_
  _atom_site_type_symbol
  _atom_site_label
  _atom_site_symmetry_multiplicity
  _atom_site_fract_x
  _atom_site_fract_y
  _atom_site_fract_z
  _atom_site_occupancy
  Ag  Ag1       1.0  0.78680  0.71131  0.19309  1.0000
  Ag  Ag2       1.0  0.21320  0.28869  0.80691  1.0000
  Ag  Ag3       1.0  0.91280  0.49978  0.38068  1.0000
  Ag  Ag4       1.0  0.08719  0.50022  0.61932  1.0000
  H   H1        1.0  0.10311  0.39970  0.99915  1.0000
  H   H2        1.0  0.89688  0.60030  0.00085  1.0000
  H   H3        1.0  0.75430  0.18049  0.95975  1.0000
  H   H4        1.0  0.24569  0.81950  0.04024  1.0000
  H   H5        1.0  0.72153  0.96088  0.08841  1.0000
  H   H6        1.0  0.27848  0.03911  0.91159  1.0000
  H   H7        1.0  0.77159  0.97347  0.36110  1.0000
  H   H8        1.0  0.22842  0.02653  0.63890  1.0000
  H   H9        1.0  0.87395  0.13200  0.55059  1.0000
  H   H10       1.0  0.12605  0.86800  0.44942  1.0000
  H   H11       1.0  0.63193  0.29597  0.58822  1.0000
  H   H12       1.0  0.36806  0.70403  0.41178  1.0000
  H   H13       1.0  0.26922  0.79254  0.22688  1.0000
  H   H14       1.0  0.73079  0.20746  0.77312  1.0000
  H   H15       1.0  0.25454  0.62347  0.19514  1.0000
  H   H16       1.0  0.74547  0.37654  0.80486  1.0000
  C   C1        1.0  0.46921  0.41711  0.16461  1.0000
  C   C2        1.0  0.53079  0.58289  0.83538  1.0000
  C   C3        1.0  0.25322  0.29365  0.14113  1.0000
  C   C4        1.0  0.74678  0.70635  0.85887  1.0000
  C   C5        1.0  0.08320  0.30073  0.05098  1.0000
  C   C6        1.0  0.91680  0.69927  0.94902  1.0000
  C   C7        1.0  0.88922  0.18102  0.03005  1.0000
  C   C8        1.0  0.11078  0.81897  0.96995  1.0000
  C   C9        1.0  0.86727  0.05807  0.09813  1.0000
  C   C10       1.0  0.13273  0.94193  0.90187  1.0000
  C   C11       1.0  0.22263  0.17000  0.21159  1.0000
  C   C12       1.0  0.77737  0.83001  0.78841  1.0000
  C   C13       1.0  0.38600  0.15825  0.31444  1.0000
  C   C14       1.0  0.61400  0.84175  0.68556  1.0000
  C   C15       1.0  0.68212  0.05177  0.38388  1.0000
  C   C16       1.0  0.31788  0.94823  0.61612  1.0000
  C   C17       1.0  0.73476  0.14022  0.48545  1.0000
  C   C18       1.0  0.26523  0.85978  0.51455  1.0000
  C   C19       1.0  0.60229  0.23257  0.50580  1.0000
  C   C20       1.0  0.39770  0.76743  0.49420  1.0000
  C   C21       1.0  0.42499  0.24098  0.42016  1.0000
  C   C22       1.0  0.57501  0.75902  0.57984  1.0000
  C   C23       1.0  0.27554  0.33450  0.44708  1.0000
  C   C24       1.0  0.72446  0.66549  0.55292  1.0000
  N   N1        1.0  0.03042  0.05476  0.18864  1.0000
  N   N2        1.0  0.96958  0.94524  0.81136  1.0000
  N   N3        1.0  0.50783  0.05867  0.30087  1.0000
  N   N4        1.0  0.49217  0.94133  0.69913  1.0000
  O   O1        1.0  0.45501  0.55093  0.14264  1.0000
  O   O2        1.0  0.54499  0.44907  0.85735  1.0000
  O   O3        1.0  0.64569  0.38266  0.20192  1.0000
  O   O4        1.0  0.35430  0.61733  0.79807  1.0000
  O   O5        1.0  0.00624  0.94044  0.25765  1.0000
  O   O6        1.0  0.99376  0.05956  0.74235  1.0000
  O   O7        1.0  0.45657  0.97041  0.20673  1.0000
  O   O8        1.0  0.54344  0.02959  0.79327  1.0000
  O   O9        1.0  0.15833  0.37594  0.36219  1.0000
  O   O10       1.0  0.84166  0.62406  0.63781  1.0000
  O   O11       1.0  0.28033  0.36056  0.55486  1.0000
  O   O12       1.0  0.71967  0.63944  0.44514  1.0000
  O   O13       1.0  0.17387  0.68752  0.22803  1.0000
  O   O14       1.0  0.82614  0.31248  0.77197  1.0000
