data_image0
_chemical_formula_structural       Sm2H46C76N8O16
_chemical_formula_sum              "Sm2 H46 C76 N8 O16"
_cell_length_a       9.08873
_cell_length_b       13.605
_cell_length_c       14.128
_cell_angle_alpha    97.2481
_cell_angle_beta     96.6819
_cell_angle_gamma    105.148

_space_group_name_H-M_alt    "P 1"
_space_group_IT_number       1

loop_
  _space_group_symop_operation_xyz
  'x, y, z'

loop_
  _atom_site_type_symbol
  _atom_site_label
  _atom_site_symmetry_multiplicity
  _atom_site_fract_x
  _atom_site_fract_y
  _atom_site_fract_z
  _atom_site_occupancy
  Sm  Sm1       1.0  0.36980  0.35778  0.01218  1.0000
  Sm  Sm2       1.0  0.63020  0.64223  0.98782  1.0000
  H   H1        1.0  0.28432  0.90988  0.33239  1.0000
  H   H2        1.0  0.71568  0.09012  0.66761  1.0000
  H   H3        1.0  0.73319  0.23525  0.20781  1.0000
  H   H4        1.0  0.26681  0.76474  0.79219  1.0000
  H   H5        1.0  0.72185  0.17611  0.48750  1.0000
  H   H6        1.0  0.27815  0.82389  0.51250  1.0000
  H   H7        1.0  0.31299  0.21452  0.32609  1.0000
  H   H8        1.0  0.68701  0.78548  0.67390  1.0000
  H   H9        1.0  0.56688  0.33059  0.57381  1.0000
  H   H10       1.0  0.43312  0.66941  0.42619  1.0000
  H   H11       1.0  0.43186  0.33217  0.71651  1.0000
  H   H12       1.0  0.56814  0.66783  0.28349  1.0000
  H   H13       1.0  0.20791  0.18526  0.72572  1.0000
  H   H14       1.0  0.79209  0.81474  0.27428  1.0000
  H   H15       1.0  0.12957  0.03152  0.59368  1.0000
  H   H16       1.0  0.87043  0.96849  0.40632  1.0000
  H   H17       1.0  0.61146  0.21035  0.80067  1.0000
  H   H18       1.0  0.38854  0.78966  0.19933  1.0000
  H   H19       1.0  0.96458  0.22231  0.63956  1.0000
  H   H20       1.0  0.03542  0.77769  0.36044  1.0000
  H   H21       1.0  0.94086  0.50398  0.80886  1.0000
  H   H22       1.0  0.05914  0.49602  0.19115  1.0000
  H   H23       1.0  0.98127  0.39676  0.53882  1.0000
  H   H24       1.0  0.01873  0.60324  0.46118  1.0000
  H   H25       1.0  0.20056  0.48352  0.46240  1.0000
  H   H26       1.0  0.79944  0.51648  0.53761  1.0000
  H   H27       1.0  0.45975  0.56640  0.56300  1.0000
  H   H28       1.0  0.54025  0.43360  0.43700  1.0000
  H   H29       1.0  0.49660  0.55508  0.73762  1.0000
  H   H30       1.0  0.50341  0.44492  0.26239  1.0000
  H   H31       1.0  0.03780  0.39479  0.07413  1.0000
  H   H32       1.0  0.96219  0.60520  0.92587  1.0000
  H   H33       1.0  0.75482  0.30972  0.07442  1.0000
  H   H34       1.0  0.24517  0.69027  0.92558  1.0000
  H   H35       1.0  0.64379  0.12688  0.99891  1.0000
  H   H36       1.0  0.35622  0.87311  0.00109  1.0000
  H   H37       1.0  0.67822  0.96938  0.89724  1.0000
  H   H38       1.0  0.32177  0.03062  0.10276  1.0000
  H   H39       1.0  0.84961  0.88261  0.81735  1.0000
  H   H40       1.0  0.15039  0.11738  0.18265  1.0000
  H   H41       1.0  0.11303  0.88959  0.77302  1.0000
  H   H42       1.0  0.88697  0.11041  0.22698  1.0000
  H   H43       1.0  0.39312  0.98554  0.79568  1.0000
  H   H44       1.0  0.60689  0.01446  0.20432  1.0000
  H   H45       1.0  0.48295  0.16346  0.89521  1.0000
  H   H46       1.0  0.51705  0.83654  0.10479  1.0000
  C   C1        1.0  0.44622  0.25502  0.16489  1.0000
  C   C2        1.0  0.55378  0.74498  0.83510  1.0000
  C   C3        1.0  0.51323  0.22567  0.25493  1.0000
  C   C4        1.0  0.48677  0.77433  0.74507  1.0000
  C   C5        1.0  0.66691  0.22204  0.26690  1.0000
  C   C6        1.0  0.33309  0.77796  0.73310  1.0000
  C   C7        1.0  0.65991  0.19027  0.42189  1.0000
  C   C8        1.0  0.34010  0.80973  0.57810  1.0000
  C   C9        1.0  0.50486  0.19057  0.41731  1.0000
  C   C10       1.0  0.49515  0.80943  0.58268  1.0000
  C   C11       1.0  0.43154  0.20970  0.33194  1.0000
  C   C12       1.0  0.56846  0.79030  0.66806  1.0000
  C   C13       1.0  0.42524  0.18060  0.50299  1.0000
  C   C14       1.0  0.57477  0.81940  0.49701  1.0000
  C   C15       1.0  0.47112  0.26461  0.57887  1.0000
  C   C16       1.0  0.52889  0.73539  0.42113  1.0000
  C   C17       1.0  0.39477  0.26599  0.65881  1.0000
  C   C18       1.0  0.60523  0.73402  0.34119  1.0000
  C   C19       1.0  0.26996  0.18294  0.66439  1.0000
  C   C20       1.0  0.73004  0.81706  0.33561  1.0000
  C   C21       1.0  0.22571  0.09787  0.59112  1.0000
  C   C22       1.0  0.77430  0.90214  0.40888  1.0000
  C   C23       1.0  0.30195  0.09508  0.51034  1.0000
  C   C24       1.0  0.69806  0.90492  0.48966  1.0000
  C   C25       1.0  0.24533  0.99699  0.43935  1.0000
  C   C26       1.0  0.75465  0.00300  0.56065  1.0000
  C   C27       1.0  0.76763  0.36321  0.81607  1.0000
  C   C28       1.0  0.23237  0.63679  0.18394  1.0000
  C   C29       1.0  0.71582  0.25737  0.78052  1.0000
  C   C30       1.0  0.28418  0.74263  0.21948  1.0000
  C   C31       1.0  0.91301  0.26541  0.69020  1.0000
  C   C32       1.0  0.08699  0.73459  0.30980  1.0000
  C   C33       1.0  0.97554  0.37176  0.72165  1.0000
  C   C34       1.0  0.02446  0.62824  0.27835  1.0000
  C   C35       1.0  0.89966  0.42083  0.78507  1.0000
  C   C36       1.0  0.10034  0.57918  0.21494  1.0000
  C   C37       1.0  0.67893  0.41127  0.88327  1.0000
  C   C38       1.0  0.32107  0.58873  0.11673  1.0000
  C   C39       1.0  0.11242  0.42712  0.68176  1.0000
  C   C40       1.0  0.88758  0.57289  0.31825  1.0000
  C   C41       1.0  0.09420  0.43234  0.58279  1.0000
  C   C42       1.0  0.90580  0.56767  0.41721  1.0000
  C   C43       1.0  0.21795  0.48155  0.53980  1.0000
  C   C44       1.0  0.78205  0.51845  0.46021  1.0000
  C   C45       1.0  0.36243  0.52745  0.59571  1.0000
  C   C46       1.0  0.63757  0.47256  0.40429  1.0000
  C   C47       1.0  0.38280  0.52253  0.69413  1.0000
  C   C48       1.0  0.61721  0.47747  0.30587  1.0000
  C   C49       1.0  0.25997  0.47195  0.73778  1.0000
  C   C50       1.0  0.74003  0.52806  0.26223  1.0000
  C   C51       1.0  0.29627  0.45220  0.83841  1.0000
  C   C52       1.0  0.70372  0.54780  0.16159  1.0000
  C   C53       1.0  0.98344  0.31474  0.04095  1.0000
  C   C54       1.0  0.01656  0.68526  0.95905  1.0000
  C   C55       1.0  0.82676  0.26746  0.04091  1.0000
  C   C56       1.0  0.17323  0.73254  0.95909  1.0000
  C   C57       1.0  0.76424  0.16594  0.99705  1.0000
  C   C58       1.0  0.23576  0.83406  0.00295  1.0000
  C   C59       1.0  0.85716  0.11354  0.95000  1.0000
  C   C60       1.0  0.14284  0.88646  0.05000  1.0000
  C   C61       1.0  0.01523  0.16776  0.95485  1.0000
  C   C62       1.0  0.98478  0.83224  0.04515  1.0000
  C   C63       1.0  0.79960  0.00981  0.89934  1.0000
  C   C64       1.0  0.20040  0.99018  0.10066  1.0000
  C   C65       1.0  0.89384  0.96210  0.85474  1.0000
  C   C66       1.0  0.10616  0.03790  0.14526  1.0000
  C   C67       1.0  0.05397  0.01385  0.85906  1.0000
  C   C68       1.0  0.94604  0.98614  0.14094  1.0000
  C   C69       1.0  0.11562  0.11629  0.91044  1.0000
  C   C70       1.0  0.88438  0.88370  0.08956  1.0000
  C   C71       1.0  0.15635  0.96669  0.81594  1.0000
  C   C72       1.0  0.84365  0.03331  0.18406  1.0000
  C   C73       1.0  0.31125  0.01953  0.82836  1.0000
  C   C74       1.0  0.68876  0.98047  0.17164  1.0000
  C   C75       1.0  0.36193  0.11925  0.88269  1.0000
  C   C76       1.0  0.63807  0.88075  0.11731  1.0000
  N   N1        1.0  0.74019  0.20523  0.34838  1.0000
  N   N2        1.0  0.25981  0.79477  0.65161  1.0000
  N   N3        1.0  0.78636  0.20961  0.71917  1.0000
  N   N4        1.0  0.21364  0.79039  0.28084  1.0000
  N   N5        1.0  0.07653  0.26634  0.00131  1.0000
  N   N6        1.0  0.92347  0.73366  0.99869  1.0000
  N   N7        1.0  0.26773  0.16750  0.92122  1.0000
  N   N8        1.0  0.73227  0.83249  0.07878  1.0000
  O   O1        1.0  0.32886  0.29053  0.16518  1.0000
  O   O2        1.0  0.67114  0.70947  0.83482  1.0000
  O   O3        1.0  0.51184  0.24875  0.09001  1.0000
  O   O4        1.0  0.48816  0.75126  0.90999  1.0000
  O   O5        1.0  0.33270  0.98433  0.37152  1.0000
  O   O6        1.0  0.66730  0.01567  0.62848  1.0000
  O   O7        1.0  0.12648  0.93061  0.44607  1.0000
  O   O8        1.0  0.87354  0.06940  0.55392  1.0000
  O   O9        1.0  0.56234  0.35095  0.90788  1.0000
  O   O10       1.0  0.43766  0.64906  0.09212  1.0000
  O   O11       1.0  0.72616  0.50866  0.91018  1.0000
  O   O12       1.0  0.27384  0.49134  0.08982  1.0000
  O   O13       1.0  0.22237  0.36729  0.86015  1.0000
  O   O14       1.0  0.77762  0.63271  0.13985  1.0000
  O   O15       1.0  0.40633  0.51658  0.89869  1.0000
  O   O16       1.0  0.59366  0.48342  0.10131  1.0000
