data_image0
_chemical_formula_structural       Na4H24Pb4C24N4O24
_chemical_formula_sum              "Na4 H24 Pb4 C24 N4 O24"
_cell_length_a       9.83185
_cell_length_b       9.83192
_cell_length_c       9.83207
_cell_angle_alpha    89.9995
_cell_angle_beta     90.0013
_cell_angle_gamma    89.9985

_space_group_name_H-M_alt    "P 1"
_space_group_IT_number       1

loop_
  _space_group_symop_operation_xyz
  'x, y, z'

loop_
  _atom_site_type_symbol
  _atom_site_label
  _atom_site_symmetry_multiplicity
  _atom_site_fract_x
  _atom_site_fract_y
  _atom_site_fract_z
  _atom_site_occupancy
  Na  Na1       1.0  0.67938  0.67939  0.67938  1.0000
  Na  Na2       1.0  0.82061  0.32062  0.17938  1.0000
  Na  Na3       1.0  0.32062  0.17939  0.82062  1.0000
  Na  Na4       1.0  0.17939  0.82062  0.32062  1.0000
  H   H1        1.0  0.82596  0.83242  0.02785  1.0000
  H   H2        1.0  0.67403  0.16757  0.52785  1.0000
  H   H3        1.0  0.17404  0.33242  0.47215  1.0000
  H   H4        1.0  0.32597  0.66756  0.97215  1.0000
  H   H5        1.0  0.02786  0.82596  0.83243  1.0000
  H   H6        1.0  0.52786  0.67404  0.16757  1.0000
  H   H7        1.0  0.47214  0.17404  0.33243  1.0000
  H   H8        1.0  0.97215  0.32596  0.66757  1.0000
  H   H9        1.0  0.83243  0.02786  0.82596  1.0000
  H   H10       1.0  0.16757  0.52785  0.67403  1.0000
  H   H11       1.0  0.33244  0.47215  0.17402  1.0000
  H   H12       1.0  0.66757  0.97215  0.32596  1.0000
  H   H13       1.0  0.65385  0.82446  0.97466  1.0000
  H   H14       1.0  0.84614  0.17555  0.47466  1.0000
  H   H15       1.0  0.34615  0.32446  0.52534  1.0000
  H   H16       1.0  0.15386  0.67555  0.02533  1.0000
  H   H17       1.0  0.97466  0.65386  0.82446  1.0000
  H   H18       1.0  0.47467  0.84614  0.17554  1.0000
  H   H19       1.0  0.52533  0.34614  0.32445  1.0000
  H   H20       1.0  0.02534  0.15386  0.67554  1.0000
  H   H21       1.0  0.82445  0.97466  0.65386  1.0000
  H   H22       1.0  0.17554  0.47466  0.84615  1.0000
  H   H23       1.0  0.32444  0.52534  0.34614  1.0000
  H   H24       1.0  0.67555  0.02534  0.15386  1.0000
  Pb  Pb1       1.0  0.65687  0.34313  0.84314  1.0000
  Pb  Pb2       1.0  0.84310  0.65689  0.34311  1.0000
  Pb  Pb3       1.0  0.34315  0.84314  0.65685  1.0000
  Pb  Pb4       1.0  0.15687  0.15688  0.15688  1.0000
  C   C1        1.0  0.72775  0.78269  0.04805  1.0000
  C   C2        1.0  0.77225  0.21731  0.54806  1.0000
  C   C3        1.0  0.27226  0.28268  0.45194  1.0000
  C   C4        1.0  0.22775  0.71731  0.95195  1.0000
  C   C5        1.0  0.04805  0.72774  0.78269  1.0000
  C   C6        1.0  0.54805  0.77225  0.21732  1.0000
  C   C7        1.0  0.45195  0.27226  0.28268  1.0000
  C   C8        1.0  0.95195  0.22775  0.71732  1.0000
  C   C9        1.0  0.78268  0.04805  0.72775  1.0000
  C   C10       1.0  0.21731  0.54805  0.77225  1.0000
  C   C11       1.0  0.28269  0.45194  0.27225  1.0000
  C   C12       1.0  0.71731  0.95194  0.22775  1.0000
  C   C13       1.0  0.74776  0.63082  0.01871  1.0000
  C   C14       1.0  0.75228  0.36918  0.51872  1.0000
  C   C15       1.0  0.25224  0.13082  0.48130  1.0000
  C   C16       1.0  0.24771  0.86919  0.98128  1.0000
  C   C17       1.0  0.01871  0.74773  0.63081  1.0000
  C   C18       1.0  0.51871  0.75227  0.36918  1.0000
  C   C19       1.0  0.48129  0.25228  0.13082  1.0000
  C   C20       1.0  0.98129  0.24775  0.86918  1.0000
  C   C21       1.0  0.63081  0.01871  0.74772  1.0000
  C   C22       1.0  0.36918  0.51871  0.75226  1.0000
  C   C23       1.0  0.13082  0.48129  0.25230  1.0000
  C   C24       1.0  0.86918  0.98129  0.24773  1.0000
  N   N1        1.0  0.68973  0.81027  0.18973  1.0000
  N   N2        1.0  0.81028  0.18973  0.68972  1.0000
  N   N3        1.0  0.31027  0.31027  0.31027  1.0000
  N   N4        1.0  0.18971  0.68971  0.81029  1.0000
  O   O1        1.0  0.74896  0.59630  0.89465  1.0000
  O   O2        1.0  0.75104  0.40370  0.39464  1.0000
  O   O3        1.0  0.25104  0.09630  0.60536  1.0000
  O   O4        1.0  0.24897  0.90370  0.10537  1.0000
  O   O5        1.0  0.89464  0.74896  0.59630  1.0000
  O   O6        1.0  0.39464  0.75103  0.40370  1.0000
  O   O7        1.0  0.60536  0.25104  0.09630  1.0000
  O   O8        1.0  0.10537  0.24896  0.90370  1.0000
  O   O9        1.0  0.59631  0.89464  0.74897  1.0000
  O   O10       1.0  0.40370  0.39464  0.75104  1.0000
  O   O11       1.0  0.09631  0.60536  0.25103  1.0000
  O   O12       1.0  0.90370  0.10537  0.24896  1.0000
  O   O13       1.0  0.76332  0.55000  0.11870  1.0000
  O   O14       1.0  0.73668  0.45000  0.61869  1.0000
  O   O15       1.0  0.23668  0.05000  0.38131  1.0000
  O   O16       1.0  0.26333  0.95000  0.88131  1.0000
  O   O17       1.0  0.11869  0.76332  0.55000  1.0000
  O   O18       1.0  0.61869  0.73667  0.45000  1.0000
  O   O19       1.0  0.38131  0.23667  0.05000  1.0000
  O   O20       1.0  0.88131  0.26332  0.95000  1.0000
  O   O21       1.0  0.55001  0.11869  0.76333  1.0000
  O   O22       1.0  0.45001  0.61869  0.73668  1.0000
  O   O23       1.0  0.05001  0.38131  0.23667  1.0000
  O   O24       1.0  0.94999  0.88130  0.26332  1.0000
