data_image0
_chemical_formula_structural       Mg4H24C20N8O24
_chemical_formula_sum              "Mg4 H24 C20 N8 O24"
_cell_length_a       7.74081
_cell_length_b       7.74083
_cell_length_c       13.6
_cell_angle_alpha    89.1281
_cell_angle_beta     89.128
_cell_angle_gamma    76.6579

_space_group_name_H-M_alt    "P 1"
_space_group_IT_number       1

loop_
  _space_group_symop_operation_xyz
  'x, y, z'

loop_
  _atom_site_type_symbol
  _atom_site_label
  _atom_site_symmetry_multiplicity
  _atom_site_fract_x
  _atom_site_fract_y
  _atom_site_fract_z
  _atom_site_occupancy
  Mg  Mg1       1.0  0.92964  0.58930  0.39311  1.0000
  Mg  Mg2       1.0  0.41070  0.07036  0.10690  1.0000
  Mg  Mg3       1.0  0.07035  0.41070  0.60690  1.0000
  Mg  Mg4       1.0  0.58930  0.92964  0.89310  1.0000
  H   H1        1.0  0.25589  0.44131  0.24419  1.0000
  H   H2        1.0  0.55869  0.74411  0.25581  1.0000
  H   H3        1.0  0.74410  0.55867  0.75581  1.0000
  H   H4        1.0  0.44132  0.25588  0.74419  1.0000
  H   H5        1.0  0.99458  0.91163  0.41579  1.0000
  H   H6        1.0  0.08838  0.00543  0.08421  1.0000
  H   H7        1.0  0.00542  0.08837  0.58421  1.0000
  H   H8        1.0  0.91163  0.99458  0.91579  1.0000
  H   H9        1.0  0.12744  0.69362  0.96457  1.0000
  H   H10       1.0  0.30638  0.87256  0.53543  1.0000
  H   H11       1.0  0.87257  0.30639  0.03544  1.0000
  H   H12       1.0  0.69361  0.12744  0.46456  1.0000
  H   H13       1.0  0.92086  0.86798  0.52252  1.0000
  H   H14       1.0  0.13202  0.07915  0.97748  1.0000
  H   H15       1.0  0.07914  0.13202  0.47747  1.0000
  H   H16       1.0  0.86798  0.92086  0.02252  1.0000
  H   H17       1.0  0.83333  0.39979  0.24848  1.0000
  H   H18       1.0  0.60021  0.16668  0.25152  1.0000
  H   H19       1.0  0.16667  0.60021  0.75152  1.0000
  H   H20       1.0  0.39980  0.83332  0.74848  1.0000
  H   H21       1.0  0.97549  0.25195  0.31163  1.0000
  H   H22       1.0  0.74806  0.02450  0.18837  1.0000
  H   H23       1.0  0.02451  0.74806  0.68837  1.0000
  H   H24       1.0  0.25194  0.97549  0.81163  1.0000
  C   C1        1.0  0.17956  0.60119  0.02329  1.0000
  C   C2        1.0  0.39879  0.82043  0.47671  1.0000
  C   C3        1.0  0.82043  0.39879  0.97671  1.0000
  C   C4        1.0  0.60120  0.17956  0.52329  1.0000
  C   C5        1.0  0.01603  0.75453  0.18262  1.0000
  C   C6        1.0  0.24548  0.98398  0.31739  1.0000
  C   C7        1.0  0.98397  0.24549  0.81738  1.0000
  C   C8        1.0  0.75452  0.01602  0.68262  1.0000
  C   C9        1.0  0.37297  0.32156  0.93029  1.0000
  C   C10       1.0  0.67843  0.62703  0.56972  1.0000
  C   C11       1.0  0.62704  0.67844  0.06972  1.0000
  C   C12       1.0  0.32156  0.37297  0.43028  1.0000
  C   C13       1.0  0.29455  0.43247  0.01520  1.0000
  C   C14       1.0  0.56753  0.70546  0.48481  1.0000
  C   C15       1.0  0.70546  0.56752  0.98481  1.0000
  C   C16       1.0  0.43247  0.29453  0.51519  1.0000
  C   C17       1.0  0.14177  0.62114  0.12397  1.0000
  C   C18       1.0  0.37886  0.85824  0.37604  1.0000
  C   C19       1.0  0.85824  0.37887  0.87603  1.0000
  C   C20       1.0  0.62113  0.14176  0.62397  1.0000
  N   N1        1.0  0.23424  0.47032  0.16918  1.0000
  N   N2        1.0  0.52969  0.76577  0.33082  1.0000
  N   N3        1.0  0.76576  0.52969  0.83082  1.0000
  N   N4        1.0  0.47031  0.23423  0.66918  1.0000
  N   N5        1.0  0.32578  0.35649  0.10544  1.0000
  N   N6        1.0  0.64351  0.67423  0.39456  1.0000
  N   N7        1.0  0.67422  0.64351  0.89456  1.0000
  N   N8        1.0  0.35648  0.32577  0.60544  1.0000
  O   O1        1.0  0.99153  0.71704  0.27125  1.0000
  O   O2        1.0  0.28298  0.00847  0.22875  1.0000
  O   O3        1.0  0.00848  0.28296  0.72874  1.0000
  O   O4        1.0  0.71703  0.99152  0.77125  1.0000
  O   O5        1.0  0.45832  0.16244  0.95498  1.0000
  O   O6        1.0  0.83756  0.54168  0.54502  1.0000
  O   O7        1.0  0.54169  0.83756  0.04502  1.0000
  O   O8        1.0  0.16244  0.45832  0.45498  1.0000
  O   O9        1.0  0.90138  0.37627  0.30899  1.0000
  O   O10       1.0  0.62374  0.09862  0.19102  1.0000
  O   O11       1.0  0.09861  0.62373  0.69101  1.0000
  O   O12       1.0  0.37626  0.90138  0.80899  1.0000
  O   O13       1.0  0.93652  0.82964  0.45314  1.0000
  O   O14       1.0  0.17036  0.06348  0.04686  1.0000
  O   O15       1.0  0.06347  0.17036  0.54685  1.0000
  O   O16       1.0  0.82964  0.93653  0.95315  1.0000
  O   O17       1.0  0.93701  0.90028  0.14029  1.0000
  O   O18       1.0  0.09972  0.06300  0.35970  1.0000
  O   O19       1.0  0.06297  0.09974  0.85971  1.0000
  O   O20       1.0  0.90028  0.93701  0.64030  1.0000
  O   O21       1.0  0.35145  0.38142  0.84400  1.0000
  O   O22       1.0  0.61857  0.64853  0.65601  1.0000
  O   O23       1.0  0.64856  0.61858  0.15600  1.0000
  O   O24       1.0  0.38142  0.35146  0.34399  1.0000
