data_image0
_chemical_formula_structural       Li4H60C64S4N8
_chemical_formula_sum              "Li4 H60 C64 S4 N8"
_cell_length_a       8.55417
_cell_length_b       9.6126
_cell_length_c       18.0044
_cell_angle_alpha    90
_cell_angle_beta     90
_cell_angle_gamma    100.076

_space_group_name_H-M_alt    "P 1"
_space_group_IT_number       1

loop_
  _space_group_symop_operation_xyz
  'x, y, z'

loop_
  _atom_site_type_symbol
  _atom_site_label
  _atom_site_symmetry_multiplicity
  _atom_site_fract_x
  _atom_site_fract_y
  _atom_site_fract_z
  _atom_site_occupancy
  Li  Li1       1.0  0.85797  0.49998  0.77730  1.0000
  Li  Li2       1.0  0.64204  0.50001  0.27731  1.0000
  Li  Li3       1.0  0.14204  0.50001  0.22270  1.0000
  Li  Li4       1.0  0.35796  0.49999  0.72269  1.0000
  H   H1        1.0  0.67586  0.20866  0.80584  1.0000
  H   H2        1.0  0.82414  0.79133  0.30583  1.0000
  H   H3        1.0  0.32414  0.79134  0.19416  1.0000
  H   H4        1.0  0.17586  0.20866  0.69416  1.0000
  H   H5        1.0  0.60557  0.98157  0.73677  1.0000
  H   H6        1.0  0.89444  0.01842  0.23677  1.0000
  H   H7        1.0  0.39443  0.01842  0.26323  1.0000
  H   H8        1.0  0.10557  0.98157  0.76323  1.0000
  H   H9        1.0  0.71178  0.96642  0.60727  1.0000
  H   H10       1.0  0.78823  0.03358  0.10727  1.0000
  H   H11       1.0  0.28822  0.03358  0.39273  1.0000
  H   H12       1.0  0.21178  0.96642  0.89273  1.0000
  H   H13       1.0  0.88689  0.18033  0.55330  1.0000
  H   H14       1.0  0.61312  0.81967  0.05329  1.0000
  H   H15       1.0  0.11311  0.81967  0.44670  1.0000
  H   H16       1.0  0.38688  0.18033  0.94670  1.0000
  H   H17       1.0  0.95176  0.39773  0.63279  1.0000
  H   H18       1.0  0.54824  0.60227  0.13279  1.0000
  H   H19       1.0  0.04824  0.60227  0.36721  1.0000
  H   H20       1.0  0.45176  0.39773  0.86721  1.0000
  H   H21       1.0  0.02879  0.31600  0.86462  1.0000
  H   H22       1.0  0.47122  0.68400  0.36462  1.0000
  H   H23       1.0  0.97122  0.68400  0.13538  1.0000
  H   H24       1.0  0.52878  0.31600  0.63538  1.0000
  H   H25       1.0  0.04092  0.22624  0.99470  1.0000
  H   H26       1.0  0.45908  0.77375  0.49469  1.0000
  H   H27       1.0  0.95908  0.77376  0.00531  1.0000
  H   H28       1.0  0.54091  0.22624  0.50530  1.0000
  H   H29       1.0  0.85260  0.29643  0.09035  1.0000
  H   H30       1.0  0.64738  0.70357  0.59036  1.0000
  H   H31       1.0  0.14738  0.70358  0.90965  1.0000
  H   H32       1.0  0.35259  0.29642  0.40965  1.0000
  H   H33       1.0  0.65968  0.44882  0.04979  1.0000
  H   H34       1.0  0.84032  0.55119  0.54980  1.0000
  H   H35       1.0  0.34031  0.55119  0.95020  1.0000
  H   H36       1.0  0.15967  0.44881  0.45021  1.0000
  H   H37       1.0  0.67106  0.53736  0.91815  1.0000
  H   H38       1.0  0.82895  0.46264  0.41816  1.0000
  H   H39       1.0  0.32894  0.46264  0.08185  1.0000
  H   H40       1.0  0.17106  0.53736  0.58185  1.0000
  H   H41       1.0  0.41257  0.78928  0.69403  1.0000
  H   H42       1.0  0.08743  0.21073  0.19404  1.0000
  H   H43       1.0  0.58744  0.21071  0.30597  1.0000
  H   H44       1.0  0.91257  0.78927  0.80597  1.0000
  H   H45       1.0  0.44257  0.98087  0.59999  1.0000
  H   H46       1.0  0.05742  0.01914  0.09999  1.0000
  H   H47       1.0  0.55744  0.01913  0.40001  1.0000
  H   H48       1.0  0.94258  0.98086  0.90001  1.0000
  H   H49       1.0  0.20618  0.04229  0.53611  1.0000
  H   H50       1.0  0.29381  0.95771  0.03611  1.0000
  H   H51       1.0  0.79383  0.95772  0.46389  1.0000
  H   H52       1.0  0.70619  0.04229  0.96388  1.0000
  H   H53       1.0  0.93754  0.90521  0.56588  1.0000
  H   H54       1.0  0.56245  0.09479  0.06588  1.0000
  H   H55       1.0  0.06247  0.09480  0.43412  1.0000
  H   H56       1.0  0.43754  0.90521  0.93412  1.0000
  H   H57       1.0  0.90460  0.72115  0.66365  1.0000
  H   H58       1.0  0.59540  0.27885  0.16364  1.0000
  H   H59       1.0  0.09541  0.27885  0.33636  1.0000
  H   H60       1.0  0.40460  0.72115  0.83635  1.0000
  C   C1        1.0  0.72069  0.19808  0.74977  1.0000
  C   C2        1.0  0.77931  0.80192  0.24977  1.0000
  C   C3        1.0  0.27930  0.80192  0.25023  1.0000
  C   C4        1.0  0.22069  0.19808  0.75023  1.0000
  C   C5        1.0  0.68086  0.07147  0.71087  1.0000
  C   C6        1.0  0.81915  0.92853  0.21088  1.0000
  C   C7        1.0  0.31914  0.92853  0.28912  1.0000
  C   C8        1.0  0.18085  0.07147  0.78913  1.0000
  C   C9        1.0  0.74062  0.06388  0.63920  1.0000
  C   C10       1.0  0.75939  0.93612  0.13921  1.0000
  C   C11       1.0  0.25938  0.93611  0.36079  1.0000
  C   C12       1.0  0.24061  0.06389  0.86080  1.0000
  C   C13       1.0  0.83823  0.18211  0.60917  1.0000
  C   C14       1.0  0.66177  0.81789  0.10917  1.0000
  C   C15       1.0  0.16177  0.81789  0.39083  1.0000
  C   C16       1.0  0.33823  0.18211  0.89083  1.0000
  C   C17       1.0  0.87302  0.30333  0.65268  1.0000
  C   C18       1.0  0.62698  0.69667  0.15268  1.0000
  C   C19       1.0  0.12698  0.69667  0.34732  1.0000
  C   C20       1.0  0.37302  0.30333  0.84732  1.0000
  C   C21       1.0  0.94876  0.34317  0.90741  1.0000
  C   C22       1.0  0.55125  0.65683  0.40741  1.0000
  C   C23       1.0  0.05124  0.65683  0.09259  1.0000
  C   C24       1.0  0.44875  0.34317  0.59259  1.0000
  C   C25       1.0  0.95419  0.29215  0.97975  1.0000
  C   C26       1.0  0.54581  0.70785  0.47975  1.0000
  C   C27       1.0  0.04582  0.70785  0.02025  1.0000
  C   C28       1.0  0.45418  0.29214  0.52025  1.0000
  C   C29       1.0  0.84940  0.32986  0.03238  1.0000
  C   C30       1.0  0.65060  0.67015  0.53238  1.0000
  C   C31       1.0  0.15059  0.67015  0.96762  1.0000
  C   C32       1.0  0.34939  0.32985  0.46762  1.0000
  C   C33       1.0  0.74308  0.41681  0.01026  1.0000
  C   C34       1.0  0.75692  0.58319  0.51027  1.0000
  C   C35       1.0  0.25692  0.58320  0.98974  1.0000
  C   C36       1.0  0.24307  0.41680  0.48974  1.0000
  C   C37       1.0  0.74786  0.46490  0.93718  1.0000
  C   C38       1.0  0.75214  0.53510  0.43719  1.0000
  C   C39       1.0  0.25214  0.53510  0.06282  1.0000
  C   C40       1.0  0.24785  0.46490  0.56282  1.0000
  C   C41       1.0  0.15614  0.74153  0.68651  1.0000
  C   C42       1.0  0.34387  0.25848  0.18651  1.0000
  C   C43       1.0  0.84388  0.25847  0.31349  1.0000
  C   C44       1.0  0.65613  0.74153  0.81349  1.0000
  C   C45       1.0  0.30787  0.81591  0.66648  1.0000
  C   C46       1.0  0.19213  0.18411  0.16648  1.0000
  C   C47       1.0  0.69213  0.18409  0.33352  1.0000
  C   C48       1.0  0.80787  0.81590  0.83352  1.0000
  C   C49       1.0  0.32472  0.92230  0.61298  1.0000
  C   C50       1.0  0.17527  0.07771  0.11298  1.0000
  C   C51       1.0  0.67528  0.07771  0.38703  1.0000
  C   C52       1.0  0.82473  0.92229  0.88702  1.0000
  C   C53       1.0  0.19217  0.95691  0.57673  1.0000
  C   C54       1.0  0.30783  0.04310  0.07673  1.0000
  C   C55       1.0  0.80784  0.04310  0.42327  1.0000
  C   C56       1.0  0.69217  0.95690  0.92327  1.0000
  C   C57       1.0  0.04200  0.88144  0.59447  1.0000
  C   C58       1.0  0.45799  0.11857  0.09447  1.0000
  C   C59       1.0  0.95800  0.11856  0.40553  1.0000
  C   C60       1.0  0.54200  0.88143  0.90552  1.0000
  C   C61       1.0  0.02333  0.77624  0.64870  1.0000
  C   C62       1.0  0.47667  0.22376  0.14870  1.0000
  C   C63       1.0  0.97667  0.22376  0.35130  1.0000
  C   C64       1.0  0.52333  0.77624  0.85130  1.0000
  S   S1        1.0  0.13467  0.61212  0.75611  1.0000
  S   S2        1.0  0.36533  0.38788  0.25612  1.0000
  S   S3        1.0  0.86533  0.38788  0.24388  1.0000
  S   S4        1.0  0.63467  0.61211  0.74388  1.0000
  N   N1        1.0  0.81529  0.31238  0.72162  1.0000
  N   N2        1.0  0.68471  0.68761  0.22162  1.0000
  N   N3        1.0  0.18471  0.68761  0.27838  1.0000
  N   N4        1.0  0.31529  0.31239  0.77838  1.0000
  N   N5        1.0  0.84861  0.42900  0.88608  1.0000
  N   N6        1.0  0.65140  0.57100  0.38608  1.0000
  N   N7        1.0  0.15139  0.57100  0.11392  1.0000
  N   N8        1.0  0.34860  0.42900  0.61392  1.0000
