data_image0
_chemical_formula_structural       Li4H48C48S4N4
_chemical_formula_sum              "Li4 H48 C48 S4 N4"
_cell_length_a       8.05172
_cell_length_b       11.8492
_cell_length_c       12.1317
_cell_angle_alpha    92.2195
_cell_angle_beta     100.282
_cell_angle_gamma    99.9139

_space_group_name_H-M_alt    "P 1"
_space_group_IT_number       1

loop_
  _space_group_symop_operation_xyz
  'x, y, z'

loop_
  _atom_site_type_symbol
  _atom_site_label
  _atom_site_symmetry_multiplicity
  _atom_site_fract_x
  _atom_site_fract_y
  _atom_site_fract_z
  _atom_site_occupancy
  Li  Li1       1.0  0.50480  0.44689  0.54751  1.0000
  Li  Li2       1.0  0.00566  0.54863  0.44953  1.0000
  Li  Li3       1.0  0.26756  0.45474  0.32351  1.0000
  Li  Li4       1.0  0.76858  0.32565  0.45301  1.0000
  H   H1        1.0  0.64242  0.33882  0.75859  1.0000
  H   H2        1.0  0.14301  0.76006  0.34085  1.0000
  H   H3        1.0  0.52128  0.22102  0.90229  1.0000
  H   H4        1.0  0.02131  0.90396  0.21964  1.0000
  H   H5        1.0  0.20095  0.16700  0.88043  1.0000
  H   H6        1.0  0.70107  0.88121  0.16408  1.0000
  H   H7        1.0  0.01602  0.23169  0.71199  1.0000
  H   H8        1.0  0.51660  0.71180  0.23064  1.0000
  H   H9        1.0  0.15816  0.35192  0.57977  1.0000
  H   H10       1.0  0.65891  0.58074  0.35477  1.0000
  H   H11       1.0  0.43340  0.38634  0.14374  1.0000
  H   H12       1.0  0.93243  0.14050  0.38924  1.0000
  H   H13       1.0  0.47568  0.44491  0.95212  1.0000
  H   H14       1.0  0.97388  0.94468  0.44898  1.0000
  H   H15       1.0  0.34052  0.60791  0.87230  1.0000
  H   H16       1.0  0.84183  0.86706  0.60993  1.0000
  H   H17       1.0  0.16800  0.70426  0.98821  1.0000
  H   H18       1.0  0.67159  0.98871  0.70285  1.0000
  H   H19       1.0  0.14406  0.63762  0.17841  1.0000
  H   H20       1.0  0.64628  0.18218  0.63409  1.0000
  H   H21       1.0  0.21717  0.21766  0.40794  1.0000
  H   H22       1.0  0.71673  0.40993  0.21689  1.0000
  H   H23       1.0  0.40006  0.16126  0.47056  1.0000
  H   H24       1.0  0.90070  0.47376  0.16422  1.0000
  H   H25       1.0  0.47572  0.00158  0.37733  1.0000
  H   H26       1.0  0.97608  0.38152  0.00735  1.0000
  H   H27       1.0  0.43050  0.86382  0.21087  1.0000
  H   H28       1.0  0.92997  0.21450  0.86859  1.0000
  H   H29       1.0  0.24446  0.89596  0.03182  1.0000
  H   H30       1.0  0.74176  0.03105  0.89508  1.0000
  H   H31       1.0  0.09378  0.06383  0.02381  1.0000
  H   H32       1.0  0.59194  0.01937  0.05866  1.0000
  H   H33       1.0  0.13609  0.20005  0.19113  1.0000
  H   H34       1.0  0.63634  0.18698  0.19645  1.0000
  H   H35       1.0  0.42471  0.76522  0.43479  1.0000
  H   H36       1.0  0.91818  0.43023  0.75993  1.0000
  H   H37       1.0  0.58104  0.70915  0.52833  1.0000
  H   H38       1.0  0.07878  0.52552  0.70994  1.0000
  H   H39       1.0  0.55291  0.70463  0.73625  1.0000
  H   H40       1.0  0.05108  0.74009  0.70780  1.0000
  H   H41       1.0  0.50800  0.82706  0.89501  1.0000
  H   H42       1.0  0.00762  0.90112  0.83014  1.0000
  H   H43       1.0  0.34688  0.98759  0.85832  1.0000
  H   H44       1.0  0.84873  0.86158  0.98706  1.0000
  H   H45       1.0  0.22487  0.02177  0.66094  1.0000
  H   H46       1.0  0.72789  0.65925  0.01795  1.0000
  H   H47       1.0  0.26960  0.89855  0.50281  1.0000
  H   H48       1.0  0.77030  0.49890  0.89450  1.0000
  C   C1        1.0  0.50386  0.31318  0.75189  1.0000
  C   C2        1.0  0.00444  0.75339  0.31460  1.0000
  C   C3        1.0  0.43617  0.24769  0.83188  1.0000
  C   C4        1.0  0.93650  0.83319  0.24706  1.0000
  C   C5        1.0  0.25806  0.21757  0.81892  1.0000
  C   C6        1.0  0.75843  0.81970  0.21603  1.0000
  C   C7        1.0  0.15553  0.25378  0.72681  1.0000
  C   C8        1.0  0.65604  0.72729  0.25338  1.0000
  C   C9        1.0  0.23458  0.32003  0.65162  1.0000
  C   C10       1.0  0.73519  0.65269  0.32196  1.0000
  C   C11       1.0  0.37886  0.45727  0.10572  1.0000
  C   C12       1.0  0.87868  0.10313  0.45914  1.0000
  C   C13       1.0  0.40140  0.49019  0.99947  1.0000
  C   C14       1.0  0.90086  0.99464  0.49273  1.0000
  C   C15       1.0  0.32640  0.58052  0.95544  1.0000
  C   C16       1.0  0.82746  0.95180  0.58196  1.0000
  C   C17       1.0  0.23170  0.63488  0.01978  1.0000
  C   C18       1.0  0.73408  0.01938  0.63435  1.0000
  C   C19       1.0  0.21706  0.59710  0.12563  1.0000
  C   C20       1.0  0.71889  0.12701  0.59557  1.0000
  C   C21       1.0  0.33971  0.19629  0.39417  1.0000
  C   C22       1.0  0.83963  0.39538  0.19716  1.0000
  C   C23       1.0  0.30988  0.11062  0.29519  1.0000
  C   C24       1.0  0.81031  0.29540  0.11183  1.0000
  C   C25       1.0  0.39189  0.01522  0.29958  1.0000
  C   C26       1.0  0.89200  0.30182  0.01875  1.0000
  C   C27       1.0  0.36784  0.93827  0.20543  1.0000
  C   C28       1.0  0.86730  0.20736  0.94113  1.0000
  C   C29       1.0  0.26334  0.95607  0.10518  1.0000
  C   C30       1.0  0.76184  0.10468  0.95571  1.0000
  C   C31       1.0  0.17992  0.05053  0.10039  1.0000
  C   C32       1.0  0.67880  0.09781  0.04786  1.0000
  C   C33       1.0  0.20214  0.12674  0.19455  1.0000
  C   C34       1.0  0.70208  0.19221  0.12493  1.0000
  C   C35       1.0  0.44664  0.72140  0.51295  1.0000
  C   C36       1.0  0.94369  0.51145  0.71978  1.0000
  C   C37       1.0  0.41359  0.79294  0.60859  1.0000
  C   C38       1.0  0.91247  0.60838  0.79215  1.0000
  C   C39       1.0  0.47909  0.77336  0.72000  1.0000
  C   C40       1.0  0.97818  0.72267  0.77495  1.0000
  C   C41       1.0  0.45407  0.84254  0.80905  1.0000
  C   C42       1.0  0.95401  0.81295  0.84411  1.0000
  C   C43       1.0  0.36325  0.93249  0.78849  1.0000
  C   C44       1.0  0.86435  0.79080  0.93200  1.0000
  C   C45       1.0  0.29533  0.95166  0.67812  1.0000
  C   C46       1.0  0.79694  0.67761  0.94921  1.0000
  C   C47       1.0  0.32006  0.88194  0.58912  1.0000
  C   C48       1.0  0.82049  0.58739  0.87934  1.0000
  S   S1        1.0  0.47636  0.33048  0.36935  1.0000
  S   S2        1.0  0.97463  0.36873  0.32925  1.0000
  S   S3        1.0  0.31078  0.57855  0.49484  1.0000
  S   S4        1.0  0.81109  0.49901  0.57875  1.0000
  N   N1        1.0  0.40602  0.34954  0.66331  1.0000
  N   N2        1.0  0.90660  0.66493  0.35237  1.0000
  N   N3        1.0  0.28914  0.51009  0.16883  1.0000
  N   N4        1.0  0.79006  0.16926  0.50990  1.0000
