data_image0
_chemical_formula_structural       Cd4H36C68N16O16
_chemical_formula_sum              "Cd4 H36 C68 N16 O16"
_cell_length_a       10.3793
_cell_length_b       12.5267
_cell_length_c       13.4774
_cell_angle_alpha    111.035
_cell_angle_beta     90
_cell_angle_gamma    90

_space_group_name_H-M_alt    "P 1"
_space_group_IT_number       1

loop_
  _space_group_symop_operation_xyz
  'x, y, z'

loop_
  _atom_site_type_symbol
  _atom_site_label
  _atom_site_symmetry_multiplicity
  _atom_site_fract_x
  _atom_site_fract_y
  _atom_site_fract_z
  _atom_site_occupancy
  Cd  Cd1       1.0  0.72458  0.56946  0.82554  1.0000
  Cd  Cd2       1.0  0.22458  0.43054  0.67446  1.0000
  Cd  Cd3       1.0  0.27542  0.43054  0.17446  1.0000
  Cd  Cd4       1.0  0.77542  0.56946  0.32554  1.0000
  H   H1        1.0  0.50750  0.59341  0.43295  1.0000
  H   H2        1.0  0.00750  0.40659  0.06705  1.0000
  H   H3        1.0  0.49250  0.40659  0.56705  1.0000
  H   H4        1.0  0.99250  0.59341  0.93295  1.0000
  H   H5        1.0  0.70254  0.80957  0.03347  1.0000
  H   H6        1.0  0.20254  0.19043  0.46653  1.0000
  H   H7        1.0  0.29746  0.19043  0.96653  1.0000
  H   H8        1.0  0.79746  0.80957  0.53347  1.0000
  H   H9        1.0  0.83785  0.97961  0.11770  1.0000
  H   H10       1.0  0.33785  0.02039  0.38230  1.0000
  H   H11       1.0  0.16215  0.02038  0.88230  1.0000
  H   H12       1.0  0.66215  0.97961  0.61770  1.0000
  H   H13       1.0  0.32706  0.73036  0.46385  1.0000
  H   H14       1.0  0.82706  0.26965  0.03615  1.0000
  H   H15       1.0  0.67294  0.26964  0.53615  1.0000
  H   H16       1.0  0.17294  0.73036  0.96385  1.0000
  H   H17       1.0  0.90199  0.72355  0.74841  1.0000
  H   H18       1.0  0.40199  0.27645  0.75159  1.0000
  H   H19       1.0  0.09801  0.27645  0.25158  1.0000
  H   H20       1.0  0.59801  0.72355  0.24842  1.0000
  H   H21       1.0  0.62322  0.75443  0.76122  1.0000
  H   H22       1.0  0.12322  0.24557  0.73878  1.0000
  H   H23       1.0  0.37678  0.24557  0.23878  1.0000
  H   H24       1.0  0.87678  0.75443  0.26122  1.0000
  H   H25       1.0  0.04329  0.89004  0.81751  1.0000
  H   H26       1.0  0.54329  0.10996  0.68248  1.0000
  H   H27       1.0  0.95671  0.10996  0.18249  1.0000
  H   H28       1.0  0.45671  0.89004  0.31751  1.0000
  H   H29       1.0  0.44270  0.88922  0.79265  1.0000
  H   H30       1.0  0.94270  0.11078  0.70735  1.0000
  H   H31       1.0  0.55730  0.11078  0.20735  1.0000
  H   H32       1.0  0.05730  0.88922  0.29265  1.0000
  H   H33       1.0  0.99602  0.32489  0.49360  1.0000
  H   H34       1.0  0.49602  0.67511  0.00640  1.0000
  H   H35       1.0  0.00398  0.67511  0.50640  1.0000
  H   H36       1.0  0.50397  0.32489  0.99360  1.0000
  C   C1        1.0  0.92244  0.42468  0.65932  1.0000
  C   C2        1.0  0.42244  0.57532  0.84067  1.0000
  C   C3        1.0  0.07756  0.57532  0.34067  1.0000
  C   C4        1.0  0.57756  0.42468  0.15932  1.0000
  C   C5        1.0  0.68513  0.58279  0.57555  1.0000
  C   C6        1.0  0.18513  0.41720  0.92445  1.0000
  C   C7        1.0  0.31487  0.41720  0.42445  1.0000
  C   C8        1.0  0.81487  0.58279  0.07555  1.0000
  C   C9        1.0  0.83217  0.46939  0.59867  1.0000
  C   C10       1.0  0.33217  0.53061  0.90133  1.0000
  C   C11       1.0  0.16783  0.53061  0.40133  1.0000
  C   C12       1.0  0.66783  0.46939  0.09867  1.0000
  C   C13       1.0  0.83179  0.45915  0.49151  1.0000
  C   C14       1.0  0.33179  0.54085  0.00849  1.0000
  C   C15       1.0  0.16821  0.54085  0.50849  1.0000
  C   C16       1.0  0.66821  0.45915  0.99151  1.0000
  C   C17       1.0  0.57802  0.66379  0.59508  1.0000
  C   C18       1.0  0.07802  0.33621  0.90492  1.0000
  C   C19       1.0  0.42198  0.33621  0.40492  1.0000
  C   C20       1.0  0.92198  0.66379  0.09508  1.0000
  C   C21       1.0  0.49363  0.65850  0.51158  1.0000
  C   C22       1.0  0.99363  0.34150  0.98842  1.0000
  C   C23       1.0  0.50637  0.34150  0.48842  1.0000
  C   C24       1.0  0.00637  0.65850  0.01158  1.0000
  C   C25       1.0  0.77938  0.83095  0.98856  1.0000
  C   C26       1.0  0.27938  0.16905  0.51144  1.0000
  C   C27       1.0  0.22062  0.16905  0.01144  1.0000
  C   C28       1.0  0.72062  0.83095  0.48856  1.0000
  C   C29       1.0  0.95613  0.95097  0.97608  1.0000
  C   C30       1.0  0.45613  0.04903  0.52392  1.0000
  C   C31       1.0  0.04387  0.04903  0.02392  1.0000
  C   C32       1.0  0.54387  0.95097  0.47608  1.0000
  C   C33       1.0  0.85566  0.92698  0.03496  1.0000
  C   C34       1.0  0.35566  0.07302  0.46504  1.0000
  C   C35       1.0  0.14434  0.07302  0.96504  1.0000
  C   C36       1.0  0.64434  0.92698  0.53496  1.0000
  C   C37       1.0  0.39147  0.73461  0.52890  1.0000
  C   C38       1.0  0.89147  0.26539  0.97110  1.0000
  C   C39       1.0  0.60853  0.26539  0.47110  1.0000
  C   C40       1.0  0.10853  0.73461  0.02890  1.0000
  C   C41       1.0  0.88991  0.78289  0.82972  1.0000
  C   C42       1.0  0.38991  0.21710  0.67028  1.0000
  C   C43       1.0  0.11009  0.21710  0.17028  1.0000
  C   C44       1.0  0.61009  0.78289  0.32972  1.0000
  C   C45       1.0  0.55794  0.74747  0.69612  1.0000
  C   C46       1.0  0.05793  0.25253  0.80388  1.0000
  C   C47       1.0  0.44207  0.25253  0.30388  1.0000
  C   C48       1.0  0.94206  0.74747  0.19612  1.0000
  C   C49       1.0  0.97013  0.87724  0.87005  1.0000
  C   C50       1.0  0.47013  0.12276  0.62995  1.0000
  C   C51       1.0  0.02987  0.12276  0.12995  1.0000
  C   C52       1.0  0.52987  0.87724  0.37005  1.0000
  C   C53       1.0  0.37115  0.81723  0.63093  1.0000
  C   C54       1.0  0.87116  0.18277  0.86908  1.0000
  C   C55       1.0  0.62885  0.18277  0.36907  1.0000
  C   C56       1.0  0.12884  0.81723  0.13092  1.0000
  C   C57       1.0  0.45585  0.82356  0.71436  1.0000
  C   C58       1.0  0.95584  0.17644  0.78564  1.0000
  C   C59       1.0  0.54416  0.17644  0.28564  1.0000
  C   C60       1.0  0.04416  0.82356  0.21436  1.0000
  C   C61       1.0  0.26551  0.89476  0.65120  1.0000
  C   C62       1.0  0.76552  0.10524  0.84880  1.0000
  C   C63       1.0  0.73449  0.10524  0.34880  1.0000
  C   C64       1.0  0.23448  0.89476  0.15120  1.0000
  C   C65       1.0  0.90339  0.38467  0.39810  1.0000
  C   C66       1.0  0.40339  0.61534  0.10190  1.0000
  C   C67       1.0  0.09661  0.61534  0.60190  1.0000
  C   C68       1.0  0.59661  0.38467  0.89810  1.0000
  N   N1        1.0  0.73915  0.54682  0.65006  1.0000
  N   N2        1.0  0.23915  0.45318  0.84994  1.0000
  N   N3        1.0  0.26085  0.45318  0.34994  1.0000
  N   N4        1.0  0.76085  0.54682  0.15006  1.0000
  N   N5        1.0  0.79716  0.75854  0.88798  1.0000
  N   N6        1.0  0.29716  0.24146  0.61203  1.0000
  N   N7        1.0  0.20284  0.24146  0.11202  1.0000
  N   N8        1.0  0.70284  0.75854  0.38798  1.0000
  N   N9        1.0  0.74063  0.53213  0.47903  1.0000
  N   N10       1.0  0.24063  0.46787  0.02097  1.0000
  N   N11       1.0  0.25937  0.46787  0.52097  1.0000
  N   N12       1.0  0.75937  0.53213  0.97903  1.0000
  N   N13       1.0  0.17900  0.95887  0.67047  1.0000
  N   N14       1.0  0.67900  0.04113  0.82953  1.0000
  N   N15       1.0  0.82100  0.04113  0.32953  1.0000
  N   N16       1.0  0.32101  0.95887  0.17047  1.0000
  O   O1        1.0  0.91308  0.45831  0.75872  1.0000
  O   O2        1.0  0.41308  0.54169  0.74128  1.0000
  O   O3        1.0  0.08692  0.54169  0.24128  1.0000
  O   O4        1.0  0.58692  0.45831  0.25872  1.0000
  O   O5        1.0  0.01305  0.35641  0.60584  1.0000
  O   O6        1.0  0.51305  0.64359  0.89416  1.0000
  O   O7        1.0  0.98695  0.64359  0.39416  1.0000
  O   O8        1.0  0.48695  0.35641  0.10584  1.0000
  O   O9        1.0  0.98436  0.30942  0.41108  1.0000
  O   O10       1.0  0.48436  0.69058  0.08892  1.0000
  O   O11       1.0  0.01564  0.69058  0.58892  1.0000
  O   O12       1.0  0.51564  0.30942  0.91108  1.0000
  O   O13       1.0  0.88654  0.39090  0.30859  1.0000
  O   O14       1.0  0.38654  0.60910  0.19141  1.0000
  O   O15       1.0  0.11346  0.60910  0.69141  1.0000
  O   O16       1.0  0.61346  0.39090  0.80859  1.0000
