data_image0
_chemical_formula_structural       UAg2H12C24N4Cl4O10
_chemical_formula_sum              "U1 Ag2 H12 C24 N4 Cl4 O10"
_cell_length_a       7.39183
_cell_length_b       9.42269
_cell_length_c       11.2478
_cell_angle_alpha    91.9467
_cell_angle_beta     88.5651
_cell_angle_gamma    81.1111

_space_group_name_H-M_alt    "P 1"
_space_group_IT_number       1

loop_
  _space_group_symop_operation_xyz
  'x, y, z'

loop_
  _atom_site_type_symbol
  _atom_site_label
  _atom_site_symmetry_multiplicity
  _atom_site_fract_x
  _atom_site_fract_y
  _atom_site_fract_z
  _atom_site_occupancy
  U   U1        1.0  0.99999  0.99999  0.99999  1.0000
  Ag  Ag1       1.0  0.41840  0.10791  0.18880  1.0000
  Ag  Ag2       1.0  0.58158  0.89209  0.81120  1.0000
  H   H1        1.0  0.13237  0.26070  0.64119  1.0000
  H   H2        1.0  0.86766  0.73929  0.35881  1.0000
  H   H3        1.0  0.34885  0.85184  0.36560  1.0000
  H   H4        1.0  0.65119  0.14816  0.63440  1.0000
  H   H5        1.0  0.24482  0.29227  0.43251  1.0000
  H   H6        1.0  0.75523  0.70772  0.56750  1.0000
  H   H7        1.0  0.69270  0.32215  0.17388  1.0000
  H   H8        1.0  0.30728  0.67786  0.82612  1.0000
  H   H9        1.0  0.11302  0.63964  0.11701  1.0000
  H   H10       1.0  0.88695  0.36036  0.88299  1.0000
  H   H11       1.0  0.12821  0.37418  0.14590  1.0000
  H   H12       1.0  0.87176  0.62582  0.85409  1.0000
  C   C1        1.0  0.12156  0.01695  0.75130  1.0000
  C   C2        1.0  0.87845  0.98304  0.24870  1.0000
  C   C3        1.0  0.18295  0.02974  0.62458  1.0000
  C   C4        1.0  0.81708  0.97025  0.37542  1.0000
  C   C5        1.0  0.18088  0.16807  0.58208  1.0000
  C   C6        1.0  0.81914  0.83192  0.41792  1.0000
  C   C7        1.0  0.24475  0.91380  0.54473  1.0000
  C   C8        1.0  0.75528  0.08620  0.45526  1.0000
  C   C9        1.0  0.30159  0.94052  0.42916  1.0000
  C   C10       1.0  0.69845  0.05947  0.57084  1.0000
  C   C11       1.0  0.24266  0.18549  0.46672  1.0000
  C   C12       1.0  0.75738  0.81450  0.53329  1.0000
  C   C13       1.0  0.38529  0.79352  0.11398  1.0000
  C   C14       1.0  0.61468  0.20649  0.88601  1.0000
  C   C15       1.0  0.56618  0.54320  0.15381  1.0000
  C   C16       1.0  0.43378  0.45681  0.84619  1.0000
  C   C17       1.0  0.40207  0.63473  0.13448  1.0000
  C   C18       1.0  0.59790  0.36529  0.86553  1.0000
  C   C19       1.0  0.56555  0.39612  0.16519  1.0000
  C   C20       1.0  0.43442  0.60389  0.83480  1.0000
  C   C21       1.0  0.24242  0.57183  0.13278  1.0000
  C   C22       1.0  0.75755  0.42817  0.86722  1.0000
  C   C23       1.0  0.25025  0.42578  0.14887  1.0000
  C   C24       1.0  0.74972  0.57422  0.85112  1.0000
  N   N1        1.0  0.30226  0.07346  0.39112  1.0000
  N   N2        1.0  0.69778  0.92653  0.60888  1.0000
  N   N3        1.0  0.41044  0.33861  0.16316  1.0000
  N   N4        1.0  0.58953  0.66140  0.83684  1.0000
  Cl  Cl1       1.0  0.24994  0.73631  0.58000  1.0000
  Cl  Cl2       1.0  0.75009  0.26368  0.41999  1.0000
  Cl  Cl3       1.0  0.77475  0.60296  0.15791  1.0000
  Cl  Cl4       1.0  0.22521  0.39705  0.84209  1.0000
  O   O1        1.0  0.20230  0.91886  0.81502  1.0000
  O   O2        1.0  0.79770  0.08113  0.18498  1.0000
  O   O3        1.0  0.11833  0.14619  0.04814  1.0000
  O   O4        1.0  0.88168  0.85383  0.95186  1.0000
  O   O5        1.0  0.99033  0.10872  0.79516  1.0000
  O   O6        1.0  0.00969  0.89129  0.20483  1.0000
  O   O7        1.0  0.27022  0.83943  0.03605  1.0000
  O   O8        1.0  0.72977  0.16057  0.96395  1.0000
  O   O9        1.0  0.48045  0.86676  0.17475  1.0000
  O   O10       1.0  0.51953  0.13325  0.82526  1.0000
