data_image0
_chemical_formula_structural       Cu2H6C8Br4N4
_chemical_formula_sum              "Cu2 H6 C8 Br4 N4"
_cell_length_a       6.96241
_cell_length_b       7.0126
_cell_length_c       7.62768
_cell_angle_alpha    62.6048
_cell_angle_beta     90.3599
_cell_angle_gamma    90.8503

_space_group_name_H-M_alt    "P 1"
_space_group_IT_number       1

loop_
  _space_group_symop_operation_xyz
  'x, y, z'

loop_
  _atom_site_type_symbol
  _atom_site_label
  _atom_site_symmetry_multiplicity
  _atom_site_fract_x
  _atom_site_fract_y
  _atom_site_fract_z
  _atom_site_occupancy
  Cu  Cu1       1.0  0.49987  0.29576  0.40833  1.0000
  Cu  Cu2       1.0  0.50013  0.70425  0.59168  1.0000
  H   H1        1.0  0.05441  0.18216  0.99996  1.0000
  H   H2        1.0  0.94559  0.81784  0.00003  1.0000
  H   H3        1.0  0.89331  0.11765  0.32086  1.0000
  H   H4        1.0  0.10678  0.56190  0.32102  1.0000
  H   H5        1.0  0.10669  0.88235  0.67912  1.0000
  H   H6        1.0  0.89322  0.43810  0.67896  1.0000
  C   C1        1.0  0.59039  0.44872  1.00000  1.0000
  C   C2        1.0  0.40959  0.55130  0.99999  1.0000
  C   C3        1.0  0.91969  0.25911  0.99996  1.0000
  C   C4        1.0  0.08033  0.74087  0.00006  1.0000
  C   C5        1.0  0.83207  0.22169  0.17673  1.0000
  C   C6        1.0  0.16799  0.60176  0.17683  1.0000
  C   C7        1.0  0.16793  0.77831  0.82328  1.0000
  C   C8        1.0  0.83201  0.39825  0.82318  1.0000
  Br  Br1       1.0  0.71141  0.04753  0.65459  1.0000
  Br  Br2       1.0  0.28827  0.29697  0.65495  1.0000
  Br  Br3       1.0  0.28859  0.95248  0.34540  1.0000
  Br  Br4       1.0  0.71173  0.70296  0.34509  1.0000
  N   N1        1.0  0.66649  0.31863  0.17557  1.0000
  N   N2        1.0  0.33362  0.50603  0.17558  1.0000
  N   N3        1.0  0.33352  0.68137  0.82444  1.0000
  N   N4        1.0  0.66639  0.49400  0.82439  1.0000
