data_image0
_chemical_formula_structural       Cu4H32C40S4I4N8
_chemical_formula_sum              "Cu4 H32 C40 S4 I4 N8"
_cell_length_a       9.09568
_cell_length_b       9.93549
_cell_length_c       13.3883
_cell_angle_alpha    90.0001
_cell_angle_beta     90
_cell_angle_gamma    100.809

_space_group_name_H-M_alt    "P 1"
_space_group_IT_number       1

loop_
  _space_group_symop_operation_xyz
  'x, y, z'

loop_
  _atom_site_type_symbol
  _atom_site_label
  _atom_site_symmetry_multiplicity
  _atom_site_fract_x
  _atom_site_fract_y
  _atom_site_fract_z
  _atom_site_occupancy
  Cu  Cu1       1.0  0.49283  0.59903  0.43856  1.0000
  Cu  Cu2       1.0  0.50717  0.90097  0.93856  1.0000
  Cu  Cu3       1.0  0.50717  0.40097  0.56144  1.0000
  Cu  Cu4       1.0  0.49283  0.09902  0.06144  1.0000
  H   H1        1.0  0.47103  0.89227  0.43092  1.0000
  H   H2        1.0  0.52898  0.60774  0.93092  1.0000
  H   H3        1.0  0.52898  0.10774  0.56908  1.0000
  H   H4        1.0  0.47102  0.39226  0.06908  1.0000
  H   H5        1.0  0.63614  0.11819  0.39788  1.0000
  H   H6        1.0  0.36386  0.38181  0.89788  1.0000
  H   H7        1.0  0.36387  0.88181  0.60212  1.0000
  H   H8        1.0  0.63613  0.61819  0.10212  1.0000
  H   H9        1.0  0.00646  0.90213  0.37573  1.0000
  H   H10       1.0  0.99354  0.59788  0.87573  1.0000
  H   H11       1.0  0.99354  0.09787  0.62427  1.0000
  H   H12       1.0  0.00645  0.40213  0.12427  1.0000
  H   H13       1.0  0.82500  0.68642  0.40655  1.0000
  H   H14       1.0  0.17500  0.81358  0.90655  1.0000
  H   H15       1.0  0.17500  0.31358  0.59345  1.0000
  H   H16       1.0  0.82500  0.18642  0.09345  1.0000
  H   H17       1.0  0.15732  0.99350  0.07130  1.0000
  H   H18       1.0  0.84267  0.50650  0.57130  1.0000
  H   H19       1.0  0.84268  0.00650  0.92870  1.0000
  H   H20       1.0  0.15733  0.49350  0.42870  1.0000
  H   H21       1.0  0.94815  0.02267  0.18423  1.0000
  H   H22       1.0  0.05185  0.47733  0.68423  1.0000
  H   H23       1.0  0.05185  0.97733  0.81577  1.0000
  H   H24       1.0  0.94814  0.52267  0.31577  1.0000
  H   H25       1.0  0.28037  0.26737  0.37624  1.0000
  H   H26       1.0  0.71963  0.23263  0.87624  1.0000
  H   H27       1.0  0.71964  0.73263  0.62376  1.0000
  H   H28       1.0  0.28036  0.76737  0.12376  1.0000
  H   H29       1.0  0.47280  0.22288  0.25791  1.0000
  H   H30       1.0  0.52720  0.27712  0.75791  1.0000
  H   H31       1.0  0.52721  0.77712  0.74209  1.0000
  H   H32       1.0  0.47279  0.72288  0.24209  1.0000
  C   C1        1.0  0.59089  0.89899  0.41891  1.0000
  C   C2        1.0  0.40912  0.60101  0.91890  1.0000
  C   C3        1.0  0.40912  0.10101  0.58109  1.0000
  C   C4        1.0  0.59088  0.39899  0.08109  1.0000
  C   C5        1.0  0.68289  0.02476  0.40080  1.0000
  C   C6        1.0  0.31711  0.47524  0.90080  1.0000
  C   C7        1.0  0.31711  0.97524  0.59920  1.0000
  C   C8        1.0  0.68289  0.52476  0.09920  1.0000
  C   C9        1.0  0.83611  0.02940  0.38435  1.0000
  C   C10       1.0  0.16389  0.47061  0.88434  1.0000
  C   C11       1.0  0.16389  0.97060  0.61566  1.0000
  C   C12       1.0  0.83611  0.52940  0.11566  1.0000
  C   C13       1.0  0.88872  0.90551  0.38715  1.0000
  C   C14       1.0  0.11128  0.59450  0.88714  1.0000
  C   C15       1.0  0.11128  0.09450  0.61285  1.0000
  C   C16       1.0  0.88871  0.40550  0.11285  1.0000
  C   C17       1.0  0.78809  0.78475  0.40489  1.0000
  C   C18       1.0  0.21191  0.71525  0.90489  1.0000
  C   C19       1.0  0.21192  0.21525  0.59511  1.0000
  C   C20       1.0  0.78808  0.28475  0.09511  1.0000
  C   C21       1.0  0.17937  0.05086  0.14097  1.0000
  C   C22       1.0  0.82063  0.44914  0.64097  1.0000
  C   C23       1.0  0.82063  0.94913  0.85903  1.0000
  C   C24       1.0  0.17937  0.55086  0.35903  1.0000
  C   C25       1.0  0.06323  0.06891  0.20356  1.0000
  C   C26       1.0  0.93677  0.43109  0.70356  1.0000
  C   C27       1.0  0.93678  0.93108  0.79644  1.0000
  C   C28       1.0  0.06322  0.56891  0.29644  1.0000
  C   C29       1.0  0.09634  0.14858  0.29023  1.0000
  C   C30       1.0  0.90366  0.35142  0.79023  1.0000
  C   C31       1.0  0.90367  0.85142  0.70977  1.0000
  C   C32       1.0  0.09633  0.64858  0.20977  1.0000
  C   C33       1.0  0.24627  0.20513  0.31021  1.0000
  C   C34       1.0  0.75373  0.29487  0.81021  1.0000
  C   C35       1.0  0.75374  0.79487  0.68979  1.0000
  C   C36       1.0  0.24626  0.70513  0.18979  1.0000
  C   C37       1.0  0.35532  0.18013  0.24345  1.0000
  C   C38       1.0  0.64468  0.31987  0.74345  1.0000
  C   C39       1.0  0.64469  0.81987  0.75655  1.0000
  C   C40       1.0  0.35531  0.68013  0.25655  1.0000
  S   S1        1.0  0.95368  0.18987  0.36721  1.0000
  S   S2        1.0  0.04632  0.31013  0.86721  1.0000
  S   S3        1.0  0.04632  0.81013  0.63279  1.0000
  S   S4        1.0  0.95368  0.68987  0.13279  1.0000
  I   I1        1.0  0.64881  0.41222  0.38888  1.0000
  I   I2        1.0  0.35119  0.08778  0.88888  1.0000
  I   I3        1.0  0.35119  0.58778  0.61112  1.0000
  I   I4        1.0  0.64881  0.91222  0.11112  1.0000
  N   N1        1.0  0.64057  0.77917  0.42117  1.0000
  N   N2        1.0  0.35943  0.72084  0.92117  1.0000
  N   N3        1.0  0.35943  0.22083  0.57883  1.0000
  N   N4        1.0  0.64057  0.27917  0.07883  1.0000
  N   N5        1.0  0.32441  0.10545  0.15944  1.0000
  N   N6        1.0  0.67559  0.39455  0.65944  1.0000
  N   N7        1.0  0.67559  0.89455  0.84056  1.0000
  N   N8        1.0  0.32441  0.60545  0.34056  1.0000
