data_image0
_chemical_formula_structural       Cu2H6C8N4Cl4
_chemical_formula_sum              "Cu2 H6 C8 N4 Cl4"
_cell_length_a       6.74227
_cell_length_b       6.80599
_cell_length_c       7.4438
_cell_angle_alpha    62.6241
_cell_angle_beta     90.2805
_cell_angle_gamma    90.7404

_space_group_name_H-M_alt    "P 1"
_space_group_IT_number       1

loop_
  _space_group_symop_operation_xyz
  'x, y, z'

loop_
  _atom_site_type_symbol
  _atom_site_label
  _atom_site_symmetry_multiplicity
  _atom_site_fract_x
  _atom_site_fract_y
  _atom_site_fract_z
  _atom_site_occupancy
  Cu  Cu1       1.0  0.50037  0.29167  0.41751  1.0000
  Cu  Cu2       1.0  0.49962  0.70833  0.58249  1.0000
  H   H1        1.0  0.07149  0.17091  0.00020  1.0000
  H   H2        1.0  0.92851  0.82909  0.99979  1.0000
  H   H3        1.0  0.90351  0.10275  0.32880  1.0000
  H   H4        1.0  0.09696  0.56885  0.32861  1.0000
  H   H5        1.0  0.09649  0.89725  0.67121  1.0000
  H   H6        1.0  0.90305  0.43116  0.67139  1.0000
  C   C1        1.0  0.59273  0.44627  0.00001  1.0000
  C   C2        1.0  0.40727  0.55372  0.99998  1.0000
  C   C3        1.0  0.93195  0.24958  0.00012  1.0000
  C   C4        1.0  0.06806  0.75043  0.99987  1.0000
  C   C5        1.0  0.84123  0.21121  0.18126  1.0000
  C   C6        1.0  0.15905  0.60790  0.18110  1.0000
  C   C7        1.0  0.15877  0.78880  0.81874  1.0000
  C   C8        1.0  0.84094  0.39210  0.81890  1.0000
  N   N1        1.0  0.67080  0.31211  0.17987  1.0000
  N   N2        1.0  0.32956  0.50845  0.17975  1.0000
  N   N3        1.0  0.32920  0.68788  0.82013  1.0000
  N   N4        1.0  0.67044  0.49154  0.82025  1.0000
  Cl  Cl1       1.0  0.70644  0.04803  0.65008  1.0000
  Cl  Cl2       1.0  0.29381  0.30189  0.64996  1.0000
  Cl  Cl3       1.0  0.29355  0.95198  0.34993  1.0000
  Cl  Cl4       1.0  0.70619  0.69811  0.35005  1.0000
