data_image0
_chemical_formula_structural       Cd2H16C24I4N8O2
_chemical_formula_sum              "Cd2 H16 C24 I4 N8 O2"
_cell_length_a       6.76811
_cell_length_b       8.75069
_cell_length_c       14.7357
_cell_angle_alpha    89.9998
_cell_angle_beta     89.9987
_cell_angle_gamma    112.584

_space_group_name_H-M_alt    "P 1"
_space_group_IT_number       1

loop_
  _space_group_symop_operation_xyz
  'x, y, z'

loop_
  _atom_site_type_symbol
  _atom_site_label
  _atom_site_symmetry_multiplicity
  _atom_site_fract_x
  _atom_site_fract_y
  _atom_site_fract_z
  _atom_site_occupancy
  Cd  Cd1       1.0  0.07339  0.48516  0.30663  1.0000
  Cd  Cd2       1.0  0.92660  0.51485  0.80662  1.0000
  H   H1        1.0  0.35792  0.88981  0.25953  1.0000
  H   H2        1.0  0.64210  0.11020  0.75953  1.0000
  H   H3        1.0  0.54047  0.07746  0.12891  1.0000
  H   H4        1.0  0.45955  0.92253  0.62892  1.0000
  H   H5        1.0  0.55757  0.94969  0.97859  1.0000
  H   H6        1.0  0.44241  0.05028  0.47860  1.0000
  H   H7        1.0  0.40115  0.63887  0.96390  1.0000
  H   H8        1.0  0.59881  0.36109  0.46389  1.0000
  H   H9        1.0  0.17403  0.17561  0.87735  1.0000
  H   H10       1.0  0.82597  0.82440  0.37736  1.0000
  H   H11       1.0  0.09357  0.91958  0.78458  1.0000
  H   H12       1.0  0.90646  0.08041  0.28458  1.0000
  H   H13       1.0  0.84879  0.61449  0.00694  1.0000
  H   H14       1.0  0.15118  0.38553  0.50693  1.0000
  H   H15       1.0  0.92404  0.85702  0.11035  1.0000
  H   H16       1.0  0.07595  0.14301  0.61034  1.0000
  C   C1        1.0  0.37040  0.84041  0.19259  1.0000
  C   C2        1.0  0.62962  0.15959  0.69259  1.0000
  C   C3        1.0  0.47204  0.94343  0.11994  1.0000
  C   C4        1.0  0.52797  0.05655  0.61995  1.0000
  C   C5        1.0  0.48258  0.87148  0.03658  1.0000
  C   C6        1.0  0.51740  0.12850  0.53658  1.0000
  C   C7        1.0  0.39545  0.69967  0.02801  1.0000
  C   C8        1.0  0.60452  0.30031  0.52801  1.0000
  C   C9        1.0  0.29840  0.60691  0.10442  1.0000
  C   C10       1.0  0.70159  0.39309  0.60441  1.0000
  C   C11       1.0  0.20392  0.42754  0.10458  1.0000
  C   C12       1.0  0.79607  0.57245  0.60457  1.0000
  C   C13       1.0  0.09743  0.17598  0.06100  1.0000
  C   C14       1.0  0.90258  0.82403  0.56100  1.0000
  C   C15       1.0  0.05680  0.03557  0.00170  1.0000
  C   C16       1.0  0.94321  0.96445  0.50170  1.0000
  C   C17       1.0  0.10445  0.05372  0.90884  1.0000
  C   C18       1.0  0.89555  0.94629  0.40884  1.0000
  C   C19       1.0  0.06024  0.91126  0.85715  1.0000
  C   C20       1.0  0.93978  0.08875  0.35715  1.0000
  C   C21       1.0  0.92332  0.74120  0.98156  1.0000
  C   C22       1.0  0.07667  0.25881  0.48155  1.0000
  C   C23       1.0  0.96399  0.87586  0.03855  1.0000
  C   C24       1.0  0.03601  0.12416  0.53855  1.0000
  I   I1        1.0  0.66267  0.46397  0.26508  1.0000
  I   I2        1.0  0.33734  0.53604  0.76510  1.0000
  I   I3        1.0  0.30719  0.70704  0.44027  1.0000
  I   I4        1.0  0.69285  0.29298  0.94028  1.0000
  N   N1        1.0  0.28392  0.67567  0.18508  1.0000
  N   N2        1.0  0.71610  0.32432  0.68507  1.0000
  N   N3        1.0  0.10917  0.33401  0.17398  1.0000
  N   N4        1.0  0.89082  0.66598  0.67397  1.0000
  N   N5        1.0  0.04021  0.17218  0.14632  1.0000
  N   N6        1.0  0.95979  0.82780  0.64632  1.0000
  N   N7        1.0  0.97148  0.75779  0.89253  1.0000
  N   N8        1.0  0.02852  0.24221  0.39252  1.0000
  O   O1        1.0  0.20417  0.33508  0.03087  1.0000
  O   O2        1.0  0.79583  0.66493  0.53087  1.0000
