data_image0
_chemical_formula_structural       Cd4H32C48I8N16O4
_chemical_formula_sum              "Cd4 H32 C48 I8 N16 O4"
_cell_length_a       7.26341
_cell_length_b       13.7282
_cell_length_c       16.914
_cell_angle_alpha    111.054
_cell_angle_beta     102.919
_cell_angle_gamma    89.8084

_space_group_name_H-M_alt    "P 1"
_space_group_IT_number       1

loop_
  _space_group_symop_operation_xyz
  'x, y, z'

loop_
  _atom_site_type_symbol
  _atom_site_label
  _atom_site_symmetry_multiplicity
  _atom_site_fract_x
  _atom_site_fract_y
  _atom_site_fract_z
  _atom_site_occupancy
  Cd  Cd1       1.0  0.67399  0.25492  0.24410  1.0000
  Cd  Cd2       1.0  0.43241  0.24593  0.75635  1.0000
  Cd  Cd3       1.0  0.32601  0.74508  0.75590  1.0000
  Cd  Cd4       1.0  0.56758  0.75406  0.24364  1.0000
  H   H1        1.0  0.64524  0.12906  0.03365  1.0000
  H   H2        1.0  0.61253  0.37266  0.96601  1.0000
  H   H3        1.0  0.35476  0.87094  0.96634  1.0000
  H   H4        1.0  0.38748  0.62733  0.03399  1.0000
  H   H5        1.0  0.71696  0.95859  0.92918  1.0000
  H   H6        1.0  0.78841  0.54370  0.07097  1.0000
  H   H7        1.0  0.28304  0.04141  0.07082  1.0000
  H   H8        1.0  0.21162  0.45629  0.92903  1.0000
  H   H9        1.0  0.87654  0.82921  0.98810  1.0000
  H   H10       1.0  0.89042  0.67202  0.01235  1.0000
  H   H11       1.0  0.12347  0.17079  0.01190  1.0000
  H   H12       1.0  0.10961  0.32797  0.98766  1.0000
  H   H13       1.0  0.96202  0.87464  0.15142  1.0000
  H   H14       1.0  0.81423  0.62529  0.84892  1.0000
  H   H15       1.0  0.03798  0.12537  0.84859  1.0000
  H   H16       1.0  0.18577  0.37471  0.15108  1.0000
  H   H17       1.0  0.17226  0.88731  0.38616  1.0000
  H   H18       1.0  0.78639  0.61195  0.61566  1.0000
  H   H19       1.0  0.82773  0.11269  0.61383  1.0000
  H   H20       1.0  0.21363  0.38805  0.38435  1.0000
  H   H21       1.0  0.48363  0.99311  0.65672  1.0000
  H   H22       1.0  0.82303  0.50816  0.34595  1.0000
  H   H23       1.0  0.51636  0.00689  0.34327  1.0000
  H   H24       1.0  0.17697  0.49184  0.65406  1.0000
  H   H25       1.0  0.37601  0.84700  0.50885  1.0000
  H   H26       1.0  0.86467  0.65352  0.49406  1.0000
  H   H27       1.0  0.62397  0.15300  0.49114  1.0000
  H   H28       1.0  0.13535  0.34648  0.50594  1.0000
  H   H29       1.0  0.20346  0.20848  0.56495  1.0000
  H   H30       1.0  0.63737  0.29133  0.43530  1.0000
  H   H31       1.0  0.79654  0.79152  0.43504  1.0000
  H   H32       1.0  0.36261  0.70868  0.56470  1.0000
  C   C1        1.0  0.71342  0.07021  0.05699  1.0000
  C   C2        1.0  0.65793  0.43118  0.94287  1.0000
  C   C3        1.0  0.28659  0.92980  0.94301  1.0000
  C   C4        1.0  0.34208  0.56882  0.05714  1.0000
  C   C5        1.0  0.75432  0.97530  0.99916  1.0000
  C   C6        1.0  0.75636  0.52635  0.00092  1.0000
  C   C7        1.0  0.24568  0.02470  0.00083  1.0000
  C   C8        1.0  0.24365  0.47364  0.99908  1.0000
  C   C9        1.0  0.84319  0.90342  0.03234  1.0000
  C   C10       1.0  0.81281  0.59766  0.96787  1.0000
  C   C11       1.0  0.15681  0.09658  0.96766  1.0000
  C   C12       1.0  0.18721  0.40232  0.03213  1.0000
  C   C13       1.0  0.89131  0.92806  0.12235  1.0000
  C   C14       1.0  0.77187  0.57226  0.87781  1.0000
  C   C15       1.0  0.10869  0.07194  0.87765  1.0000
  C   C16       1.0  0.22814  0.42774  0.12220  1.0000
  C   C17       1.0  0.84870  0.02565  0.17515  1.0000
  C   C18       1.0  0.67624  0.47452  0.82478  1.0000
  C   C19       1.0  0.15129  0.97436  0.82485  1.0000
  C   C20       1.0  0.32375  0.52547  0.17522  1.0000
  C   C21       1.0  0.90754  0.06553  0.26952  1.0000
  C   C22       1.0  0.64038  0.43412  0.73050  1.0000
  C   C23       1.0  0.09245  0.93448  0.73047  1.0000
  C   C24       1.0  0.35962  0.56588  0.26951  1.0000
  C   C25       1.0  0.05648  0.08178  0.39867  1.0000
  C   C26       1.0  0.65888  0.41743  0.60178  1.0000
  C   C27       1.0  0.94352  0.91822  0.60132  1.0000
  C   C28       1.0  0.34111  0.58258  0.39822  1.0000
  C   C29       1.0  0.17397  0.05188  0.46609  1.0000
  C   C30       1.0  0.70783  0.44755  0.53487  1.0000
  C   C31       1.0  0.82603  0.94812  0.53390  1.0000
  C   C32       1.0  0.29217  0.55245  0.46513  1.0000
  C   C33       1.0  0.22330  0.94871  0.45049  1.0000
  C   C34       1.0  0.77230  0.55092  0.55122  1.0000
  C   C35       1.0  0.77670  0.05129  0.54950  1.0000
  C   C36       1.0  0.22771  0.44909  0.44879  1.0000
  C   C37       1.0  0.39534  0.00638  0.60053  1.0000
  C   C38       1.0  0.79191  0.49435  0.40165  1.0000
  C   C39       1.0  0.60465  0.99361  0.39945  1.0000
  C   C40       1.0  0.20808  0.50566  0.59836  1.0000
  C   C41       1.0  0.33438  0.92611  0.51918  1.0000
  C   C42       1.0  0.81321  0.57420  0.48313  1.0000
  C   C43       1.0  0.66561  0.07389  0.48081  1.0000
  C   C44       1.0  0.18680  0.42580  0.51688  1.0000
  C   C45       1.0  0.23998  0.12777  0.54992  1.0000
  C   C46       1.0  0.68894  0.37213  0.45093  1.0000
  C   C47       1.0  0.76002  0.87223  0.45007  1.0000
  C   C48       1.0  0.31105  0.62787  0.54907  1.0000
  I   I1        1.0  0.75997  0.37597  0.15612  1.0000
  I   I2        1.0  0.60829  0.12618  0.84640  1.0000
  I   I3        1.0  0.24005  0.62404  0.84389  1.0000
  I   I4        1.0  0.39171  0.87382  0.15360  1.0000
  I   I5        1.0  0.30659  0.20551  0.24916  1.0000
  I   I6        1.0  0.05797  0.29353  0.74969  1.0000
  I   I7        1.0  0.69340  0.79450  0.75084  1.0000
  I   I8        1.0  0.94203  0.70647  0.25030  1.0000
  N   N1        1.0  0.75882  0.09483  0.14318  1.0000
  N   N2        1.0  0.61805  0.40586  0.85663  1.0000
  N   N3        1.0  0.24118  0.90517  0.85682  1.0000
  N   N4        1.0  0.38195  0.59414  0.14338  1.0000
  N   N5        1.0  0.87824  0.15797  0.32280  1.0000
  N   N6        1.0  0.55693  0.34169  0.67708  1.0000
  N   N7        1.0  0.12177  0.84203  0.67719  1.0000
  N   N8        1.0  0.44307  0.65831  0.32293  1.0000
  N   N9        1.0  0.97448  0.16899  0.40603  1.0000
  N   N10       1.0  0.56924  0.33038  0.59410  1.0000
  N   N11       1.0  0.02551  0.83101  0.59397  1.0000
  N   N12       1.0  0.43076  0.66962  0.40590  1.0000
  N   N13       1.0  0.34826  0.10521  0.61509  1.0000
  N   N14       1.0  0.73078  0.39529  0.38633  1.0000
  N   N15       1.0  0.65174  0.89479  0.38490  1.0000
  N   N16       1.0  0.26922  0.60472  0.61367  1.0000
  O   O1        1.0  0.01764  0.01257  0.31357  1.0000
  O   O2        1.0  0.70610  0.48679  0.68684  1.0000
  O   O3        1.0  0.98235  0.98742  0.68642  1.0000
  O   O4        1.0  0.29388  0.51321  0.31317  1.0000
