data_image0
_chemical_formula_structural       Cu4H58C50N6O18
_chemical_formula_sum              "Cu4 H58 C50 N6 O18"
_cell_length_a       6.65786
_cell_length_b       13.7701
_cell_length_c       14.694
_cell_angle_alpha    77.0385
_cell_angle_beta     89.4346
_cell_angle_gamma    85.2774

_space_group_name_H-M_alt    "P 1"
_space_group_IT_number       1

loop_
  _space_group_symop_operation_xyz
  'x, y, z'

loop_
  _atom_site_type_symbol
  _atom_site_label
  _atom_site_symmetry_multiplicity
  _atom_site_fract_x
  _atom_site_fract_y
  _atom_site_fract_z
  _atom_site_occupancy
  Cu  Cu1       1.0  0.06759  0.00199  0.91631  1.0000
  Cu  Cu2       1.0  0.93242  0.99800  0.08369  1.0000
  Cu  Cu3       1.0  0.44946  0.41657  0.55187  1.0000
  Cu  Cu4       1.0  0.55053  0.58343  0.44813  1.0000
  H   H1        1.0  0.76428  0.08814  0.74941  1.0000
  H   H2        1.0  0.23574  0.91186  0.25060  1.0000
  H   H3        1.0  0.44462  0.07619  0.81911  1.0000
  H   H4        1.0  0.55538  0.92381  0.18090  1.0000
  H   H5        1.0  0.60241  0.92405  0.59871  1.0000
  H   H6        1.0  0.39759  0.07595  0.40130  1.0000
  H   H7        1.0  0.28489  0.83942  0.63241  1.0000
  H   H8        1.0  0.71511  0.16058  0.36758  1.0000
  H   H9        1.0  0.05722  0.87911  0.76017  1.0000
  H   H10       1.0  0.94279  0.12089  0.23983  1.0000
  H   H11       1.0  0.14275  0.34263  0.70023  1.0000
  H   H12       1.0  0.85724  0.65737  0.29976  1.0000
  H   H13       1.0  0.85354  0.23863  0.70720  1.0000
  H   H14       1.0  0.14646  0.76137  0.29279  1.0000
  H   H15       1.0  0.17871  0.08095  0.52115  1.0000
  H   H16       1.0  0.82129  0.91905  0.47885  1.0000
  H   H17       1.0  0.45536  0.19700  0.51925  1.0000
  H   H18       1.0  0.54464  0.80300  0.48075  1.0000
  H   H19       1.0  0.47329  0.20090  0.84328  1.0000
  H   H20       1.0  0.52672  0.79909  0.15673  1.0000
  H   H21       1.0  0.65644  0.28625  0.83429  1.0000
  H   H22       1.0  0.34357  0.71375  0.16571  1.0000
  H   H23       1.0  0.48695  0.17093  0.08481  1.0000
  H   H24       1.0  0.51306  0.82907  0.91519  1.0000
  H   H25       1.0  0.27776  0.25903  0.07758  1.0000
  H   H26       1.0  0.72224  0.74097  0.92241  1.0000
  H   H27       1.0  0.18255  0.30848  0.87169  1.0000
  H   H28       1.0  0.81746  0.69152  0.12831  1.0000
  H   H29       1.0  0.35518  0.40116  0.83503  1.0000
  H   H30       1.0  0.64483  0.59884  0.16497  1.0000
  H   H31       1.0  0.21351  0.39922  0.93883  1.0000
  H   H32       1.0  0.78651  0.60078  0.06117  1.0000
  H   H33       1.0  0.52282  0.38572  0.04179  1.0000
  H   H34       1.0  0.47718  0.61427  0.95822  1.0000
  H   H35       1.0  0.66835  0.39998  0.93818  1.0000
  H   H36       1.0  0.33167  0.60001  0.06182  1.0000
  H   H37       1.0  0.72813  0.29678  0.03400  1.0000
  H   H38       1.0  0.27188  0.70322  0.96601  1.0000
  H   H39       1.0  0.20985  0.50201  0.21933  1.0000
  H   H40       1.0  0.79012  0.49799  0.78067  1.0000
  H   H41       1.0  0.00114  0.53954  0.28144  1.0000
  H   H42       1.0  0.99884  0.46046  0.71856  1.0000
  H   H43       1.0  0.87852  0.26769  0.38328  1.0000
  H   H44       1.0  0.12147  0.73231  0.61672  1.0000
  H   H45       1.0  0.05251  0.32044  0.44231  1.0000
  H   H46       1.0  0.94748  0.67956  0.55769  1.0000
  H   H47       1.0  0.76215  0.44071  0.21877  1.0000
  H   H48       1.0  0.23783  0.55929  0.78123  1.0000
  H   H49       1.0  0.84008  0.31625  0.21064  1.0000
  H   H50       1.0  0.15991  0.68375  0.78936  1.0000
  H   H51       1.0  0.96417  0.41794  0.14421  1.0000
  H   H52       1.0  0.03581  0.58206  0.85579  1.0000
  H   H53       1.0  0.29660  0.32570  0.21660  1.0000
  H   H54       1.0  0.70338  0.67430  0.78339  1.0000
  H   H55       1.0  0.16502  0.22872  0.28578  1.0000
  H   H56       1.0  0.83498  0.77128  0.71421  1.0000
  H   H57       1.0  0.33016  0.29426  0.34007  1.0000
  H   H58       1.0  0.66984  0.70575  0.65992  1.0000
  C   C1        1.0  0.41412  0.02431  0.77593  1.0000
  C   C2        1.0  0.58590  0.97568  0.22408  1.0000
  C   C3        1.0  0.54953  0.00748  0.70620  1.0000
  C   C4        1.0  0.45048  0.99251  0.29381  1.0000
  C   C5        1.0  0.50314  0.93869  0.65390  1.0000
  C   C6        1.0  0.49686  0.06131  0.34611  1.0000
  C   C7        1.0  0.32558  0.89154  0.67349  1.0000
  C   C8        1.0  0.67442  0.10846  0.32652  1.0000
  C   C9        1.0  0.19835  0.91375  0.74302  1.0000
  C   C10       1.0  0.80166  0.08625  0.25698  1.0000
  C   C11       1.0  0.14594  0.28319  0.66228  1.0000
  C   C12       1.0  0.85406  0.71681  0.33771  1.0000
  C   C13       1.0  0.98556  0.22386  0.66677  1.0000
  C   C14       1.0  0.01444  0.77615  0.33322  1.0000
  C   C15       1.0  0.99597  0.14971  0.61536  1.0000
  C   C16       1.0  0.00404  0.85029  0.38465  1.0000
  C   C17       1.0  0.16735  0.13865  0.56150  1.0000
  C   C18       1.0  0.83265  0.86135  0.43850  1.0000
  C   C19       1.0  0.31988  0.20211  0.56091  1.0000
  C   C20       1.0  0.68012  0.79789  0.43908  1.0000
  C   C21       1.0  0.82775  0.08475  0.61217  1.0000
  C   C22       1.0  0.17225  0.91524  0.38783  1.0000
  C   C23       1.0  0.73614  0.14418  0.92398  1.0000
  C   C24       1.0  0.26387  0.85583  0.07602  1.0000
  C   C25       1.0  0.58004  0.22988  0.88501  1.0000
  C   C26       1.0  0.41997  0.77011  0.11499  1.0000
  C   C27       1.0  0.46132  0.28237  0.95372  1.0000
  C   C28       1.0  0.53870  0.71763  0.04629  1.0000
  C   C29       1.0  0.36714  0.21259  0.03744  1.0000
  C   C30       1.0  0.63287  0.78741  0.96256  1.0000
  C   C31       1.0  0.23184  0.13397  0.02171  1.0000
  C   C32       1.0  0.76816  0.86603  0.97829  1.0000
  C   C33       1.0  0.29310  0.35199  0.89646  1.0000
  C   C34       1.0  0.70691  0.64801  0.10354  1.0000
  C   C35       1.0  0.60373  0.34477  0.99445  1.0000
  C   C36       1.0  0.39628  0.65523  0.00556  1.0000
  C   C37       1.0  0.26585  0.49561  0.36275  1.0000
  C   C38       1.0  0.73414  0.50440  0.63725  1.0000
  C   C39       1.0  0.12726  0.48227  0.28537  1.0000
  C   C40       1.0  0.87272  0.51773  0.71463  1.0000
  C   C41       1.0  0.04375  0.37957  0.29302  1.0000
  C   C42       1.0  0.95624  0.62043  0.70698  1.0000
  C   C43       1.0  0.93894  0.33874  0.38623  1.0000
  C   C44       1.0  0.06106  0.66126  0.61377  1.0000
  C   C45       1.0  0.77238  0.40100  0.42368  1.0000
  C   C46       1.0  0.22761  0.59900  0.57631  1.0000
  C   C47       1.0  0.89374  0.38934  0.21198  1.0000
  C   C48       1.0  0.10624  0.61066  0.78802  1.0000
  C   C49       1.0  0.21912  0.30252  0.28352  1.0000
  C   C50       1.0  0.78087  0.69748  0.71647  1.0000
  N   N1        1.0  0.30989  0.27423  0.60984  1.0000
  N   N2        1.0  0.69011  0.72577  0.39016  1.0000
  N   N3        1.0  0.24261  0.97983  0.79342  1.0000
  N   N4        1.0  0.75740  0.02017  0.20658  1.0000
  N   N5        1.0  0.72083  0.06125  0.69320  1.0000
  N   N6        1.0  0.27918  0.93875  0.30681  1.0000
  O   O1        1.0  0.84728  0.11039  0.86425  1.0000
  O   O2        1.0  0.15273  0.88961  0.13575  1.0000
  O   O3        1.0  0.74706  0.11099  0.01145  1.0000
  O   O4        1.0  0.25294  0.88901  0.98855  1.0000
  O   O5        1.0  0.12478  0.09870  0.09205  1.0000
  O   O6        1.0  0.87523  0.90130  0.90796  1.0000
  O   O7        1.0  0.23564  0.10732  0.94396  1.0000
  O   O8        1.0  0.76437  0.89268  0.05604  1.0000
  O   O9        1.0  0.27554  0.42903  0.43847  1.0000
  O   O10       1.0  0.72443  0.57098  0.56153  1.0000
  O   O11       1.0  0.36115  0.57427  0.34535  1.0000
  O   O12       1.0  0.63885  0.42573  0.65465  1.0000
  O   O13       1.0  0.66756  0.35049  0.48772  1.0000
  O   O14       1.0  0.33242  0.64951  0.51227  1.0000
  O   O15       1.0  0.75302  0.49558  0.39354  1.0000
  O   O16       1.0  0.24698  0.50442  0.60647  1.0000
  O   O17       1.0  0.79102  0.05626  0.54031  1.0000
  O   O18       1.0  0.20897  0.94374  0.45970  1.0000
