data_image0
_chemical_formula_structural       ErH9C5N2O8
_chemical_formula_sum              "Er1 H9 C5 N2 O8"
_cell_length_a       6.53094
_cell_length_b       6.66284
_cell_length_c       6.66251
_cell_angle_alpha    64.4189
_cell_angle_beta     73.1613
_cell_angle_gamma    73.1622

_space_group_name_H-M_alt    "P 1"
_space_group_IT_number       1

loop_
  _space_group_symop_operation_xyz
  'x, y, z'

loop_
  _atom_site_type_symbol
  _atom_site_label
  _atom_site_symmetry_multiplicity
  _atom_site_fract_x
  _atom_site_fract_y
  _atom_site_fract_z
  _atom_site_occupancy
  Er  Er1       1.0  0.00001  0.99612  0.00388  1.0000
  H   H1        1.0  0.87051  0.46941  0.15679  1.0000
  H   H2        1.0  0.12945  0.84323  0.53064  1.0000
  H   H3        1.0  0.50004  0.08064  0.91931  1.0000
  H   H4        1.0  0.17536  0.44761  0.53641  1.0000
  H   H5        1.0  0.82462  0.46351  0.55246  1.0000
  H   H6        1.0  0.59870  0.20076  0.36099  1.0000
  H   H7        1.0  0.40133  0.63900  0.79923  1.0000
  H   H8        1.0  0.46972  0.49367  0.26164  1.0000
  H   H9        1.0  0.53031  0.73826  0.50635  1.0000
  C   C1        1.0  0.03813  0.46749  0.05490  1.0000
  C   C2        1.0  0.96188  0.94510  0.53253  1.0000
  C   C3        1.0  0.50001  0.92612  0.07387  1.0000
  C   C4        1.0  0.29511  0.29244  0.53451  1.0000
  C   C5        1.0  0.70489  0.46546  0.70759  1.0000
  N   N1        1.0  0.46811  0.32941  0.37174  1.0000
  N   N2        1.0  0.53190  0.62821  0.67063  1.0000
  O   O1        1.0  0.12964  0.30615  0.99022  1.0000
  O   O2        1.0  0.87034  0.00985  0.69382  1.0000
  O   O3        1.0  0.12529  0.63423  0.01123  1.0000
  O   O4        1.0  0.87470  0.98874  0.36579  1.0000
  O   O5        1.0  0.33188  0.83552  0.15191  1.0000
  O   O6        1.0  0.66811  0.84807  0.16452  1.0000
  O   O7        1.0  0.26271  0.10000  0.67843  1.0000
  O   O8        1.0  0.73728  0.32159  0.90002  1.0000
