data_image0
_chemical_formula_structural       Er4Cu2H24C30N12O32
_chemical_formula_sum              "Er4 Cu2 H24 C30 N12 O32"
_cell_length_a       7.08106
_cell_length_b       11.2595
_cell_length_c       15.4103
_cell_angle_alpha    82.6461
_cell_angle_beta     77.3576
_cell_angle_gamma    84.5969

_space_group_name_H-M_alt    "P 1"
_space_group_IT_number       1

loop_
  _space_group_symop_operation_xyz
  'x, y, z'

loop_
  _atom_site_type_symbol
  _atom_site_label
  _atom_site_symmetry_multiplicity
  _atom_site_fract_x
  _atom_site_fract_y
  _atom_site_fract_z
  _atom_site_occupancy
  Er  Er1       1.0  0.50982  0.66752  0.35295  1.0000
  Er  Er2       1.0  0.49018  0.33247  0.64706  1.0000
  Er  Er3       1.0  0.48817  0.77517  0.75685  1.0000
  Er  Er4       1.0  0.51183  0.22482  0.24315  1.0000
  Cu  Cu1       1.0  0.19733  0.81165  0.04495  1.0000
  Cu  Cu2       1.0  0.80264  0.18836  0.95504  1.0000
  H   H1        1.0  0.22565  0.38070  0.99409  1.0000
  H   H2        1.0  0.77440  0.61930  0.00591  1.0000
  H   H3        1.0  0.37285  0.21504  0.88893  1.0000
  H   H4        1.0  0.62717  0.78497  0.11106  1.0000
  H   H5        1.0  0.96329  0.68189  0.43152  1.0000
  H   H6        1.0  0.03669  0.31810  0.56848  1.0000
  H   H7        1.0  0.99039  0.61644  0.70456  1.0000
  H   H8        1.0  0.00960  0.38354  0.29545  1.0000
  H   H9        1.0  0.11266  0.85876  0.70828  1.0000
  H   H10       1.0  0.88737  0.14126  0.29171  1.0000
  H   H11       1.0  0.06204  0.84699  0.81697  1.0000
  H   H12       1.0  0.93796  0.15302  0.18303  1.0000
  H   H13       1.0  0.79857  0.63559  0.83564  1.0000
  H   H14       1.0  0.20143  0.36441  0.16437  1.0000
  H   H15       1.0  0.77635  0.76530  0.87226  1.0000
  H   H16       1.0  0.22364  0.23470  0.12774  1.0000
  H   H17       1.0  0.19264  0.66654  0.25206  1.0000
  H   H18       1.0  0.80737  0.33349  0.74793  1.0000
  H   H19       1.0  0.18428  0.54878  0.31722  1.0000
  H   H20       1.0  0.81573  0.45124  0.68275  1.0000
  H   H21       1.0  0.85278  0.82934  0.30852  1.0000
  H   H22       1.0  0.14717  0.17070  0.69145  1.0000
  H   H23       1.0  0.89583  0.73757  0.23571  1.0000
  H   H24       1.0  0.10416  0.26242  0.76430  1.0000
  C   C1        1.0  0.38868  0.49564  0.80257  1.0000
  C   C2        1.0  0.61132  0.50435  0.19744  1.0000
  C   C3        1.0  0.31787  0.53559  0.89191  1.0000
  C   C4        1.0  0.68214  0.46440  0.10809  1.0000
  C   C5        1.0  0.24689  0.47550  0.97665  1.0000
  C   C6        1.0  0.75314  0.52450  0.02336  1.0000
  C   C7        1.0  0.20673  0.56759  0.03246  1.0000
  C   C8        1.0  0.79327  0.43242  0.96755  1.0000
  C   C9        1.0  0.12504  0.57861  0.12718  1.0000
  C   C10       1.0  0.87498  0.42140  0.87282  1.0000
  C   C11       1.0  0.57237  0.05344  0.74231  1.0000
  C   C12       1.0  0.42766  0.94655  0.25769  1.0000
  C   C13       1.0  0.45681  0.03821  0.83510  1.0000
  C   C14       1.0  0.54321  0.96180  0.16490  1.0000
  C   C15       1.0  0.37152  0.11792  0.89803  1.0000
  C   C16       1.0  0.62849  0.88209  0.10196  1.0000
  C   C17       1.0  0.28014  0.04254  0.97173  1.0000
  C   C18       1.0  0.71985  0.95746  0.02826  1.0000
  C   C19       1.0  0.15575  0.05343  0.06084  1.0000
  C   C20       1.0  0.84424  0.94658  0.93915  1.0000
  C   C21       1.0  0.56700  0.77127  0.54191  1.0000
  C   C22       1.0  0.43300  0.22872  0.45808  1.0000
  C   C23       1.0  0.76185  0.72748  0.55903  1.0000
  C   C24       1.0  0.23813  0.27251  0.44097  1.0000
  C   C25       1.0  0.93164  0.68286  0.50341  1.0000
  C   C26       1.0  0.06836  0.31713  0.49659  1.0000
  C   C27       1.0  0.04890  0.63139  0.56177  1.0000
  C   C28       1.0  0.95109  0.36859  0.43823  1.0000
  C   C29       1.0  0.22936  0.55177  0.54622  1.0000
  C   C30       1.0  0.77065  0.44823  0.45376  1.0000
  N   N1        1.0  0.32033  0.65571  0.89702  1.0000
  N   N2        1.0  0.67965  0.34428  0.10298  1.0000
  N   N3        1.0  0.25338  0.67311  0.98171  1.0000
  N   N4        1.0  0.74661  0.32689  0.01829  1.0000
  N   N5        1.0  0.41744  0.92283  0.86915  1.0000
  N   N6        1.0  0.58255  0.07717  0.13085  1.0000
  N   N7        1.0  0.31233  0.92739  0.95111  1.0000
  N   N8        1.0  0.68764  0.07262  0.04888  1.0000
  N   N9        1.0  0.77749  0.70892  0.64556  1.0000
  N   N10       1.0  0.22251  0.29106  0.35444  1.0000
  N   N11       1.0  0.95020  0.65008  0.64587  1.0000
  N   N12       1.0  0.04978  0.34990  0.35414  1.0000
  O   O1        1.0  0.46254  0.57458  0.73995  1.0000
  O   O2        1.0  0.53745  0.42541  0.26006  1.0000
  O   O3        1.0  0.37620  0.38713  0.79067  1.0000
  O   O4        1.0  0.62382  0.61285  0.20933  1.0000
  O   O5        1.0  0.08308  0.48976  0.18398  1.0000
  O   O6        1.0  0.91698  0.51026  0.81603  1.0000
  O   O7        1.0  0.10190  0.68915  0.14930  1.0000
  O   O8        1.0  0.89808  0.31088  0.85070  1.0000
  O   O9        1.0  0.62324  0.95758  0.70456  1.0000
  O   O10       1.0  0.37678  0.04242  0.29545  1.0000
  O   O11       1.0  0.61425  0.15817  0.70562  1.0000
  O   O12       1.0  0.38578  0.84182  0.29437  1.0000
  O   O13       1.0  0.09426  0.15533  0.08700  1.0000
  O   O14       1.0  0.90573  0.84468  0.91300  1.0000
  O   O15       1.0  0.10706  0.95406  0.10891  1.0000
  O   O16       1.0  0.89291  0.04594  0.89108  1.0000
  O   O17       1.0  0.43869  0.79906  0.60925  1.0000
  O   O18       1.0  0.56131  0.20094  0.39076  1.0000
  O   O19       1.0  0.53876  0.77229  0.46310  1.0000
  O   O20       1.0  0.46124  0.22770  0.53691  1.0000
  O   O21       1.0  0.33119  0.55777  0.46740  1.0000
  O   O22       1.0  0.66878  0.44222  0.53261  1.0000
  O   O23       1.0  0.26037  0.47905  0.61250  1.0000
  O   O24       1.0  0.73964  0.52093  0.38751  1.0000
  O   O25       1.0  0.16536  0.83473  0.76150  1.0000
  O   O26       1.0  0.83464  0.16528  0.23850  1.0000
  O   O27       1.0  0.72144  0.71504  0.83641  1.0000
  O   O28       1.0  0.27852  0.28495  0.16361  1.0000
  O   O29       1.0  0.22148  0.63116  0.31026  1.0000
  O   O30       1.0  0.77853  0.36886  0.68973  1.0000
  O   O31       1.0  0.80133  0.76327  0.28843  1.0000
  O   O32       1.0  0.19868  0.23671  0.71158  1.0000
