data_image0
_chemical_formula_structural       DyH9C5N2O8
_chemical_formula_sum              "Dy1 H9 C5 N2 O8"
_cell_length_a       6.56117
_cell_length_b       6.70188
_cell_length_c       6.70183
_cell_angle_alpha    64.2389
_cell_angle_beta     73.12
_cell_angle_gamma    73.1205

_space_group_name_H-M_alt    "P 1"
_space_group_IT_number       1

loop_
  _space_group_symop_operation_xyz
  'x, y, z'

loop_
  _atom_site_type_symbol
  _atom_site_label
  _atom_site_symmetry_multiplicity
  _atom_site_fract_x
  _atom_site_fract_y
  _atom_site_fract_z
  _atom_site_occupancy
  Dy  Dy1       1.0  0.00000  0.99449  0.00551  1.0000
  H   H1        1.0  0.13001  0.85190  0.52802  1.0000
  H   H2        1.0  0.86998  0.47197  0.14810  1.0000
  H   H3        1.0  0.50000  0.07718  0.92281  1.0000
  H   H4        1.0  0.17694  0.44556  0.53556  1.0000
  H   H5        1.0  0.82306  0.46443  0.55445  1.0000
  H   H6        1.0  0.59965  0.19980  0.36399  1.0000
  H   H7        1.0  0.40035  0.63600  0.80021  1.0000
  H   H8        1.0  0.47150  0.49130  0.26361  1.0000
  H   H9        1.0  0.52851  0.73639  0.50871  1.0000
  C   C1        1.0  0.96100  0.94809  0.53292  1.0000
  C   C2        1.0  0.03899  0.46707  0.05192  1.0000
  C   C3        1.0  0.50000  0.92304  0.07697  1.0000
  C   C4        1.0  0.29651  0.29128  0.53461  1.0000
  C   C5        1.0  0.70351  0.46536  0.70874  1.0000
  N   N1        1.0  0.46938  0.32796  0.37346  1.0000
  N   N2        1.0  0.53063  0.62654  0.67205  1.0000
  O   O1        1.0  0.86884  0.00981  0.69479  1.0000
  O   O2        1.0  0.13115  0.30520  0.99019  1.0000
  O   O3        1.0  0.87314  0.98899  0.36858  1.0000
  O   O4        1.0  0.12685  0.63141  0.01102  1.0000
  O   O5        1.0  0.33238  0.83315  0.15518  1.0000
  O   O6        1.0  0.66762  0.84481  0.16684  1.0000
  O   O7        1.0  0.26410  0.09966  0.67810  1.0000
  O   O8        1.0  0.73589  0.32191  0.90035  1.0000
