data_image0
_chemical_formula_structural       Cu2H18C28N2O10
_chemical_formula_sum              "Cu2 H18 C28 N2 O10"
_cell_length_a       5.25572
_cell_length_b       8.32785
_cell_length_c       13.3905
_cell_angle_alpha    96.7599
_cell_angle_beta     89.9999
_cell_angle_gamma    90.0012

_space_group_name_H-M_alt    "P 1"
_space_group_IT_number       1

loop_
  _space_group_symop_operation_xyz
  'x, y, z'

loop_
  _atom_site_type_symbol
  _atom_site_label
  _atom_site_symmetry_multiplicity
  _atom_site_fract_x
  _atom_site_fract_y
  _atom_site_fract_z
  _atom_site_occupancy
  Cu  Cu1       1.0  0.63321  0.04271  0.13563  1.0000
  Cu  Cu2       1.0  0.13323  0.95729  0.86438  1.0000
  H   H1        1.0  0.01820  0.54970  0.03363  1.0000
  H   H2        1.0  0.51820  0.45029  0.96637  1.0000
  H   H3        1.0  0.08533  0.33107  0.14723  1.0000
  H   H4        1.0  0.58535  0.66891  0.85277  1.0000
  H   H5        1.0  0.45882  0.36053  0.26523  1.0000
  H   H6        1.0  0.95882  0.63946  0.73477  1.0000
  H   H7        1.0  0.90805  0.67758  0.27499  1.0000
  H   H8        1.0  0.40807  0.32241  0.72500  1.0000
  H   H9        1.0  0.82722  0.48413  0.31004  1.0000
  H   H10       1.0  0.32724  0.51588  0.68996  1.0000
  H   H11       1.0  0.00570  0.84210  0.42254  1.0000
  H   H12       1.0  0.50569  0.15791  0.57746  1.0000
  H   H13       1.0  0.90970  0.95256  0.60006  1.0000
  H   H14       1.0  0.40972  0.04747  0.39994  1.0000
  H   H15       1.0  0.22101  0.67417  0.58662  1.0000
  H   H16       1.0  0.72101  0.32583  0.41338  1.0000
  H   H17       1.0  0.32514  0.55107  0.41553  1.0000
  H   H18       1.0  0.82514  0.44894  0.58447  1.0000
  C   C1        1.0  0.29905  0.81091  0.02091  1.0000
  C   C2        1.0  0.79906  0.18908  0.97909  1.0000
  C   C3        1.0  0.51244  0.71921  0.17397  1.0000
  C   C4        1.0  0.01246  0.28079  0.82603  1.0000
  C   C5        1.0  0.32105  0.69673  0.09753  1.0000
  C   C6        1.0  0.82106  0.30325  0.90246  1.0000
  C   C7        1.0  0.16610  0.56084  0.09097  1.0000
  C   C8        1.0  0.66610  0.43915  0.90903  1.0000
  C   C9        1.0  0.20305  0.43904  0.15309  1.0000
  C   C10       1.0  0.70305  0.56095  0.84691  1.0000
  C   C11       1.0  0.40260  0.45524  0.22007  1.0000
  C   C12       1.0  0.90260  0.54475  0.77992  1.0000
  C   C13       1.0  0.75668  0.60700  0.30512  1.0000
  C   C14       1.0  0.25668  0.39300  0.69488  1.0000
  C   C15       1.0  0.67690  0.68635  0.40741  1.0000
  C   C16       1.0  0.17692  0.31366  0.59259  1.0000
  C   C17       1.0  0.83614  0.80228  0.45961  1.0000
  C   C18       1.0  0.33616  0.19773  0.54039  1.0000
  C   C19       1.0  0.78230  0.86528  0.55853  1.0000
  C   C20       1.0  0.28232  0.13473  0.44146  1.0000
  C   C21       1.0  0.56219  0.81673  0.60596  1.0000
  C   C22       1.0  0.06219  0.18328  0.39404  1.0000
  C   C23       1.0  0.39781  0.70618  0.55186  1.0000
  C   C24       1.0  0.89782  0.29383  0.44814  1.0000
  C   C25       1.0  0.45553  0.63952  0.45435  1.0000
  C   C26       1.0  0.95553  0.36048  0.54565  1.0000
  C   C27       1.0  0.50299  0.88483  0.71284  1.0000
  C   C28       1.0  0.00298  0.11518  0.28717  1.0000
  N   N1        1.0  0.54909  0.59043  0.23074  1.0000
  N   N2        1.0  0.04909  0.40957  0.76926  1.0000
  O   O1        1.0  0.42432  0.94260  0.02666  1.0000
  O   O2        1.0  0.92433  0.05739  0.97334  1.0000
  O   O3        1.0  0.15724  0.76836  0.94455  1.0000
  O   O4        1.0  0.65728  0.23164  0.05545  1.0000
  O   O5        1.0  0.65746  0.83996  0.19492  1.0000
  O   O6        1.0  0.15750  0.16004  0.80509  1.0000
  O   O7        1.0  0.65797  0.97520  0.76229  1.0000
  O   O8        1.0  0.15795  0.02484  0.23769  1.0000
  O   O9        1.0  0.28390  0.83849  0.74574  1.0000
  O   O10       1.0  0.78386  0.16152  0.25427  1.0000
