data_image0
_chemical_formula_structural       Co2H26C28N2O14
_chemical_formula_sum              "Co2 H26 C28 N2 O14"
_cell_length_a       4.66429
_cell_length_b       9.85393
_cell_length_c       15.0485
_cell_angle_alpha    102.914
_cell_angle_beta     91.851
_cell_angle_gamma    96.3644

_space_group_name_H-M_alt    "P 1"
_space_group_IT_number       1

loop_
  _space_group_symop_operation_xyz
  'x, y, z'

loop_
  _atom_site_type_symbol
  _atom_site_label
  _atom_site_symmetry_multiplicity
  _atom_site_fract_x
  _atom_site_fract_y
  _atom_site_fract_z
  _atom_site_occupancy
  Co  Co1       1.0  0.75254  0.11793  0.69947  1.0000
  Co  Co2       1.0  0.24746  0.88207  0.30053  1.0000
  H   H1        1.0  0.09407  0.41996  0.46054  1.0000
  H   H2        1.0  0.90594  0.58004  0.53946  1.0000
  H   H3        1.0  0.40852  0.59399  0.39256  1.0000
  H   H4        1.0  0.59149  0.40601  0.60744  1.0000
  H   H5        1.0  0.72345  0.49671  0.26848  1.0000
  H   H6        1.0  0.27655  0.50329  0.73152  1.0000
  H   H7        1.0  0.83186  0.13846  0.20122  1.0000
  H   H8        1.0  0.16814  0.86153  0.79878  1.0000
  H   H9        1.0  0.98078  0.31614  0.20907  1.0000
  H   H10       1.0  0.01922  0.68385  0.79093  1.0000
  H   H11       1.0  0.29774  0.07633  0.11361  1.0000
  H   H12       1.0  0.70224  0.92367  0.88639  1.0000
  H   H13       1.0  0.08160  0.06172  0.95686  1.0000
  H   H14       1.0  0.91839  0.93829  0.04314  1.0000
  H   H15       1.0  0.75256  0.36964  0.91441  1.0000
  H   H16       1.0  0.24744  0.63037  0.08559  1.0000
  H   H17       1.0  0.95729  0.39592  0.07371  1.0000
  H   H18       1.0  0.04271  0.60408  0.92629  1.0000
  H   H19       1.0  0.20423  0.26705  0.69037  1.0000
  H   H20       1.0  0.79577  0.73295  0.30963  1.0000
  H   H21       1.0  0.01128  0.26675  0.59953  1.0000
  H   H22       1.0  0.98872  0.73325  0.40047  1.0000
  H   H23       1.0  0.30151  0.06619  0.57705  1.0000
  H   H24       1.0  0.69849  0.93381  0.42295  1.0000
  H   H25       1.0  0.59490  0.13171  0.53241  1.0000
  H   H26       1.0  0.40510  0.86829  0.46759  1.0000
  C   C1        1.0  0.42941  0.18773  0.30768  1.0000
  C   C2        1.0  0.57059  0.81227  0.69232  1.0000
  C   C3        1.0  0.24159  0.24124  0.37797  1.0000
  C   C4        1.0  0.75842  0.75876  0.62204  1.0000
  C   C5        1.0  0.23968  0.38494  0.40736  1.0000
  C   C6        1.0  0.76032  0.61506  0.59264  1.0000
  C   C7        1.0  0.41142  0.48149  0.37011  1.0000
  C   C8        1.0  0.58858  0.51851  0.62989  1.0000
  C   C9        1.0  0.58374  0.42932  0.30145  1.0000
  C   C10       1.0  0.41627  0.57068  0.69855  1.0000
  C   C11       1.0  0.03658  0.14804  0.41916  1.0000
  C   C12       1.0  0.96342  0.85195  0.58084  1.0000
  C   C13       1.0  0.78130  0.24278  0.19644  1.0000
  C   C14       1.0  0.21869  0.75721  0.80356  1.0000
  C   C15       1.0  0.64094  0.23772  0.10390  1.0000
  C   C16       1.0  0.35905  0.76227  0.89609  1.0000
  C   C17       1.0  0.39210  0.14409  0.07115  1.0000
  C   C18       1.0  0.60789  0.85591  0.92885  1.0000
  C   C19       1.0  0.27427  0.13365  0.98359  1.0000
  C   C20       1.0  0.72572  0.86635  0.01641  1.0000
  C   C21       1.0  0.40589  0.21270  0.92618  1.0000
  C   C22       1.0  0.59411  0.78731  0.07382  1.0000
  C   C23       1.0  0.65123  0.30827  0.95932  1.0000
  C   C24       1.0  0.34878  0.69173  0.04068  1.0000
  C   C25       1.0  0.76462  0.32218  0.04819  1.0000
  C   C26       1.0  0.23538  0.67782  0.95181  1.0000
  C   C27       1.0  0.28207  0.19306  0.83073  1.0000
  C   C28       1.0  0.71793  0.80695  0.16927  1.0000
  N   N1        1.0  0.59304  0.28949  0.27175  1.0000
  N   N2        1.0  0.40695  0.71051  0.72825  1.0000
  O   O1        1.0  0.46231  0.06119  0.27491  1.0000
  O   O2        1.0  0.53769  0.93882  0.72509  1.0000
  O   O3        1.0  0.01742  0.01442  0.39143  1.0000
  O   O4        1.0  0.98258  0.98558  0.60857  1.0000
  O   O5        1.0  0.88054  0.20715  0.48039  1.0000
  O   O6        1.0  0.11946  0.79285  0.51961  1.0000
  O   O7        1.0  0.02195  0.13540  0.81387  1.0000
  O   O8        1.0  0.97806  0.86460  0.18613  1.0000
  O   O9        1.0  0.44059  0.23720  0.77201  1.0000
  O   O10       1.0  0.55941  0.76281  0.22799  1.0000
  O   O11       1.0  0.01322  0.28703  0.66703  1.0000
  O   O12       1.0  0.98678  0.71297  0.33297  1.0000
  O   O13       1.0  0.48412  0.13167  0.58767  1.0000
  O   O14       1.0  0.51588  0.86832  0.41233  1.0000
