data_image0
_chemical_formula_structural       Cd2H30C38N4O12
_chemical_formula_sum              "Cd2 H30 C38 N4 O12"
_cell_length_a       7.80171
_cell_length_b       9.83817
_cell_length_c       12.3751
_cell_angle_alpha    103.876
_cell_angle_beta     95.2725
_cell_angle_gamma    108.153

_space_group_name_H-M_alt    "P 1"
_space_group_IT_number       1

loop_
  _space_group_symop_operation_xyz
  'x, y, z'

loop_
  _atom_site_type_symbol
  _atom_site_label
  _atom_site_symmetry_multiplicity
  _atom_site_fract_x
  _atom_site_fract_y
  _atom_site_fract_z
  _atom_site_occupancy
  Cd  Cd1       1.0  0.65574  0.06293  0.90111  1.0000
  Cd  Cd2       1.0  0.34426  0.93707  0.09889  1.0000
  H   H1        1.0  0.13912  0.52834  0.57744  1.0000
  H   H2        1.0  0.86088  0.47166  0.42256  1.0000
  H   H3        1.0  0.13762  0.39860  0.37722  1.0000
  H   H4        1.0  0.86238  0.60140  0.62278  1.0000
  H   H5        1.0  0.57394  0.78618  0.36084  1.0000
  H   H6        1.0  0.42606  0.21382  0.63916  1.0000
  H   H7        1.0  0.56670  0.91566  0.55844  1.0000
  H   H8        1.0  0.43329  0.08434  0.44156  1.0000
  H   H9        1.0  0.31319  0.38309  0.22222  1.0000
  H   H10       1.0  0.68681  0.61691  0.77778  1.0000
  H   H11       1.0  0.22312  0.51126  0.18204  1.0000
  H   H12       1.0  0.77689  0.48874  0.81796  1.0000
  H   H13       1.0  0.61580  0.41390  0.23463  1.0000
  H   H14       1.0  0.38419  0.58610  0.76537  1.0000
  H   H15       1.0  0.88481  0.48454  0.14111  1.0000
  H   H16       1.0  0.11519  0.51546  0.85889  1.0000
  H   H17       1.0  0.90858  0.67539  0.03485  1.0000
  H   H18       1.0  0.09143  0.32462  0.96516  1.0000
  H   H19       1.0  0.80347  0.24408  0.73308  1.0000
  H   H20       1.0  0.19652  0.75591  0.26692  1.0000
  H   H21       1.0  0.90857  0.21422  0.55017  1.0000
  H   H22       1.0  0.09142  0.78578  0.44983  1.0000
  H   H23       1.0  0.02467  0.82948  0.60379  1.0000
  H   H24       1.0  0.97533  0.17052  0.39621  1.0000
  H   H25       1.0  0.91474  0.87864  0.78495  1.0000
  H   H26       1.0  0.08526  0.12136  0.21505  1.0000
  H   H27       1.0  0.83094  0.21580  0.13012  1.0000
  H   H28       1.0  0.16906  0.78420  0.86988  1.0000
  H   H29       1.0  0.98894  0.18748  0.05782  1.0000
  H   H30       1.0  0.01106  0.81252  0.94218  1.0000
  C   C1        1.0  0.33880  0.81215  0.69743  1.0000
  C   C2        1.0  0.66120  0.18784  0.30257  1.0000
  C   C3        1.0  0.35190  0.73046  0.58011  1.0000
  C   C4        1.0  0.64809  0.26954  0.41989  1.0000
  C   C5        1.0  0.23388  0.58334  0.52903  1.0000
  C   C6        1.0  0.76611  0.41665  0.47097  1.0000
  C   C7        1.0  0.23482  0.51097  0.41791  1.0000
  C   C8        1.0  0.76517  0.48903  0.58209  1.0000
  C   C9        1.0  0.35608  0.58312  0.35586  1.0000
  C   C10       1.0  0.64392  0.41688  0.64414  1.0000
  C   C11       1.0  0.47915  0.72797  0.40795  1.0000
  C   C12       1.0  0.52085  0.27203  0.59205  1.0000
  C   C13       1.0  0.47603  0.80108  0.51886  1.0000
  C   C14       1.0  0.52396  0.19892  0.48114  1.0000
  C   C15       1.0  0.33974  0.50226  0.23322  1.0000
  C   C16       1.0  0.66026  0.49774  0.76678  1.0000
  C   C17       1.0  0.63459  0.49783  0.18913  1.0000
  C   C18       1.0  0.36541  0.50217  0.81087  1.0000
  C   C19       1.0  0.78360  0.53906  0.13824  1.0000
  C   C20       1.0  0.21640  0.46094  0.86176  1.0000
  C   C21       1.0  0.79331  0.64433  0.07818  1.0000
  C   C22       1.0  0.20669  0.35568  0.92183  1.0000
  C   C23       1.0  0.65929  0.70890  0.07019  1.0000
  C   C24       1.0  0.34072  0.29110  0.92981  1.0000
  C   C25       1.0  0.50430  0.66808  0.12664  1.0000
  C   C26       1.0  0.49570  0.33192  0.87336  1.0000
  C   C27       1.0  0.67703  0.81391  0.99835  1.0000
  C   C28       1.0  0.32298  0.18609  0.00166  1.0000
  C   C29       1.0  0.85536  0.15438  0.70120  1.0000
  C   C30       1.0  0.14463  0.84562  0.29879  1.0000
  C   C31       1.0  0.91418  0.13553  0.59778  1.0000
  C   C32       1.0  0.08582  0.86447  0.40222  1.0000
  C   C33       1.0  0.97290  0.01483  0.55630  1.0000
  C   C34       1.0  0.02710  0.98517  0.44370  1.0000
  C   C35       1.0  0.97634  0.92306  0.62707  1.0000
  C   C36       1.0  0.02367  0.07695  0.37293  1.0000
  C   C37       1.0  0.91583  0.94977  0.72965  1.0000
  C   C38       1.0  0.08418  0.05023  0.27035  1.0000
  N   N1        1.0  0.50100  0.55833  0.18299  1.0000
  N   N2        1.0  0.49900  0.44167  0.81701  1.0000
  N   N3        1.0  0.85282  0.06217  0.76609  1.0000
  N   N4        1.0  0.14719  0.93783  0.23391  1.0000
  O   O1        1.0  0.44601  0.94700  0.73731  1.0000
  O   O2        1.0  0.55399  0.05300  0.26269  1.0000
  O   O3        1.0  0.21901  0.74052  0.74548  1.0000
  O   O4        1.0  0.78099  0.25948  0.25452  1.0000
  O   O5        1.0  0.80858  0.83736  0.94450  1.0000
  O   O6        1.0  0.19143  0.16265  0.05550  1.0000
  O   O7        1.0  0.55580  0.87600  0.98978  1.0000
  O   O8        1.0  0.44420  0.12400  0.01022  1.0000
  O   O9        1.0  0.37209  0.71533  0.12994  1.0000
  O   O10       1.0  0.62791  0.28467  0.87006  1.0000
  O   O11       1.0  0.87457  0.21229  0.05528  1.0000
  O   O12       1.0  0.12542  0.78771  0.94472  1.0000
