data_image0
_chemical_formula_structural       Cd4H40C52N8O28
_chemical_formula_sum              "Cd4 H40 C52 N8 O28"
_cell_length_a       8.01069
_cell_length_b       12.7456
_cell_length_c       18.3006
_cell_angle_alpha    90
_cell_angle_beta     90
_cell_angle_gamma    90

_space_group_name_H-M_alt    "P 1"
_space_group_IT_number       1

loop_
  _space_group_symop_operation_xyz
  'x, y, z'

loop_
  _atom_site_type_symbol
  _atom_site_label
  _atom_site_symmetry_multiplicity
  _atom_site_fract_x
  _atom_site_fract_y
  _atom_site_fract_z
  _atom_site_occupancy
  Cd  Cd1       1.0  0.10019  0.16178  0.10821  1.0000
  Cd  Cd2       1.0  0.39981  0.83822  0.60821  1.0000
  Cd  Cd3       1.0  0.60019  0.33822  0.89179  1.0000
  Cd  Cd4       1.0  0.89981  0.66178  0.39179  1.0000
  H   H1        1.0  0.29661  0.66365  0.38757  1.0000
  H   H2        1.0  0.20338  0.33635  0.88757  1.0000
  H   H3        1.0  0.79662  0.83635  0.61243  1.0000
  H   H4        1.0  0.70338  0.16365  0.11243  1.0000
  H   H5        1.0  0.49915  0.36172  0.44148  1.0000
  H   H6        1.0  0.00085  0.63829  0.94148  1.0000
  H   H7        1.0  0.99915  0.13829  0.55852  1.0000
  H   H8        1.0  0.50085  0.86171  0.05852  1.0000
  H   H9        1.0  0.96617  0.41871  0.42216  1.0000
  H   H10       1.0  0.53383  0.58129  0.92217  1.0000
  H   H11       1.0  0.46617  0.08129  0.57783  1.0000
  H   H12       1.0  0.03383  0.91871  0.07784  1.0000
  H   H13       1.0  0.25349  0.13049  0.48706  1.0000
  H   H14       1.0  0.24651  0.86951  0.98706  1.0000
  H   H15       1.0  0.75349  0.36951  0.51294  1.0000
  H   H16       1.0  0.74651  0.63049  0.01294  1.0000
  H   H17       1.0  0.41477  0.22907  0.49440  1.0000
  H   H18       1.0  0.08523  0.77093  0.99440  1.0000
  H   H19       1.0  0.91477  0.27093  0.50560  1.0000
  H   H20       1.0  0.58523  0.72907  0.00560  1.0000
  H   H21       1.0  0.29211  0.21889  0.25729  1.0000
  H   H22       1.0  0.20789  0.78111  0.75729  1.0000
  H   H23       1.0  0.79211  0.28111  0.74271  1.0000
  H   H24       1.0  0.70789  0.71889  0.24271  1.0000
  H   H25       1.0  0.00683  0.95152  0.21952  1.0000
  H   H26       1.0  0.49317  0.04848  0.71952  1.0000
  H   H27       1.0  0.50683  0.54848  0.78048  1.0000
  H   H28       1.0  0.99317  0.45152  0.28048  1.0000
  H   H29       1.0  0.25564  0.98403  0.42695  1.0000
  H   H30       1.0  0.24435  0.01597  0.92695  1.0000
  H   H31       1.0  0.75565  0.51597  0.57305  1.0000
  H   H32       1.0  0.74436  0.48403  0.07305  1.0000
  H   H33       1.0  0.01571  0.23749  0.95851  1.0000
  H   H34       1.0  0.48429  0.76251  0.45851  1.0000
  H   H35       1.0  0.51571  0.26251  0.04149  1.0000
  H   H36       1.0  0.98429  0.73749  0.54149  1.0000
  H   H37       1.0  0.19549  0.18526  0.95300  1.0000
  H   H38       1.0  0.30451  0.81474  0.45300  1.0000
  H   H39       1.0  0.69549  0.31474  0.04700  1.0000
  H   H40       1.0  0.80451  0.68526  0.54700  1.0000
  C   C1        1.0  0.28064  0.58161  0.40199  1.0000
  C   C2        1.0  0.21936  0.41839  0.90199  1.0000
  C   C3        1.0  0.78064  0.91839  0.59801  1.0000
  C   C4        1.0  0.71936  0.08161  0.09801  1.0000
  C   C5        1.0  0.41759  0.51768  0.41704  1.0000
  C   C6        1.0  0.08241  0.48232  0.91704  1.0000
  C   C7        1.0  0.91759  0.98232  0.58296  1.0000
  C   C8        1.0  0.58241  0.01768  0.08296  1.0000
  C   C9        1.0  0.59160  0.56168  0.41590  1.0000
  C   C10       1.0  0.90840  0.43833  0.91590  1.0000
  C   C11       1.0  0.09160  0.93833  0.58410  1.0000
  C   C12       1.0  0.40840  0.06167  0.08410  1.0000
  C   C13       1.0  0.39104  0.41178  0.43277  1.0000
  C   C14       1.0  0.10896  0.58822  0.93277  1.0000
  C   C15       1.0  0.89104  0.08822  0.56723  1.0000
  C   C16       1.0  0.60896  0.91178  0.06723  1.0000
  C   C17       1.0  0.22720  0.37477  0.43578  1.0000
  C   C18       1.0  0.27280  0.62523  0.93578  1.0000
  C   C19       1.0  0.72720  0.12523  0.56422  1.0000
  C   C20       1.0  0.77281  0.87477  0.06423  1.0000
  C   C21       1.0  0.09605  0.44427  0.42101  1.0000
  C   C22       1.0  0.40395  0.55573  0.92102  1.0000
  C   C23       1.0  0.59605  0.05573  0.57899  1.0000
  C   C24       1.0  0.90395  0.94427  0.07899  1.0000
  C   C25       1.0  0.31248  0.19849  0.46082  1.0000
  C   C26       1.0  0.18752  0.80151  0.96082  1.0000
  C   C27       1.0  0.81248  0.30151  0.53918  1.0000
  C   C28       1.0  0.68752  0.69849  0.03917  1.0000
  C   C29       1.0  0.28392  0.11016  0.34832  1.0000
  C   C30       1.0  0.21608  0.88984  0.84832  1.0000
  C   C31       1.0  0.78392  0.38984  0.65168  1.0000
  C   C32       1.0  0.71608  0.61016  0.15168  1.0000
  C   C33       1.0  0.24621  0.14380  0.27759  1.0000
  C   C34       1.0  0.25379  0.85620  0.77759  1.0000
  C   C35       1.0  0.74621  0.35620  0.72241  1.0000
  C   C36       1.0  0.75379  0.64380  0.22241  1.0000
  C   C37       1.0  0.08758  0.99518  0.25653  1.0000
  C   C38       1.0  0.41242  0.00482  0.75653  1.0000
  C   C39       1.0  0.58758  0.50482  0.74347  1.0000
  C   C40       1.0  0.91242  0.49518  0.24347  1.0000
  C   C41       1.0  0.12199  0.95540  0.32627  1.0000
  C   C42       1.0  0.37801  0.04460  0.82627  1.0000
  C   C43       1.0  0.62199  0.54460  0.67373  1.0000
  C   C44       1.0  0.87801  0.45540  0.17373  1.0000
  C   C45       1.0  0.05013  0.85279  0.35152  1.0000
  C   C46       1.0  0.44988  0.14720  0.85152  1.0000
  C   C47       1.0  0.55013  0.64720  0.64848  1.0000
  C   C48       1.0  0.94987  0.35279  0.14848  1.0000
  C   C49       1.0  0.22445  0.01370  0.37276  1.0000
  C   C50       1.0  0.27555  0.98630  0.87276  1.0000
  C   C51       1.0  0.72445  0.48630  0.62724  1.0000
  C   C52       1.0  0.77555  0.51370  0.12724  1.0000
  N   N1        1.0  0.12366  0.54513  0.40427  1.0000
  N   N2        1.0  0.37634  0.45486  0.90427  1.0000
  N   N3        1.0  0.62366  0.95487  0.59573  1.0000
  N   N4        1.0  0.87634  0.04513  0.09573  1.0000
  N   N5        1.0  0.15050  0.08642  0.23236  1.0000
  N   N6        1.0  0.34950  0.91358  0.73236  1.0000
  N   N7        1.0  0.65050  0.41358  0.76764  1.0000
  N   N8        1.0  0.84950  0.58642  0.26764  1.0000
  O   O1        1.0  0.71325  0.49970  0.42444  1.0000
  O   O2        1.0  0.78675  0.50030  0.92444  1.0000
  O   O3        1.0  0.21325  0.00030  0.57556  1.0000
  O   O4        1.0  0.28675  0.99970  0.07556  1.0000
  O   O5        1.0  0.60769  0.66096  0.40552  1.0000
  O   O6        1.0  0.89231  0.33904  0.90552  1.0000
  O   O7        1.0  0.10769  0.83904  0.59448  1.0000
  O   O8        1.0  0.39231  0.16096  0.09448  1.0000
  O   O9        1.0  0.18164  0.27401  0.45326  1.0000
  O   O10       1.0  0.31836  0.72599  0.95326  1.0000
  O   O11       1.0  0.68164  0.22599  0.54674  1.0000
  O   O12       1.0  0.81836  0.77401  0.04674  1.0000
  O   O13       1.0  0.38304  0.17368  0.39189  1.0000
  O   O14       1.0  0.11696  0.82632  0.89189  1.0000
  O   O15       1.0  0.88304  0.32632  0.60811  1.0000
  O   O16       1.0  0.61697  0.67368  0.10811  1.0000
  O   O17       1.0  0.92257  0.81652  0.31894  1.0000
  O   O18       1.0  0.57744  0.18348  0.81894  1.0000
  O   O19       1.0  0.42257  0.68348  0.68106  1.0000
  O   O20       1.0  0.07743  0.31652  0.18106  1.0000
  O   O21       1.0  0.11904  0.80605  0.40544  1.0000
  O   O22       1.0  0.38096  0.19395  0.90544  1.0000
  O   O23       1.0  0.61904  0.69395  0.59456  1.0000
  O   O24       1.0  0.88096  0.30604  0.09456  1.0000
  O   O25       1.0  0.08779  0.18272  0.98001  1.0000
  O   O26       1.0  0.41221  0.81728  0.48001  1.0000
  O   O27       1.0  0.58779  0.31728  0.01999  1.0000
  O   O28       1.0  0.91221  0.68272  0.51999  1.0000
