data_image0
_chemical_formula_structural       Cd4H40C52N8O28
_chemical_formula_sum              "Cd4 H40 C52 N8 O28"
_cell_length_a       8.02663
_cell_length_b       12.7873
_cell_length_c       18.8489
_cell_angle_alpha    90
_cell_angle_beta     94.339
_cell_angle_gamma    90

_space_group_name_H-M_alt    "P 1"
_space_group_IT_number       1

loop_
  _space_group_symop_operation_xyz
  'x, y, z'

loop_
  _atom_site_type_symbol
  _atom_site_label
  _atom_site_symmetry_multiplicity
  _atom_site_fract_x
  _atom_site_fract_y
  _atom_site_fract_z
  _atom_site_occupancy
  Cd  Cd1       1.0  0.88678  0.82981  0.88098  1.0000
  Cd  Cd2       1.0  0.61321  0.32981  0.61901  1.0000
  Cd  Cd3       1.0  0.11321  0.17019  0.11902  1.0000
  Cd  Cd4       1.0  0.38679  0.67019  0.38098  1.0000
  H   H1        1.0  0.92716  0.88265  0.03624  1.0000
  H   H2        1.0  0.57283  0.38266  0.46376  1.0000
  H   H3        1.0  0.07283  0.11735  0.96376  1.0000
  H   H4        1.0  0.42717  0.61734  0.53624  1.0000
  H   H5        1.0  0.04644  0.78770  0.02242  1.0000
  H   H6        1.0  0.45356  0.28770  0.47757  1.0000
  H   H7        1.0  0.95355  0.21230  0.97758  1.0000
  H   H8        1.0  0.54644  0.71229  0.52243  1.0000
  H   H9        1.0  0.83212  0.06511  0.92069  1.0000
  H   H10       1.0  0.66788  0.56511  0.57931  1.0000
  H   H11       1.0  0.16788  0.93489  0.07930  1.0000
  H   H12       1.0  0.33212  0.43489  0.42070  1.0000
  H   H13       1.0  0.30826  0.14123  0.92711  1.0000
  H   H14       1.0  0.19174  0.64122  0.57289  1.0000
  H   H15       1.0  0.69174  0.85878  0.07289  1.0000
  H   H16       1.0  0.80826  0.35878  0.42711  1.0000
  H   H17       1.0  0.48085  0.83051  0.88175  1.0000
  H   H18       1.0  0.01915  0.33051  0.61825  1.0000
  H   H19       1.0  0.51914  0.16949  0.11826  1.0000
  H   H20       1.0  0.98086  0.66949  0.38174  1.0000
  H   H21       1.0  0.41826  0.26233  0.99701  1.0000
  H   H22       1.0  0.08173  0.76233  0.50299  1.0000
  H   H23       1.0  0.58173  0.73767  0.00299  1.0000
  H   H24       1.0  0.91826  0.23767  0.49701  1.0000
  H   H25       1.0  0.58395  0.35577  0.98805  1.0000
  H   H26       1.0  0.91605  0.85576  0.51196  1.0000
  H   H27       1.0  0.41603  0.64424  0.01195  1.0000
  H   H28       1.0  0.08395  0.14423  0.48805  1.0000
  H   H29       1.0  0.56890  0.51300  0.92645  1.0000
  H   H30       1.0  0.93111  0.01300  0.57355  1.0000
  H   H31       1.0  0.43110  0.48700  0.07355  1.0000
  H   H32       1.0  0.06890  0.98700  0.42645  1.0000
  H   H33       1.0  0.76149  0.52946  0.72036  1.0000
  H   H34       1.0  0.73852  0.02947  0.77964  1.0000
  H   H35       1.0  0.23851  0.47054  0.27964  1.0000
  H   H36       1.0  0.26150  0.97054  0.22036  1.0000
  H   H37       1.0  0.47023  0.27286  0.76674  1.0000
  H   H38       1.0  0.02977  0.77286  0.73326  1.0000
  H   H39       1.0  0.52977  0.72713  0.23326  1.0000
  H   H40       1.0  0.97024  0.22714  0.26674  1.0000
  C   C1        1.0  0.70057  0.04402  0.91654  1.0000
  C   C2        1.0  0.79942  0.54402  0.58346  1.0000
  C   C3        1.0  0.29942  0.95599  0.08346  1.0000
  C   C4        1.0  0.20058  0.45598  0.41654  1.0000
  C   C5        1.0  0.57667  0.11750  0.92812  1.0000
  C   C6        1.0  0.92333  0.61749  0.57188  1.0000
  C   C7        1.0  0.42333  0.88251  0.07188  1.0000
  C   C8        1.0  0.07667  0.38251  0.42812  1.0000
  C   C9        1.0  0.40968  0.08647  0.92069  1.0000
  C   C10       1.0  0.09032  0.58647  0.57931  1.0000
  C   C11       1.0  0.59032  0.91354  0.07931  1.0000
  C   C12       1.0  0.90968  0.41353  0.42068  1.0000
  C   C13       1.0  0.37390  0.98164  0.90484  1.0000
  C   C14       1.0  0.12609  0.48164  0.59516  1.0000
  C   C15       1.0  0.62609  0.01836  0.09516  1.0000
  C   C16       1.0  0.87391  0.51836  0.40484  1.0000
  C   C17       1.0  0.19654  0.94261  0.90117  1.0000
  C   C18       1.0  0.30345  0.44261  0.59883  1.0000
  C   C19       1.0  0.80346  0.05739  0.09883  1.0000
  C   C20       1.0  0.69655  0.55739  0.40117  1.0000
  C   C21       1.0  0.50478  0.91254  0.89441  1.0000
  C   C22       1.0  0.99521  0.41253  0.60559  1.0000
  C   C23       1.0  0.49521  0.08747  0.10560  1.0000
  C   C24       1.0  0.00479  0.58747  0.39441  1.0000
  C   C25       1.0  0.51032  0.29227  0.96202  1.0000
  C   C26       1.0  0.98968  0.79227  0.53798  1.0000
  C   C27       1.0  0.48967  0.70773  0.03798  1.0000
  C   C28       1.0  0.01032  0.20773  0.46202  1.0000
  C   C29       1.0  0.51089  0.38399  0.85343  1.0000
  C   C30       1.0  0.98912  0.88399  0.64657  1.0000
  C   C31       1.0  0.48911  0.61600  0.14657  1.0000
  C   C32       1.0  0.01089  0.11601  0.35343  1.0000
  C   C33       1.0  0.58258  0.47951  0.87404  1.0000
  C   C34       1.0  0.91742  0.97951  0.62596  1.0000
  C   C35       1.0  0.41742  0.52049  0.12596  1.0000
  C   C36       1.0  0.08259  0.02049  0.37404  1.0000
  C   C37       1.0  0.67508  0.53311  0.82592  1.0000
  C   C38       1.0  0.82492  0.03311  0.67408  1.0000
  C   C39       1.0  0.32492  0.46688  0.17408  1.0000
  C   C40       1.0  0.17509  0.96689  0.32592  1.0000
  C   C41       1.0  0.68858  0.48960  0.75858  1.0000
  C   C42       1.0  0.81143  0.98960  0.74142  1.0000
  C   C43       1.0  0.31143  0.51040  0.24142  1.0000
  C   C44       1.0  0.18858  0.01040  0.25858  1.0000
  C   C45       1.0  0.52660  0.34679  0.78463  1.0000
  C   C46       1.0  0.97340  0.84679  0.71537  1.0000
  C   C47       1.0  0.47340  0.65321  0.21537  1.0000
  C   C48       1.0  0.02660  0.15321  0.28463  1.0000
  C   C49       1.0  0.75677  0.63580  0.84539  1.0000
  C   C50       1.0  0.74323  0.13581  0.65461  1.0000
  C   C51       1.0  0.24323  0.36419  0.15461  1.0000
  C   C52       1.0  0.25678  0.86420  0.34539  1.0000
  N   N1        1.0  0.66490  0.94420  0.90008  1.0000
  N   N2        1.0  0.83510  0.44420  0.59992  1.0000
  N   N3        1.0  0.33510  0.05580  0.09992  1.0000
  N   N4        1.0  0.16491  0.55580  0.40008  1.0000
  N   N5        1.0  0.61342  0.39976  0.73809  1.0000
  N   N6        1.0  0.88659  0.89976  0.76191  1.0000
  N   N7        1.0  0.38658  0.60023  0.26191  1.0000
  N   N8        1.0  0.11343  0.10024  0.23809  1.0000
  O   O1        1.0  0.63288  0.21531  0.94746  1.0000
  O   O2        1.0  0.86712  0.71531  0.55254  1.0000
  O   O3        1.0  0.36712  0.78469  0.05254  1.0000
  O   O4        1.0  0.13288  0.28469  0.44746  1.0000
  O   O5        1.0  0.41948  0.32555  0.89871  1.0000
  O   O6        1.0  0.08051  0.82555  0.60129  1.0000
  O   O7        1.0  0.58051  0.67444  0.10129  1.0000
  O   O8        1.0  0.91949  0.17445  0.39871  1.0000
  O   O9        1.0  0.87951  0.66510  0.81178  1.0000
  O   O10       1.0  0.62048  0.16510  0.68821  1.0000
  O   O11       1.0  0.12047  0.33490  0.18821  1.0000
  O   O12       1.0  0.37952  0.83490  0.31178  1.0000
  O   O13       1.0  0.69713  0.68897  0.89506  1.0000
  O   O14       1.0  0.80288  0.18897  0.60494  1.0000
  O   O15       1.0  0.30290  0.31102  0.10495  1.0000
  O   O16       1.0  0.19713  0.81103  0.39506  1.0000
  O   O17       1.0  0.17240  0.84690  0.88448  1.0000
  O   O18       1.0  0.32760  0.34689  0.61552  1.0000
  O   O19       1.0  0.82760  0.15311  0.11552  1.0000
  O   O20       1.0  0.67241  0.65311  0.38448  1.0000
  O   O21       1.0  0.08075  0.00539  0.91539  1.0000
  O   O22       1.0  0.41925  0.50539  0.58461  1.0000
  O   O23       1.0  0.91925  0.99461  0.08461  1.0000
  O   O24       1.0  0.58075  0.49461  0.41539  1.0000
  O   O25       1.0  0.93423  0.81452  0.01033  1.0000
  O   O26       1.0  0.56577  0.31452  0.48967  1.0000
  O   O27       1.0  0.06577  0.18548  0.98967  1.0000
  O   O28       1.0  0.43423  0.68548  0.51033  1.0000
