data_image0
_chemical_formula_structural       Cd2H32C28N8O10
_chemical_formula_sum              "Cd2 H32 C28 N8 O10"
_cell_length_a       7.99619
_cell_length_b       8.63482
_cell_length_c       10.877
_cell_angle_alpha    86.9547
_cell_angle_beta     73.423
_cell_angle_gamma    88.312

_space_group_name_H-M_alt    "P 1"
_space_group_IT_number       1

loop_
  _space_group_symop_operation_xyz
  'x, y, z'

loop_
  _atom_site_type_symbol
  _atom_site_label
  _atom_site_symmetry_multiplicity
  _atom_site_fract_x
  _atom_site_fract_y
  _atom_site_fract_z
  _atom_site_occupancy
  Cd  Cd1       1.0  0.50000  0.50000  0.00000  1.0000
  Cd  Cd2       1.0  0.50000  1.00000  0.50000  1.0000
  H   H1        1.0  0.67054  0.35067  0.20509  1.0000
  H   H2        1.0  0.32946  0.64934  0.79491  1.0000
  H   H3        1.0  0.53901  0.22330  0.17784  1.0000
  H   H4        1.0  0.46099  0.77670  0.82216  1.0000
  H   H5        1.0  0.94156  0.91443  0.71750  1.0000
  H   H6        1.0  0.05844  0.08557  0.28250  1.0000
  H   H7        1.0  0.78752  0.84245  0.84374  1.0000
  H   H8        1.0  0.21247  0.15755  0.15626  1.0000
  H   H9        1.0  0.21811  0.67000  0.16846  1.0000
  H   H10       1.0  0.78189  0.33000  0.83154  1.0000
  H   H11       1.0  0.40080  0.65955  0.21529  1.0000
  H   H12       1.0  0.59920  0.34045  0.78471  1.0000
  H   H13       1.0  0.31049  0.25195  0.63625  1.0000
  H   H14       1.0  0.68951  0.74805  0.36375  1.0000
  H   H15       1.0  0.47819  0.30678  0.51182  1.0000
  H   H16       1.0  0.52182  0.69322  0.48818  1.0000
  H   H17       1.0  0.97382  0.36613  0.08281  1.0000
  H   H18       1.0  0.02618  0.63387  0.91719  1.0000
  H   H19       1.0  0.60570  0.07609  0.98463  1.0000
  H   H20       1.0  0.39430  0.92391  0.01537  1.0000
  H   H21       1.0  0.14785  0.06138  0.76789  1.0000
  H   H22       1.0  0.85214  0.93862  0.23211  1.0000
  H   H23       1.0  0.97309  0.49127  0.25539  1.0000
  H   H24       1.0  0.02691  0.50873  0.74461  1.0000
  H   H25       1.0  0.45313  0.46546  0.36129  1.0000
  H   H26       1.0  0.54687  0.53454  0.63871  1.0000
  H   H27       1.0  0.03679  0.15164  0.54401  1.0000
  H   H28       1.0  0.96321  0.84837  0.45599  1.0000
  H   H29       1.0  0.52474  0.92022  0.24596  1.0000
  H   H30       1.0  0.47526  0.07978  0.75404  1.0000
  H   H31       1.0  0.34677  0.01885  0.27241  1.0000
  H   H32       1.0  0.65323  0.98115  0.72759  1.0000
  C   C1        1.0  0.26175  0.26742  0.90752  1.0000
  C   C2        1.0  0.73825  0.73258  0.09248  1.0000
  C   C3        1.0  0.07763  0.22009  0.92319  1.0000
  C   C4        1.0  0.92236  0.77991  0.07681  1.0000
  C   C5        1.0  0.94355  0.28054  0.02269  1.0000
  C   C6        1.0  0.05645  0.71946  0.97731  1.0000
  C   C7        1.0  0.77261  0.23004  0.04398  1.0000
  C   C8        1.0  0.22739  0.76996  0.95602  1.0000
  C   C9        1.0  0.73933  0.11408  0.96884  1.0000
  C   C10       1.0  0.26067  0.88593  0.03116  1.0000
  C   C11       1.0  0.87329  0.05451  0.86824  1.0000
  C   C12       1.0  0.12671  0.94549  0.13175  1.0000
  C   C13       1.0  0.04290  0.11063  0.84377  1.0000
  C   C14       1.0  0.95710  0.88937  0.15624  1.0000
  C   C15       1.0  0.80849  0.25935  0.41004  1.0000
  C   C16       1.0  0.19152  0.74065  0.58996  1.0000
  C   C17       1.0  0.98735  0.31826  0.40234  1.0000
  C   C18       1.0  0.01265  0.68174  0.59767  1.0000
  C   C19       1.0  0.05477  0.43805  0.31135  1.0000
  C   C20       1.0  0.94523  0.56195  0.68865  1.0000
  C   C21       1.0  0.22553  0.48631  0.29305  1.0000
  C   C22       1.0  0.77447  0.51369  0.70695  1.0000
  C   C23       1.0  0.32279  0.42315  0.37152  1.0000
  C   C24       1.0  0.67721  0.57685  0.62847  1.0000
  C   C25       1.0  0.25469  0.30598  0.46421  1.0000
  C   C26       1.0  0.74531  0.69402  0.53579  1.0000
  C   C27       1.0  0.08779  0.24941  0.47782  1.0000
  C   C28       1.0  0.91222  0.75059  0.52218  1.0000
  N   N1        1.0  0.63192  0.30344  0.13254  1.0000
  N   N2        1.0  0.36808  0.69656  0.86746  1.0000
  N   N3        1.0  0.83467  0.94243  0.79080  1.0000
  N   N4        1.0  0.16533  0.05757  0.20920  1.0000
  N   N5        1.0  0.30576  0.59633  0.19409  1.0000
  N   N6        1.0  0.69424  0.40367  0.80591  1.0000
  N   N7        1.0  0.36391  0.24545  0.53885  1.0000
  N   N8        1.0  0.63609  0.75455  0.46115  1.0000
  O   O1        1.0  0.29360  0.31755  0.00710  1.0000
  O   O2        1.0  0.70640  0.68245  0.99290  1.0000
  O   O3        1.0  0.37528  0.25412  0.79932  1.0000
  O   O4        1.0  0.62472  0.74588  0.20068  1.0000
  O   O5        1.0  0.77975  0.11581  0.44499  1.0000
  O   O6        1.0  0.22025  0.88419  0.55501  1.0000
  O   O7        1.0  0.70162  0.35346  0.37852  1.0000
  O   O8        1.0  0.29838  0.64654  0.62148  1.0000
  O   O9        1.0  0.46738  0.01691  0.28418  1.0000
  O   O10       1.0  0.53262  0.98309  0.71582  1.0000
