data_image0
_chemical_formula_structural       Ni2H16C28S8N12
_chemical_formula_sum              "Ni2 H16 C28 S8 N12"
_cell_length_a       7.7606
_cell_length_b       8.48838
_cell_length_c       14.166
_cell_angle_alpha    99.7316
_cell_angle_beta     101.463
_cell_angle_gamma    107.95

_space_group_name_H-M_alt    "P 1"
_space_group_IT_number       1

loop_
  _space_group_symop_operation_xyz
  'x, y, z'

loop_
  _atom_site_type_symbol
  _atom_site_label
  _atom_site_symmetry_multiplicity
  _atom_site_fract_x
  _atom_site_fract_y
  _atom_site_fract_z
  _atom_site_occupancy
  Ni  Ni1       1.0  0.35055  0.66250  0.74082  1.0000
  Ni  Ni2       1.0  0.64945  0.33750  0.25918  1.0000
  H   H1        1.0  0.96098  0.22485  0.94306  1.0000
  H   H2        1.0  0.03902  0.77516  0.05694  1.0000
  H   H3        1.0  0.04234  0.44075  0.10509  1.0000
  H   H4        1.0  0.95767  0.55925  0.89491  1.0000
  H   H5        1.0  0.33404  0.48820  0.23588  1.0000
  H   H6        1.0  0.66597  0.51180  0.76412  1.0000
  H   H7        1.0  0.47132  0.13348  0.05534  1.0000
  H   H8        1.0  0.52868  0.86653  0.94466  1.0000
  H   H9        1.0  0.21023  0.86103  0.46196  1.0000
  H   H10       1.0  0.78975  0.13897  0.53804  1.0000
  H   H11       1.0  0.28654  0.74283  0.30875  1.0000
  H   H12       1.0  0.71343  0.25715  0.69125  1.0000
  H   H13       1.0  0.47428  0.94418  0.22442  1.0000
  H   H14       1.0  0.52570  0.05579  0.77559  1.0000
  H   H15       1.0  0.49361  0.36566  0.42966  1.0000
  H   H16       1.0  0.50637  0.63433  0.57033  1.0000
  C   C1        1.0  0.09316  0.81347  0.74224  1.0000
  C   C2        1.0  0.90685  0.18653  0.25777  1.0000
  C   C3        1.0  0.18178  0.02982  0.89824  1.0000
  C   C4        1.0  0.81824  0.97019  0.10177  1.0000
  C   C5        1.0  0.21120  0.16162  0.98657  1.0000
  C   C6        1.0  0.78879  0.83839  0.01343  1.0000
  C   C7        1.0  0.08961  0.25081  0.00055  1.0000
  C   C8        1.0  0.91039  0.74920  0.99946  1.0000
  C   C9        1.0  0.13496  0.37138  0.09020  1.0000
  C   C10       1.0  0.86505  0.62863  0.90981  1.0000
  C   C11       1.0  0.29743  0.39932  0.16370  1.0000
  C   C12       1.0  0.70258  0.60068  0.83630  1.0000
  C   C13       1.0  0.37364  0.20001  0.06414  1.0000
  C   C14       1.0  0.62636  0.80000  0.93586  1.0000
  C   C15       1.0  0.21702  0.32197  0.68907  1.0000
  C   C16       1.0  0.78298  0.67804  0.31092  1.0000
  C   C17       1.0  0.30888  0.21281  0.54421  1.0000
  C   C18       1.0  0.69112  0.78719  0.45578  1.0000
  C   C19       1.0  0.34433  0.12436  0.45686  1.0000
  C   C20       1.0  0.65565  0.87563  0.54313  1.0000
  C   C21       1.0  0.28671  0.94652  0.42268  1.0000
  C   C22       1.0  0.71327  0.05347  0.57731  1.0000
  C   C23       1.0  0.33179  0.88046  0.33772  1.0000
  C   C24       1.0  0.66819  0.11953  0.66227  1.0000
  C   C25       1.0  0.43515  0.99135  0.29040  1.0000
  C   C26       1.0  0.56484  0.00863  0.70960  1.0000
  C   C27       1.0  0.44711  0.22713  0.40431  1.0000
  C   C28       1.0  0.55288  0.77286  0.59568  1.0000
  S   S1        1.0  0.99770  0.96157  0.78991  1.0000
  S   S2        1.0  0.00231  0.03842  0.21009  1.0000
  S   S3        1.0  0.02702  0.67225  0.63155  1.0000
  S   S4        1.0  0.97300  0.32775  0.36847  1.0000
  S   S5        1.0  0.14618  0.39255  0.78776  1.0000
  S   S6        1.0  0.85382  0.60745  0.21223  1.0000
  S   S7        1.0  0.16742  0.11747  0.61562  1.0000
  S   S8        1.0  0.83257  0.88255  0.38438  1.0000
  N   N1        1.0  0.25090  0.82806  0.80919  1.0000
  N   N2        1.0  0.74911  0.17193  0.19081  1.0000
  N   N3        1.0  0.29909  0.94609  0.89464  1.0000
  N   N4        1.0  0.70093  0.05392  0.10537  1.0000
  N   N5        1.0  0.41555  0.31448  0.15046  1.0000
  N   N6        1.0  0.58447  0.68553  0.84955  1.0000
  N   N7        1.0  0.33291  0.44030  0.65583  1.0000
  N   N8        1.0  0.66710  0.55970  0.34417  1.0000
  N   N9        1.0  0.38461  0.38026  0.57666  1.0000
  N   N10       1.0  0.61540  0.61975  0.42334  1.0000
  N   N11       1.0  0.49346  0.16304  0.32407  1.0000
  N   N12       1.0  0.50654  0.83695  0.67592  1.0000
