data_image0
_chemical_formula_structural       Zn2H56C36N8O8
_chemical_formula_sum              "Zn2 H56 C36 N8 O8"
_cell_length_a       8.88523
_cell_length_b       11.4273
_cell_length_c       11.5095
_cell_angle_alpha    89.5214
_cell_angle_beta     69.4268
_cell_angle_gamma    69.6145

_space_group_name_H-M_alt    "P 1"
_space_group_IT_number       1

loop_
  _space_group_symop_operation_xyz
  'x, y, z'

loop_
  _atom_site_type_symbol
  _atom_site_label
  _atom_site_symmetry_multiplicity
  _atom_site_fract_x
  _atom_site_fract_y
  _atom_site_fract_z
  _atom_site_occupancy
  Zn  Zn1       1.0  0.50000  0.00000  0.50000  1.0000
  Zn  Zn2       1.0  0.00000  0.50000  1.00000  1.0000
  H   H1        1.0  0.49358  0.21039  0.57405  1.0000
  H   H2        1.0  0.00638  0.42547  0.79106  1.0000
  H   H3        1.0  0.50642  0.78961  0.42595  1.0000
  H   H4        1.0  0.99362  0.57454  0.20894  1.0000
  H   H5        1.0  0.82830  0.88837  0.34850  1.0000
  H   H6        1.0  0.67176  0.65202  0.11130  1.0000
  H   H7        1.0  0.17170  0.11163  0.65150  1.0000
  H   H8        1.0  0.32824  0.34798  0.88870  1.0000
  H   H9        1.0  0.74381  0.23265  0.41272  1.0000
  H   H10       1.0  0.75574  0.58693  0.76939  1.0000
  H   H11       1.0  0.25620  0.76735  0.58727  1.0000
  H   H12       1.0  0.24426  0.41307  0.23061  1.0000
  H   H13       1.0  0.72838  0.12639  0.30912  1.0000
  H   H14       1.0  0.77109  0.69181  0.87442  1.0000
  H   H15       1.0  0.27162  0.87361  0.69088  1.0000
  H   H16       1.0  0.22891  0.30819  0.12558  1.0000
  H   H17       1.0  0.95528  0.02305  0.40059  1.0000
  H   H18       1.0  0.54479  0.59904  0.97803  1.0000
  H   H19       1.0  0.04472  0.97695  0.59941  1.0000
  H   H20       1.0  0.45521  0.40096  0.02197  1.0000
  H   H21       1.0  0.79007  0.06420  0.55241  1.0000
  H   H22       1.0  0.70995  0.44653  0.93693  1.0000
  H   H23       1.0  0.20993  0.93580  0.44759  1.0000
  H   H24       1.0  0.29005  0.55347  0.06307  1.0000
  H   H25       1.0  0.78489  0.86697  0.61195  1.0000
  H   H26       1.0  0.71500  0.38689  0.13289  1.0000
  H   H27       1.0  0.21511  0.13303  0.38804  1.0000
  H   H28       1.0  0.28500  0.61312  0.86711  1.0000
  H   H29       1.0  0.98233  0.79231  0.48152  1.0000
  H   H30       1.0  0.51774  0.51803  0.20743  1.0000
  H   H31       1.0  0.01767  0.20769  0.51848  1.0000
  H   H32       1.0  0.48226  0.48197  0.79257  1.0000
  H   H33       1.0  0.86593  0.63459  0.53178  1.0000
  H   H34       1.0  0.63369  0.46803  0.36369  1.0000
  H   H35       1.0  0.13408  0.36541  0.46822  1.0000
  H   H36       1.0  0.36631  0.53198  0.63631  1.0000
  H   H37       1.0  0.82346  0.68736  0.39813  1.0000
  H   H38       1.0  0.67706  0.60235  0.31075  1.0000
  H   H39       1.0  0.17654  0.31264  0.60187  1.0000
  H   H40       1.0  0.32294  0.39765  0.68925  1.0000
  H   H41       1.0  0.41528  0.36040  0.42881  1.0000
  H   H42       1.0  0.08537  0.57099  0.64127  1.0000
  H   H43       1.0  0.58472  0.63960  0.57119  1.0000
  H   H44       1.0  0.91463  0.42901  0.35873  1.0000
  H   H45       1.0  0.44260  0.22817  0.33201  1.0000
  H   H46       1.0  0.05765  0.66928  0.77209  1.0000
  H   H47       1.0  0.55740  0.77182  0.66799  1.0000
  H   H48       1.0  0.94235  0.33072  0.22791  1.0000
  H   H49       1.0  0.55665  0.19383  0.93792  1.0000
  H   H50       1.0  0.94423  0.06131  0.80698  1.0000
  H   H51       1.0  0.44335  0.80616  0.06208  1.0000
  H   H52       1.0  0.05577  0.93869  0.19302  1.0000
  H   H53       1.0  0.42251  0.88523  0.86184  1.0000
  H   H54       1.0  0.07776  0.13998  0.11280  1.0000
  H   H55       1.0  0.57749  0.11477  0.13816  1.0000
  H   H56       1.0  0.92224  0.86002  0.88720  1.0000
  C   C1        1.0  0.70559  0.15103  0.40767  1.0000
  C   C2        1.0  0.79424  0.59247  0.85015  1.0000
  C   C3        1.0  0.29441  0.84897  0.59233  1.0000
  C   C4        1.0  0.20577  0.40753  0.14985  1.0000
  C   C5        1.0  0.81756  0.03982  0.45285  1.0000
  C   C6        1.0  0.68249  0.54677  0.96107  1.0000
  C   C7        1.0  0.18244  0.96018  0.54715  1.0000
  C   C8        1.0  0.31751  0.45323  0.03893  1.0000
  C   C9        1.0  0.83969  0.82665  0.51290  1.0000
  C   C10       1.0  0.66040  0.48658  0.17287  1.0000
  C   C11       1.0  0.16031  0.17335  0.48710  1.0000
  C   C12       1.0  0.33960  0.51342  0.82713  1.0000
  C   C13       1.0  0.78693  0.71485  0.49853  1.0000
  C   C14       1.0  0.71320  0.50128  0.28374  1.0000
  C   C15       1.0  0.21307  0.28515  0.50147  1.0000
  C   C16       1.0  0.28680  0.49873  0.71626  1.0000
  C   C17       1.0  0.40287  0.26707  0.42988  1.0000
  C   C18       1.0  0.09720  0.57059  0.73409  1.0000
  C   C19       1.0  0.59713  0.73293  0.57012  1.0000
  C   C20       1.0  0.90280  0.42941  0.26591  1.0000
  C   C21       1.0  0.48733  0.04466  0.88840  1.0000
  C   C22       1.0  0.01343  0.11159  0.95483  1.0000
  C   C23       1.0  0.51267  0.95534  0.11160  1.0000
  C   C24       1.0  0.98656  0.88841  0.04517  1.0000
  C   C25       1.0  0.52958  0.10990  0.96687  1.0000
  C   C26       1.0  0.97096  0.03247  0.89045  1.0000
  C   C27       1.0  0.47042  0.89010  0.03313  1.0000
  C   C28       1.0  0.02903  0.96753  0.10955  1.0000
  C   C29       1.0  0.45821  0.93408  0.92255  1.0000
  C   C30       1.0  0.04200  0.07834  0.06493  1.0000
  C   C31       1.0  0.54178  0.06592  0.07745  1.0000
  C   C32       1.0  0.95800  0.92166  0.93507  1.0000
  C   C33       1.0  0.47590  0.09050  0.76759  1.0000
  C   C34       1.0  0.02525  0.23268  0.90879  1.0000
  C   C35       1.0  0.52409  0.90951  0.23241  1.0000
  C   C36       1.0  0.97474  0.76732  0.09121  1.0000
  N   N1        1.0  0.52165  0.17996  0.48152  1.0000
  N   N2        1.0  0.97813  0.51877  0.82102  1.0000
  N   N3        1.0  0.47835  0.82004  0.51848  1.0000
  N   N4        1.0  0.02187  0.48123  0.17898  1.0000
  N   N5        1.0  0.77684  0.92714  0.44119  1.0000
  N   N6        1.0  0.72316  0.55875  0.07280  1.0000
  N   N7        1.0  0.22316  0.07286  0.55881  1.0000
  N   N8        1.0  0.27684  0.44125  0.92720  1.0000
  O   O1        1.0  0.46943  0.01145  0.69338  1.0000
  O   O2        1.0  0.03145  0.30730  0.98746  1.0000
  O   O3        1.0  0.53057  0.98856  0.30662  1.0000
  O   O4        1.0  0.96855  0.69270  0.01254  1.0000
  O   O5        1.0  0.47656  0.19966  0.74668  1.0000
  O   O6        1.0  0.02502  0.25352  0.80028  1.0000
  O   O7        1.0  0.52343  0.80035  0.25333  1.0000
  O   O8        1.0  0.97498  0.74648  0.19972  1.0000
