data_image0
_chemical_formula_structural       Zn2H56C52N12O8
_chemical_formula_sum              "Zn2 H56 C52 N12 O8"
_cell_length_a       7.65104
_cell_length_b       10.9343
_cell_length_c       16.06
_cell_angle_alpha    86.3527
_cell_angle_beta     79.524
_cell_angle_gamma    69.521

_space_group_name_H-M_alt    "P 1"
_space_group_IT_number       1

loop_
  _space_group_symop_operation_xyz
  'x, y, z'

loop_
  _atom_site_type_symbol
  _atom_site_label
  _atom_site_symmetry_multiplicity
  _atom_site_fract_x
  _atom_site_fract_y
  _atom_site_fract_z
  _atom_site_occupancy
  Zn  Zn1       1.0  0.23814  0.52321  0.24999  1.0000
  Zn  Zn2       1.0  0.76186  0.47679  0.75001  1.0000
  H   H1        1.0  0.51402  0.72375  0.41025  1.0000
  H   H2        1.0  0.76133  0.72320  0.08966  1.0000
  H   H3        1.0  0.48597  0.27625  0.58975  1.0000
  H   H4        1.0  0.23866  0.27680  0.91034  1.0000
  H   H5        1.0  0.73149  0.65111  0.34473  1.0000
  H   H6        1.0  0.61639  0.65087  0.15537  1.0000
  H   H7        1.0  0.26851  0.34889  0.65528  1.0000
  H   H8        1.0  0.38360  0.34913  0.84463  1.0000
  H   H9        1.0  0.37236  0.94299  0.39934  1.0000
  H   H10       1.0  0.68512  0.94252  0.10045  1.0000
  H   H11       1.0  0.62763  0.05701  0.60066  1.0000
  H   H12       1.0  0.31488  0.05747  0.89955  1.0000
  H   H13       1.0  0.34001  0.15285  0.32423  1.0000
  H   H14       1.0  0.50898  0.15259  0.17549  1.0000
  H   H15       1.0  0.65999  0.84715  0.67577  1.0000
  H   H16       1.0  0.49102  0.84741  0.82450  1.0000
  H   H17       1.0  0.39959  0.38779  0.41539  1.0000
  H   H18       1.0  0.21262  0.38786  0.08453  1.0000
  H   H19       1.0  0.60042  0.61221  0.58461  1.0000
  H   H20       1.0  0.78738  0.61214  0.91547  1.0000
  H   H21       1.0  0.88544  0.41647  0.34072  1.0000
  H   H22       1.0  0.69797  0.41640  0.15955  1.0000
  H   H23       1.0  0.11456  0.58352  0.65928  1.0000
  H   H24       1.0  0.30203  0.58361  0.84045  1.0000
  H   H25       1.0  0.74125  0.32835  0.47527  1.0000
  H   H26       1.0  0.93051  0.32833  0.02504  1.0000
  H   H27       1.0  0.25875  0.67165  0.52473  1.0000
  H   H28       1.0  0.06949  0.67168  0.97496  1.0000
  H   H29       1.0  0.84529  0.32048  0.56630  1.0000
  H   H30       1.0  0.83450  0.32055  0.93394  1.0000
  H   H31       1.0  0.15471  0.67952  0.43370  1.0000
  H   H32       1.0  0.16550  0.67945  0.06606  1.0000
  H   H33       1.0  0.10001  0.22420  0.61190  1.0000
  H   H34       1.0  0.67552  0.22460  0.88841  1.0000
  H   H35       1.0  0.89999  0.77580  0.38810  1.0000
  H   H36       1.0  0.32447  0.77541  0.11159  1.0000
  H   H37       1.0  0.19045  0.07497  0.66345  1.0000
  H   H38       1.0  0.73429  0.07550  0.83668  1.0000
  H   H39       1.0  0.80955  0.92503  0.33655  1.0000
  H   H40       1.0  0.26571  0.92450  0.16332  1.0000
  H   H41       1.0  0.94441  0.16449  0.68403  1.0000
  H   H42       1.0  0.89080  0.16504  0.81619  1.0000
  H   H43       1.0  0.05560  0.83551  0.31597  1.0000
  H   H44       1.0  0.10920  0.83497  0.18381  1.0000
  H   H45       1.0  0.76649  0.24963  0.36617  1.0000
  H   H46       1.0  0.98435  0.24927  0.13394  1.0000
  H   H47       1.0  0.23352  0.75036  0.63383  1.0000
  H   H48       1.0  0.01564  0.75073  0.86606  1.0000
  H   H49       1.0  0.66000  0.12910  0.37132  1.0000
  H   H50       1.0  0.21129  0.12864  0.12867  1.0000
  H   H51       1.0  0.34001  0.87090  0.62867  1.0000
  H   H52       1.0  0.78870  0.87137  0.87133  1.0000
  H   H53       1.0  0.87691  0.10703  0.30469  1.0000
  H   H54       1.0  0.01651  0.10664  0.19543  1.0000
  H   H55       1.0  0.12310  0.89296  0.69531  1.0000
  H   H56       1.0  0.98348  0.89336  0.80456  1.0000
  C   C1        1.0  0.50391  0.59724  0.31838  1.0000
  C   C2        1.0  0.89804  0.59690  0.18155  1.0000
  C   C3        1.0  0.49609  0.40275  0.68162  1.0000
  C   C4        1.0  0.10196  0.40310  0.81845  1.0000
  C   C5        1.0  0.57949  0.69894  0.34370  1.0000
  C   C6        1.0  0.72066  0.69864  0.15625  1.0000
  C   C7        1.0  0.42051  0.30106  0.65630  1.0000
  C   C8        1.0  0.27933  0.30136  0.84374  1.0000
  C   C9        1.0  0.54637  0.82320  0.29296  1.0000
  C   C10       1.0  0.62979  0.82306  0.20688  1.0000
  C   C11       1.0  0.45362  0.17680  0.70704  1.0000
  C   C12       1.0  0.37021  0.17693  0.79312  1.0000
  C   C13       1.0  0.44081  0.94274  0.33342  1.0000
  C   C14       1.0  0.61676  0.94247  0.16636  1.0000
  C   C15       1.0  0.55919  0.05726  0.66658  1.0000
  C   C16       1.0  0.38324  0.05753  0.83363  1.0000
  C   C17       1.0  0.42352  0.06112  0.29148  1.0000
  C   C18       1.0  0.51649  0.06098  0.20827  1.0000
  C   C19       1.0  0.57648  0.93888  0.70852  1.0000
  C   C20       1.0  0.48351  0.93902  0.79173  1.0000
  C   C21       1.0  0.26256  0.37847  0.41633  1.0000
  C   C22       1.0  0.35896  0.37857  0.08366  1.0000
  C   C23       1.0  0.73745  0.62153  0.58367  1.0000
  C   C24       1.0  0.64105  0.62143  0.91634  1.0000
  C   C25       1.0  0.00427  0.39428  0.37462  1.0000
  C   C26       1.0  0.60135  0.39426  0.12560  1.0000
  C   C27       1.0  0.99574  0.60572  0.62538  1.0000
  C   C28       1.0  0.39864  0.60574  0.87440  1.0000
  C   C29       1.0  0.87167  0.28408  0.50160  1.0000
  C   C30       1.0  0.84437  0.28412  0.99865  1.0000
  C   C31       1.0  0.12833  0.71592  0.49840  1.0000
  C   C32       1.0  0.15563  0.71588  0.00135  1.0000
  C   C33       1.0  0.93885  0.13622  0.50019  1.0000
  C   C34       1.0  0.92488  0.13626  0.00000  1.0000
  C   C35       1.0  0.06115  0.86378  0.49981  1.0000
  C   C36       1.0  0.07512  0.86374  1.00000  1.0000
  C   C37       1.0  0.03773  0.06593  0.56398  1.0000
  C   C38       1.0  0.89620  0.06615  0.93613  1.0000
  C   C39       1.0  0.96228  0.93407  0.43602  1.0000
  C   C40       1.0  0.10379  0.93385  0.06387  1.0000
  C   C41       1.0  0.07056  0.13567  0.63420  1.0000
  C   C42       1.0  0.79350  0.13613  0.86601  1.0000
  C   C43       1.0  0.92945  0.86433  0.36580  1.0000
  C   C44       1.0  0.20649  0.86387  0.13399  1.0000
  C   C45       1.0  0.90076  0.07167  0.43618  1.0000
  C   C46       1.0  0.02768  0.07147  0.06390  1.0000
  C   C47       1.0  0.09924  0.92832  0.56382  1.0000
  C   C48       1.0  0.97231  0.92853  0.93610  1.0000
  C   C49       1.0  0.79603  0.14441  0.36708  1.0000
  C   C50       1.0  0.05988  0.14402  0.13302  1.0000
  C   C51       1.0  0.20398  0.85559  0.63292  1.0000
  C   C52       1.0  0.94012  0.85598  0.86698  1.0000
  N   N1        1.0  0.16376  0.42217  0.35088  1.0000
  N   N2        1.0  0.41391  0.42215  0.14921  1.0000
  N   N3        1.0  0.83625  0.57783  0.64912  1.0000
  N   N4        1.0  0.58609  0.57785  0.85079  1.0000
  N   N5        1.0  0.17339  0.32563  0.47843  1.0000
  N   N6        1.0  0.50114  0.32577  0.02162  1.0000
  N   N7        1.0  0.82662  0.67437  0.52157  1.0000
  N   N8        1.0  0.49886  0.67423  0.97838  1.0000
  N   N9        1.0  0.01002  0.33667  0.45092  1.0000
  N   N10       1.0  0.65336  0.33676  0.04926  1.0000
  N   N11       1.0  0.98999  0.66333  0.54909  1.0000
  N   N12       1.0  0.34664  0.66324  0.95074  1.0000
  O   O1        1.0  0.58532  0.47857  0.33322  1.0000
  O   O2        1.0  0.93519  0.47823  0.16671  1.0000
  O   O3        1.0  0.41468  0.52143  0.66678  1.0000
  O   O4        1.0  0.06480  0.52177  0.83328  1.0000
  O   O5        1.0  0.35190  0.64314  0.28509  1.0000
  O   O6        1.0  0.00419  0.64275  0.21483  1.0000
  O   O7        1.0  0.64810  0.35686  0.71491  1.0000
  O   O8        1.0  0.99580  0.35725  0.78517  1.0000
