data_image0
_chemical_formula_structural       ZnH28C20N4O8
_chemical_formula_sum              "Zn1 H28 C20 N4 O8"
_cell_length_a       7.75386
_cell_length_b       7.87966
_cell_length_c       9.6738
_cell_angle_alpha    69.3063
_cell_angle_beta     83.8662
_cell_angle_gamma    75.4928

_space_group_name_H-M_alt    "P 1"
_space_group_IT_number       1

loop_
  _space_group_symop_operation_xyz
  'x, y, z'

loop_
  _atom_site_type_symbol
  _atom_site_label
  _atom_site_symmetry_multiplicity
  _atom_site_fract_x
  _atom_site_fract_y
  _atom_site_fract_z
  _atom_site_occupancy
  Zn  Zn1       1.0  0.50000  0.50000  0.49999  1.0000
  H   H1        1.0  0.37037  0.95045  0.98233  1.0000
  H   H2        1.0  0.62965  0.04957  0.01768  1.0000
  H   H3        1.0  0.53980  0.21378  0.42733  1.0000
  H   H4        1.0  0.46019  0.78622  0.57266  1.0000
  H   H5        1.0  0.62246  0.35311  0.76639  1.0000
  H   H6        1.0  0.37751  0.64689  0.23361  1.0000
  H   H7        1.0  0.57923  0.95998  0.66605  1.0000
  H   H8        1.0  0.42075  0.04002  0.33395  1.0000
  H   H9        1.0  0.46613  0.12457  0.74832  1.0000
  H   H10       1.0  0.53385  0.87542  0.25168  1.0000
  H   H11       1.0  0.80457  0.05763  0.76414  1.0000
  H   H12       1.0  0.19541  0.94236  0.23587  1.0000
  H   H13       1.0  0.81423  0.15579  0.56814  1.0000
  H   H14       1.0  0.18576  0.84420  0.43187  1.0000
  H   H15       1.0  0.91923  0.40778  0.55338  1.0000
  H   H16       1.0  0.08076  0.59221  0.44662  1.0000
  H   H17       1.0  0.93876  0.34766  0.74697  1.0000
  H   H18       1.0  0.06123  0.65233  0.25303  1.0000
  H   H19       1.0  0.92847  0.66892  0.64612  1.0000
  H   H20       1.0  0.07152  0.33106  0.35388  1.0000
  H   H21       1.0  0.71688  0.65626  0.72857  1.0000
  H   H22       1.0  0.28312  0.34372  0.27143  1.0000
  H   H23       1.0  0.26589  0.08910  0.52912  1.0000
  H   H24       1.0  0.73410  0.91089  0.47089  1.0000
  H   H25       1.0  0.20771  0.27051  0.60420  1.0000
  H   H26       1.0  0.79228  0.72949  0.39579  1.0000
  H   H27       1.0  0.00343  0.83087  0.86371  1.0000
  H   H28       1.0  0.99660  0.16914  0.13631  1.0000
  C   C1        1.0  0.55568  0.10715  0.65631  1.0000
  C   C2        1.0  0.44430  0.89284  0.34369  1.0000
  C   C3        1.0  0.72992  0.15824  0.66685  1.0000
  C   C4        1.0  0.27006  0.84175  0.33315  1.0000
  C   C5        1.0  0.84854  0.42696  0.65314  1.0000
  C   C6        1.0  0.15144  0.57303  0.34686  1.0000
  C   C7        1.0  0.80317  0.63384  0.63536  1.0000
  C   C8        1.0  0.19682  0.36615  0.36463  1.0000
  C   C9        1.0  0.27932  0.23149  0.51166  1.0000
  C   C10       1.0  0.72067  0.76850  0.48834  1.0000
  C   C11       1.0  0.13890  0.54830  0.89672  1.0000
  C   C12       1.0  0.86112  0.45171  0.10328  1.0000
  C   C13       1.0  0.13894  0.35995  0.97569  1.0000
  C   C14       1.0  0.86108  0.64006  0.02432  1.0000
  C   C15       1.0  0.00133  0.68574  0.92493  1.0000
  C   C16       1.0  0.99869  0.31428  0.07508  1.0000
  C   C17       1.0  0.26476  0.60671  0.76634  1.0000
  C   C18       1.0  0.73525  0.39331  0.23366  1.0000
  C   C19       1.0  0.29675  0.20821  0.97011  1.0000
  C   C20       1.0  0.70330  0.79181  0.02989  1.0000
  N   N1        1.0  0.46682  0.23496  0.51890  1.0000
  N   N2        1.0  0.53317  0.76503  0.48110  1.0000
  N   N3        1.0  0.69052  0.34960  0.67012  1.0000
  N   N4        1.0  0.30946  0.65039  0.32988  1.0000
  O   O1        1.0  0.29583  0.50230  0.68620  1.0000
  O   O2        1.0  0.70417  0.49772  0.31380  1.0000
  O   O3        1.0  0.31710  0.75372  0.74250  1.0000
  O   O4        1.0  0.68291  0.24629  0.25750  1.0000
  O   O5        1.0  0.45163  0.22290  0.97626  1.0000
  O   O6        1.0  0.54838  0.77712  0.02373  1.0000
  O   O7        1.0  0.25735  0.05385  0.96910  1.0000
  O   O8        1.0  0.74267  0.94617  0.03091  1.0000
