data_image0
_chemical_formula_structural       Zn4H26C40S2N10O14
_chemical_formula_sum              "Zn4 H26 C40 S2 N10 O14"
_cell_length_a       7.79246
_cell_length_b       10.5287
_cell_length_c       14.4868
_cell_angle_alpha    69.2231
_cell_angle_beta     80.0394
_cell_angle_gamma    89.0328

_space_group_name_H-M_alt    "P 1"
_space_group_IT_number       1

loop_
  _space_group_symop_operation_xyz
  'x, y, z'

loop_
  _atom_site_type_symbol
  _atom_site_label
  _atom_site_symmetry_multiplicity
  _atom_site_fract_x
  _atom_site_fract_y
  _atom_site_fract_z
  _atom_site_occupancy
  Zn  Zn1       1.0  0.17080  0.03819  0.12745  1.0000
  Zn  Zn2       1.0  0.82920  0.96181  0.87255  1.0000
  Zn  Zn3       1.0  0.48533  0.87591  0.10308  1.0000
  Zn  Zn4       1.0  0.51467  0.12409  0.89692  1.0000
  H   H1        1.0  0.77002  0.72812  0.32668  1.0000
  H   H2        1.0  0.22998  0.27188  0.67332  1.0000
  H   H3        1.0  0.61045  0.51390  0.44242  1.0000
  H   H4        1.0  0.38955  0.48610  0.55758  1.0000
  H   H5        1.0  0.24636  0.51699  0.31506  1.0000
  H   H6        1.0  0.75364  0.48301  0.68493  1.0000
  H   H7        1.0  0.08574  0.29861  0.43438  1.0000
  H   H8        1.0  0.91425  0.70139  0.56561  1.0000
  H   H9        1.0  0.41272  0.28467  0.44393  1.0000
  H   H10       1.0  0.58728  0.71533  0.55607  1.0000
  H   H11       1.0  0.30856  0.20596  0.31676  1.0000
  H   H12       1.0  0.69143  0.79404  0.68323  1.0000
  H   H13       1.0  0.87667  0.05892  0.42416  1.0000
  H   H14       1.0  0.12333  0.94108  0.57584  1.0000
  H   H15       1.0  0.76996  0.97959  0.29963  1.0000
  H   H16       1.0  0.23004  0.02041  0.70037  1.0000
  H   H17       1.0  0.49216  0.39383  0.10240  1.0000
  H   H18       1.0  0.50784  0.60617  0.89760  1.0000
  H   H19       1.0  0.36658  0.61474  0.10099  1.0000
  H   H20       1.0  0.63342  0.38527  0.89900  1.0000
  H   H21       1.0  0.98508  0.54935  0.12702  1.0000
  H   H22       1.0  0.01492  0.45065  0.87299  1.0000
  H   H23       1.0  0.83880  0.76370  0.12582  1.0000
  H   H24       1.0  0.16121  0.23630  0.87418  1.0000
  H   H25       1.0  0.24660  0.94583  0.99012  1.0000
  H   H26       1.0  0.75340  0.05417  0.00988  1.0000
  C   C1        1.0  0.11540  0.76091  0.23976  1.0000
  C   C2        1.0  0.88460  0.23909  0.76024  1.0000
  C   C3        1.0  0.01764  0.63415  0.31320  1.0000
  C   C4        1.0  0.98236  0.36585  0.68680  1.0000
  C   C5        1.0  0.83903  0.63432  0.34975  1.0000
  C   C6        1.0  0.16097  0.36568  0.65025  1.0000
  C   C7        1.0  0.74943  0.51397  0.41476  1.0000
  C   C8        1.0  0.25057  0.48603  0.58524  1.0000
  C   C9        1.0  0.10702  0.51371  0.34356  1.0000
  C   C10       1.0  0.89298  0.48629  0.65644  1.0000
  C   C11       1.0  0.01873  0.39315  0.40913  1.0000
  C   C12       1.0  0.98127  0.60685  0.59087  1.0000
  C   C13       1.0  0.84020  0.39461  0.44380  1.0000
  C   C14       1.0  0.15979  0.60539  0.55620  1.0000
  C   C15       1.0  0.65034  0.17720  0.43922  1.0000
  C   C16       1.0  0.34965  0.82280  0.56078  1.0000
  C   C17       1.0  0.49034  0.21964  0.41056  1.0000
  C   C18       1.0  0.50965  0.78036  0.58944  1.0000
  C   C19       1.0  0.43276  0.17586  0.34080  1.0000
  C   C20       1.0  0.56724  0.82414  0.65920  1.0000
  C   C21       1.0  0.75291  0.09142  0.40018  1.0000
  C   C22       1.0  0.24709  0.90858  0.59982  1.0000
  C   C23       1.0  0.69327  0.04714  0.33087  1.0000
  C   C24       1.0  0.30673  0.95287  0.66913  1.0000
  C   C25       1.0  0.53397  0.09000  0.30067  1.0000
  C   C26       1.0  0.46603  0.91001  0.69933  1.0000
  C   C27       1.0  0.46782  0.04347  0.22644  1.0000
  C   C28       1.0  0.53218  0.95653  0.77356  1.0000
  C   C29       1.0  0.82934  0.33636  0.09800  1.0000
  C   C30       1.0  0.17066  0.66364  0.90200  1.0000
  C   C31       1.0  0.75090  0.45664  0.11086  1.0000
  C   C32       1.0  0.24911  0.54336  0.88914  1.0000
  C   C33       1.0  0.57288  0.47379  0.10734  1.0000
  C   C34       1.0  0.42712  0.52621  0.89266  1.0000
  C   C35       1.0  0.50224  0.59522  0.10738  1.0000
  C   C36       1.0  0.49776  0.40478  0.89263  1.0000
  C   C37       1.0  0.84762  0.56002  0.12145  1.0000
  C   C38       1.0  0.15238  0.43998  0.87855  1.0000
  C   C39       1.0  0.76719  0.67911  0.12059  1.0000
  C   C40       1.0  0.23281  0.32089  0.87941  1.0000
  S   S1        1.0  0.72501  0.23965  0.52530  1.0000
  S   S2        1.0  0.27501  0.76034  0.47470  1.0000
  N   N1        1.0  0.99487  0.17726  0.09650  1.0000
  N   N2        1.0  0.00514  0.82274  0.90350  1.0000
  N   N3        1.0  0.86171  0.16481  0.05251  1.0000
  N   N4        1.0  0.13829  0.83519  0.94749  1.0000
  N   N5        1.0  0.75561  0.26377  0.05278  1.0000
  N   N6        1.0  0.24439  0.73623  0.94722  1.0000
  N   N7        1.0  0.97950  0.28451  0.12532  1.0000
  N   N8        1.0  0.02050  0.71549  0.87468  1.0000
  N   N9        1.0  0.59854  0.69793  0.11131  1.0000
  N   N10       1.0  0.40146  0.30207  0.88869  1.0000
  O   O1        1.0  0.31956  0.99739  0.01666  1.0000
  O   O2        1.0  0.68044  0.00261  0.98334  1.0000
  O   O3        1.0  0.02991  0.86965  0.21376  1.0000
  O   O4        1.0  0.97009  0.13035  0.78624  1.0000
  O   O5        1.0  0.27420  0.75124  0.20693  1.0000
  O   O6        1.0  0.72579  0.24876  0.79307  1.0000
  O   O7        1.0  0.55271  0.95539  0.19869  1.0000
  O   O8        1.0  0.44729  0.04461  0.80130  1.0000
  O   O9        1.0  0.32973  0.09780  0.19665  1.0000
  O   O10       1.0  0.67026  0.90221  0.80335  1.0000
  O   O11       1.0  0.84941  0.14694  0.57406  1.0000
  O   O12       1.0  0.15058  0.85307  0.42593  1.0000
  O   O13       1.0  0.57371  0.27431  0.58401  1.0000
  O   O14       1.0  0.42628  0.72569  0.41599  1.0000
