data_image0
_chemical_formula_structural       Cd2H40C44N12O16
_chemical_formula_sum              "Cd2 H40 C44 N12 O16"
_cell_length_a       9.62832
_cell_length_b       12.5522
_cell_length_c       13.703
_cell_angle_alpha    73.8195
_cell_angle_beta     74.3539
_cell_angle_gamma    70.4454

_space_group_name_H-M_alt    "P 1"
_space_group_IT_number       1

loop_
  _space_group_symop_operation_xyz
  'x, y, z'

loop_
  _atom_site_type_symbol
  _atom_site_label
  _atom_site_symmetry_multiplicity
  _atom_site_fract_x
  _atom_site_fract_y
  _atom_site_fract_z
  _atom_site_occupancy
  Cd  Cd1       1.0  0.66107  0.32475  0.57464  1.0000
  Cd  Cd2       1.0  0.33893  0.67525  0.42536  1.0000
  H   H1        1.0  0.31236  0.37610  0.23865  1.0000
  H   H2        1.0  0.68764  0.62390  0.76135  1.0000
  H   H3        1.0  0.91348  0.45449  0.47705  1.0000
  H   H4        1.0  0.08653  0.54551  0.52295  1.0000
  H   H5        1.0  0.45934  0.38226  0.78693  1.0000
  H   H6        1.0  0.54066  0.61774  0.21307  1.0000
  H   H7        1.0  0.12237  0.46617  0.32479  1.0000
  H   H8        1.0  0.87763  0.53383  0.67521  1.0000
  H   H9        1.0  0.37606  0.26442  0.56050  1.0000
  H   H10       1.0  0.62394  0.73558  0.43950  1.0000
  H   H11       1.0  0.72570  0.29170  0.34354  1.0000
  H   H12       1.0  0.27430  0.70830  0.65646  1.0000
  H   H13       1.0  0.93372  0.29092  0.18538  1.0000
  H   H14       1.0  0.06628  0.70908  0.81462  1.0000
  H   H15       1.0  0.12034  0.25316  0.66282  1.0000
  H   H16       1.0  0.87966  0.74684  0.33718  1.0000
  H   H17       1.0  0.65725  0.23542  0.88990  1.0000
  H   H18       1.0  0.34276  0.76458  0.11010  1.0000
  H   H19       1.0  0.51865  0.44766  0.17487  1.0000
  H   H20       1.0  0.48135  0.55234  0.82513  1.0000
  H   H21       1.0  0.77025  0.42748  0.05942  1.0000
  H   H22       1.0  0.22975  0.57252  0.94058  1.0000
  H   H23       1.0  0.20708  0.37914  0.89825  1.0000
  H   H24       1.0  0.79291  0.62086  0.10175  1.0000
  H   H25       1.0  0.40514  0.25701  0.00505  1.0000
  H   H26       1.0  0.59486  0.74299  0.99495  1.0000
  H   H27       1.0  0.65751  0.09200  0.37233  1.0000
  H   H28       1.0  0.34249  0.90800  0.62767  1.0000
  H   H29       1.0  0.61759  0.95592  0.39894  1.0000
  H   H30       1.0  0.38241  0.04408  0.60106  1.0000
  H   H31       1.0  0.80747  0.96321  0.35451  1.0000
  H   H32       1.0  0.19253  0.03679  0.64549  1.0000
  H   H33       1.0  0.76068  0.85962  0.64509  1.0000
  H   H34       1.0  0.23932  0.14038  0.35491  1.0000
  H   H35       1.0  0.86309  0.81343  0.52684  1.0000
  H   H36       1.0  0.13691  0.18657  0.47316  1.0000
  H   H37       1.0  0.66875  0.81814  0.57075  1.0000
  H   H38       1.0  0.33125  0.18186  0.42925  1.0000
  H   H39       1.0  0.70786  0.04253  0.63417  1.0000
  H   H40       1.0  0.29214  0.95747  0.36583  1.0000
  C   C1        1.0  0.92169  0.41949  0.41056  1.0000
  C   C2        1.0  0.07830  0.58051  0.58944  1.0000
  C   C3        1.0  0.04833  0.37337  0.24443  1.0000
  C   C4        1.0  0.95167  0.62663  0.75556  1.0000
  C   C5        1.0  0.37988  0.35575  0.76179  1.0000
  C   C6        1.0  0.62012  0.64425  0.23821  1.0000
  C   C7        1.0  0.04013  0.42322  0.32614  1.0000
  C   C8        1.0  0.95987  0.57678  0.67386  1.0000
  C   C9        1.0  0.33373  0.28830  0.63596  1.0000
  C   C10       1.0  0.66627  0.71170  0.36404  1.0000
  C   C11       1.0  0.81674  0.32849  0.33587  1.0000
  C   C12       1.0  0.18326  0.67151  0.66413  1.0000
  C   C13       1.0  0.14213  0.31685  0.78872  1.0000
  C   C14       1.0  0.85787  0.68315  0.21128  1.0000
  C   C15       1.0  0.44634  0.35327  0.09768  1.0000
  C   C16       1.0  0.55366  0.64674  0.90233  1.0000
  C   C17       1.0  0.99801  0.31713  0.84825  1.0000
  C   C18       1.0  0.00199  0.68287  0.15175  1.0000
  C   C19       1.0  0.93183  0.32792  0.24899  1.0000
  C   C20       1.0  0.06817  0.67208  0.75101  1.0000
  C   C21       1.0  0.19251  0.28246  0.69247  1.0000
  C   C22       1.0  0.80749  0.71754  0.30753  1.0000
  C   C23       1.0  0.62597  0.28245  0.95218  1.0000
  C   C24       1.0  0.37403  0.71755  0.04782  1.0000
  C   C25       1.0  0.73063  0.32998  0.96700  1.0000
  C   C26       1.0  0.26937  0.67003  0.03300  1.0000
  C   C27       1.0  0.55075  0.39992  0.11327  1.0000
  C   C28       1.0  0.44925  0.60008  0.88673  1.0000
  C   C29       1.0  0.69073  0.38879  0.04903  1.0000
  C   C30       1.0  0.30927  0.61121  0.95097  1.0000
  C   C31       1.0  0.87319  0.32118  0.90183  1.0000
  C   C32       1.0  0.12681  0.67882  0.09817  1.0000
  C   C33       1.0  0.24028  0.35392  0.82349  1.0000
  C   C34       1.0  0.75972  0.64607  0.17652  1.0000
  C   C35       1.0  0.48522  0.29398  0.01664  1.0000
  C   C36       1.0  0.51478  0.70602  0.98336  1.0000
  C   C37       1.0  0.17449  0.36572  0.15124  1.0000
  C   C38       1.0  0.82551  0.63428  0.84876  1.0000
  C   C39       1.0  0.69820  0.99896  0.40208  1.0000
  C   C40       1.0  0.30180  0.00104  0.59792  1.0000
  C   C41       1.0  0.75369  0.86081  0.56619  1.0000
  C   C42       1.0  0.24631  0.13919  0.43381  1.0000
  C   C43       1.0  0.69279  0.06786  0.55289  1.0000
  C   C44       1.0  0.30721  0.93213  0.44711  1.0000
  N   N1        1.0  0.42649  0.32455  0.66923  1.0000
  N   N2        1.0  0.57351  0.67545  0.33077  1.0000
  N   N3        1.0  0.30823  0.36588  0.16762  1.0000
  N   N4        1.0  0.69177  0.63412  0.83238  1.0000
  N   N5        1.0  0.81326  0.37140  0.41670  1.0000
  N   N6        1.0  0.18674  0.62860  0.58330  1.0000
  N   N7        1.0  0.61587  0.55371  0.62232  1.0000
  N   N8        1.0  0.38413  0.44629  0.37768  1.0000
  N   N9        1.0  0.71259  0.97981  0.50932  1.0000
  N   N10       1.0  0.28742  0.02019  0.49068  1.0000
  N   N11       1.0  0.87540  0.15770  0.69930  1.0000
  N   N12       1.0  0.12460  0.84230  0.30070  1.0000
  O   O1        1.0  0.15404  0.35710  0.06864  1.0000
  O   O2        1.0  0.84596  0.64290  0.93136  1.0000
  O   O3        1.0  0.54459  0.54913  0.55913  1.0000
  O   O4        1.0  0.45541  0.45087  0.44087  1.0000
  O   O5        1.0  0.65844  0.17208  0.50716  1.0000
  O   O6        1.0  0.34156  0.82792  0.49284  1.0000
  O   O7        1.0  0.92411  0.21865  0.61213  1.0000
  O   O8        1.0  0.07590  0.78135  0.38787  1.0000
  O   O9        1.0  0.73213  0.17594  0.72800  1.0000
  O   O10       1.0  0.26786  0.82406  0.27201  1.0000
  O   O11       1.0  0.96284  0.08411  0.75306  1.0000
  O   O12       1.0  0.03716  0.91589  0.24694  1.0000
  O   O13       1.0  0.60327  0.64812  0.64392  1.0000
  O   O14       1.0  0.39673  0.35188  0.35608  1.0000
  O   O15       1.0  0.70231  0.45949  0.66476  1.0000
  O   O16       1.0  0.29769  0.54051  0.33524  1.0000
