data_image0
_chemical_formula_structural       Zn2H40C44N12O16
_chemical_formula_sum              "Zn2 H40 C44 N12 O16"
_cell_length_a       9.97012
_cell_length_b       11.3063
_cell_length_c       13.978
_cell_angle_alpha    73.6349
_cell_angle_beta     69.7009
_cell_angle_gamma    67.9729

_space_group_name_H-M_alt    "P 1"
_space_group_IT_number       1

loop_
  _space_group_symop_operation_xyz
  'x, y, z'

loop_
  _atom_site_type_symbol
  _atom_site_label
  _atom_site_symmetry_multiplicity
  _atom_site_fract_x
  _atom_site_fract_y
  _atom_site_fract_z
  _atom_site_occupancy
  Zn  Zn1       1.0  0.34840  0.79707  0.43654  1.0000
  Zn  Zn2       1.0  0.65160  0.20293  0.56347  1.0000
  H   H1        1.0  0.43896  0.06536  0.78098  1.0000
  H   H2        1.0  0.56104  0.93464  0.21902  1.0000
  H   H3        1.0  0.12186  0.03162  0.51736  1.0000
  H   H4        1.0  0.87814  0.96838  0.48264  1.0000
  H   H5        1.0  0.49857  0.77340  0.60776  1.0000
  H   H6        1.0  0.50143  0.22660  0.39224  1.0000
  H   H7        1.0  0.06702  0.16618  0.64966  1.0000
  H   H8        1.0  0.93298  0.83382  0.35034  1.0000
  H   H9        1.0  0.45495  0.89108  0.74494  1.0000
  H   H10       1.0  0.54505  0.10892  0.25506  1.0000
  H   H11       1.0  0.10313  0.31113  0.90728  1.0000
  H   H12       1.0  0.89688  0.68888  0.09272  1.0000
  H   H13       1.0  0.56095  0.07177  0.88980  1.0000
  H   H14       1.0  0.43905  0.92822  0.11020  1.0000
  H   H15       1.0  0.12266  0.43800  0.01842  1.0000
  H   H16       1.0  0.87736  0.56201  0.98157  1.0000
  H   H17       1.0  0.57946  0.19586  0.00235  1.0000
  H   H18       1.0  0.42056  0.80413  0.99765  1.0000
  H   H19       1.0  0.14575  0.68483  0.19620  1.0000
  H   H20       1.0  0.85425  0.31516  0.80380  1.0000
  H   H21       1.0  0.59580  0.43813  0.20790  1.0000
  H   H22       1.0  0.40420  0.56186  0.79211  1.0000
  H   H23       1.0  0.15948  0.81112  0.30985  1.0000
  H   H24       1.0  0.84051  0.18888  0.69015  1.0000
  H   H25       1.0  0.58877  0.57749  0.32024  1.0000
  H   H26       1.0  0.41122  0.42251  0.67977  1.0000
  H   H27       1.0  0.21904  0.64988  0.63357  1.0000
  H   H28       1.0  0.78096  0.35011  0.36643  1.0000
  H   H29       1.0  0.12565  0.51656  0.75603  1.0000
  H   H30       1.0  0.87435  0.48344  0.24397  1.0000
  H   H31       1.0  0.05080  0.43403  0.70586  1.0000
  H   H32       1.0  0.94920  0.56597  0.29414  1.0000
  H   H33       1.0  0.92677  0.54714  0.79043  1.0000
  H   H34       1.0  0.07322  0.45286  0.20957  1.0000
  H   H35       1.0  0.90226  0.73981  0.53058  1.0000
  H   H36       1.0  0.09774  0.26019  0.46942  1.0000
  H   H37       1.0  0.78948  0.69154  0.65679  1.0000
  H   H38       1.0  0.21051  0.30846  0.34321  1.0000
  H   H39       1.0  0.89834  0.57643  0.57191  1.0000
  H   H40       1.0  0.10166  0.42357  0.42809  1.0000
  C   C1        1.0  0.19443  0.00560  0.56798  1.0000
  C   C2        1.0  0.80557  0.99440  0.43202  1.0000
  C   C3        1.0  0.40371  0.86102  0.61883  1.0000
  C   C4        1.0  0.59629  0.13898  0.38117  1.0000
  C   C5        1.0  0.16303  0.07893  0.64219  1.0000
  C   C6        1.0  0.83697  0.92107  0.35781  1.0000
  C   C7        1.0  0.37826  0.92808  0.69613  1.0000
  C   C8        1.0  0.62174  0.07192  0.30387  1.0000
  C   C9        1.0  0.25604  0.04124  0.70762  1.0000
  C   C10       1.0  0.74396  0.95876  0.29238  1.0000
  C   C11       1.0  0.21592  0.12403  0.78680  1.0000
  C   C12       1.0  0.78408  0.87597  0.21320  1.0000
  C   C13       1.0  0.33172  0.18545  0.88901  1.0000
  C   C14       1.0  0.66828  0.81455  0.11099  1.0000
  C   C15       1.0  0.20698  0.28790  0.92743  1.0000
  C   C16       1.0  0.79303  0.71210  0.07258  1.0000
  C   C17       1.0  0.46533  0.15286  0.91764  1.0000
  C   C18       1.0  0.53468  0.84713  0.08236  1.0000
  C   C19       1.0  0.21868  0.35762  0.98986  1.0000
  C   C20       1.0  0.78134  0.64238  0.01014  1.0000
  C   C21       1.0  0.47553  0.22205  0.98089  1.0000
  C   C22       1.0  0.52447  0.77795  0.01911  1.0000
  C   C23       1.0  0.35264  0.32734  0.01733  1.0000
  C   C24       1.0  0.64737  0.67266  0.98267  1.0000
  C   C25       1.0  0.36210  0.40131  0.07945  1.0000
  C   C26       1.0  0.63790  0.59870  0.92055  1.0000
  C   C27       1.0  0.36650  0.46840  0.13255  1.0000
  C   C28       1.0  0.63350  0.53159  0.86745  1.0000
  C   C29       1.0  0.36955  0.54636  0.19422  1.0000
  C   C30       1.0  0.63045  0.45364  0.80578  1.0000
  C   C31       1.0  0.24588  0.65529  0.22287  1.0000
  C   C32       1.0  0.75412  0.34470  0.77713  1.0000
  C   C33       1.0  0.49614  0.51937  0.22934  1.0000
  C   C34       1.0  0.50386  0.48062  0.77066  1.0000
  C   C35       1.0  0.25243  0.72640  0.28628  1.0000
  C   C36       1.0  0.74757  0.27360  0.71372  1.0000
  C   C37       1.0  0.49256  0.59652  0.29214  1.0000
  C   C38       1.0  0.50744  0.40348  0.70786  1.0000
  C   C39       1.0  0.12984  0.68478  0.59364  1.0000
  C   C40       1.0  0.87016  0.31522  0.40636  1.0000
  C   C41       1.0  0.03145  0.52625  0.72797  1.0000
  C   C42       1.0  0.96855  0.47375  0.27203  1.0000
  C   C43       1.0  0.89536  0.66133  0.59698  1.0000
  C   C44       1.0  0.10464  0.33867  0.40301  1.0000
  N   N1        1.0  0.31465  0.89856  0.55516  1.0000
  N   N2        1.0  0.68535  0.10145  0.44484  1.0000
  N   N3        1.0  0.33287  0.11431  0.82140  1.0000
  N   N4        1.0  0.66713  0.88569  0.17860  1.0000
  N   N5        1.0  0.37232  0.69739  0.32232  1.0000
  N   N6        1.0  0.62767  0.30261  0.67768  1.0000
  N   N7        1.0  0.02073  0.63058  0.63942  1.0000
  N   N8        1.0  0.97926  0.36942  0.36058  1.0000
  N   N9        1.0  0.25878  0.04470  0.29416  1.0000
  N   N10       1.0  0.74122  0.95530  0.70584  1.0000
  N   N11       1.0  0.60716  0.63137  0.47900  1.0000
  N   N12       1.0  0.39283  0.36863  0.52101  1.0000
  O   O1        1.0  0.08496  0.19433  0.81611  1.0000
  O   O2        1.0  0.91504  0.80567  0.18389  1.0000
  O   O3        1.0  0.13572  0.76838  0.51186  1.0000
  O   O4        1.0  0.86428  0.23163  0.48815  1.0000
  O   O5        1.0  0.37823  0.95899  0.32142  1.0000
  O   O6        1.0  0.62177  0.04101  0.67858  1.0000
  O   O7        1.0  0.13337  0.02836  0.34088  1.0000
  O   O8        1.0  0.86663  0.97164  0.65911  1.0000
  O   O9        1.0  0.27908  0.13703  0.22314  1.0000
  O   O10       1.0  0.72092  0.86297  0.77686  1.0000
  O   O11       1.0  0.47293  0.62441  0.52628  1.0000
  O   O12       1.0  0.52706  0.37559  0.47373  1.0000
  O   O13       1.0  0.61892  0.72630  0.40422  1.0000
  O   O14       1.0  0.38108  0.27370  0.59579  1.0000
  O   O15       1.0  0.71771  0.54960  0.50595  1.0000
  O   O16       1.0  0.28229  0.45040  0.49405  1.0000
