data_image0
_chemical_formula_structural       Tb2H46C60N2O18
_chemical_formula_sum              "Tb2 H46 C60 N2 O18"
_cell_length_a       9.82458
_cell_length_b       12.1076
_cell_length_c       14.6279
_cell_angle_alpha    109.754
_cell_angle_beta     103.62
_cell_angle_gamma    100.131

_space_group_name_H-M_alt    "P 1"
_space_group_IT_number       1

loop_
  _space_group_symop_operation_xyz
  'x, y, z'

loop_
  _atom_site_type_symbol
  _atom_site_label
  _atom_site_symmetry_multiplicity
  _atom_site_fract_x
  _atom_site_fract_y
  _atom_site_fract_z
  _atom_site_occupancy
  Tb  Tb1       1.0  0.75820  0.02137  0.99728  1.0000
  Tb  Tb2       1.0  0.24180  0.97863  0.00272  1.0000
  H   H1        1.0  0.94534  0.20909  0.97526  1.0000
  H   H2        1.0  0.05466  0.79091  0.02474  1.0000
  H   H3        1.0  0.05584  0.19808  0.06572  1.0000
  H   H4        1.0  0.94416  0.80192  0.93428  1.0000
  H   H5        1.0  0.55973  0.91458  0.08338  1.0000
  H   H6        1.0  0.44027  0.08542  0.91662  1.0000
  H   H7        1.0  0.61599  0.80979  0.01725  1.0000
  H   H8        1.0  0.38401  0.19021  0.98275  1.0000
  H   H9        1.0  0.42262  0.11580  0.27557  1.0000
  H   H10       1.0  0.57738  0.88420  0.72443  1.0000
  H   H11       1.0  0.80365  0.36266  0.28544  1.0000
  H   H12       1.0  0.19635  0.63734  0.71456  1.0000
  H   H13       1.0  0.92545  0.56085  0.43779  1.0000
  H   H14       1.0  0.07455  0.43915  0.56221  1.0000
  H   H15       1.0  0.94581  0.69827  0.61238  1.0000
  H   H16       1.0  0.05420  0.30173  0.38762  1.0000
  H   H17       1.0  0.85401  0.74433  0.76115  1.0000
  H   H18       1.0  0.14599  0.25567  0.23885  1.0000
  H   H19       1.0  0.47901  0.49426  0.75416  1.0000
  H   H20       1.0  0.52099  0.50574  0.24584  1.0000
  H   H21       1.0  0.35829  0.29523  0.60272  1.0000
  H   H22       1.0  0.64171  0.70477  0.39728  1.0000
  H   H23       1.0  0.33876  0.15757  0.42869  1.0000
  H   H24       1.0  0.66124  0.84243  0.57131  1.0000
  H   H25       1.0  0.86403  0.08174  0.25591  1.0000
  H   H26       1.0  0.13597  0.91826  0.74409  1.0000
  H   H27       1.0  0.21670  0.91928  0.29632  1.0000
  H   H28       1.0  0.78330  0.08072  0.70368  1.0000
  H   H29       1.0  0.73923  0.13327  0.38807  1.0000
  H   H30       1.0  0.26077  0.86673  0.61193  1.0000
  H   H31       1.0  0.29101  0.86642  0.44915  1.0000
  H   H32       1.0  0.70899  0.13358  0.55085  1.0000
  H   H33       1.0  0.72824  0.33677  0.05680  1.0000
  H   H34       1.0  0.27176  0.66323  0.94320  1.0000
  H   H35       1.0  0.70581  0.50508  0.03936  1.0000
  H   H36       1.0  0.29419  0.49492  0.96064  1.0000
  H   H37       1.0  0.56409  0.49255  0.93114  1.0000
  H   H38       1.0  0.43591  0.50745  0.06886  1.0000
  H   H39       1.0  0.74524  0.51255  0.92765  1.0000
  H   H40       1.0  0.25476  0.48745  0.07235  1.0000
  H   H41       1.0  0.56958  0.17398  0.78473  1.0000
  H   H42       1.0  0.43042  0.82602  0.21526  1.0000
  H   H43       1.0  0.64395  0.30697  0.76401  1.0000
  H   H44       1.0  0.35605  0.69303  0.23599  1.0000
  H   H45       1.0  0.46722  0.28118  0.77808  1.0000
  H   H46       1.0  0.53278  0.71882  0.22192  1.0000
  C   C1        1.0  0.51187  0.19972  0.31816  1.0000
  C   C2        1.0  0.48813  0.80028  0.68184  1.0000
  C   C3        1.0  0.61266  0.23181  0.27155  1.0000
  C   C4        1.0  0.38734  0.76819  0.72845  1.0000
  C   C5        1.0  0.72625  0.34032  0.32344  1.0000
  C   C6        1.0  0.27375  0.65968  0.67656  1.0000
  C   C7        1.0  0.85010  0.53520  0.47603  1.0000
  C   C8        1.0  0.14991  0.46480  0.52397  1.0000
  C   C9        1.0  0.86187  0.61085  0.57270  1.0000
  C   C10       1.0  0.13813  0.38915  0.42730  1.0000
  C   C11       1.0  0.77020  0.65704  0.72178  1.0000
  C   C12       1.0  0.22980  0.34296  0.27822  1.0000
  C   C13       1.0  0.66846  0.62631  0.76839  1.0000
  C   C14       1.0  0.33154  0.37369  0.23161  1.0000
  C   C15       1.0  0.55923  0.51511  0.71772  1.0000
  C   C16       1.0  0.44077  0.48489  0.28228  1.0000
  C   C17       1.0  0.43715  0.31908  0.56613  1.0000
  C   C18       1.0  0.56285  0.68092  0.43387  1.0000
  C   C19       1.0  0.42596  0.24291  0.46971  1.0000
  C   C20       1.0  0.57404  0.75709  0.53029  1.0000
  C   C21       1.0  0.52523  0.27424  0.41877  1.0000
  C   C22       1.0  0.47477  0.72576  0.58123  1.0000
  C   C23       1.0  0.63953  0.38627  0.47156  1.0000
  C   C24       1.0  0.36047  0.61373  0.52844  1.0000
  C   C25       1.0  0.73985  0.42018  0.42239  1.0000
  C   C26       1.0  0.26015  0.57982  0.57761  1.0000
  C   C27       1.0  0.76330  0.57886  0.62401  1.0000
  C   C28       1.0  0.23670  0.42114  0.37599  1.0000
  C   C29       1.0  0.65140  0.46527  0.57207  1.0000
  C   C30       1.0  0.34860  0.53473  0.42793  1.0000
  C   C31       1.0  0.54896  0.43302  0.62031  1.0000
  C   C32       1.0  0.45104  0.56698  0.37969  1.0000
  C   C33       1.0  0.60013  0.14738  0.16639  1.0000
  C   C34       1.0  0.39987  0.85262  0.83361  1.0000
  C   C35       1.0  0.67129  0.71475  0.87020  1.0000
  C   C36       1.0  0.32871  0.28525  0.12981  1.0000
  C   C37       1.0  0.04219  0.00073  0.26777  1.0000
  C   C38       1.0  0.95781  0.99927  0.73223  1.0000
  C   C39       1.0  0.93432  0.04680  0.30206  1.0000
  C   C40       1.0  0.06568  0.95320  0.69794  1.0000
  C   C41       1.0  0.91660  0.04828  0.39479  1.0000
  C   C42       1.0  0.08340  0.95171  0.60521  1.0000
  C   C43       1.0  0.00854  0.99998  0.45310  1.0000
  C   C44       1.0  0.99145  0.00002  0.54690  1.0000
  C   C45       1.0  0.11761  0.95153  0.41700  1.0000
  C   C46       1.0  0.88239  0.04847  0.58300  1.0000
  C   C47       1.0  0.13305  0.95395  0.32480  1.0000
  C   C48       1.0  0.86695  0.04605  0.67519  1.0000
  C   C49       1.0  0.06092  0.00049  0.16922  1.0000
  C   C50       1.0  0.93908  0.99951  0.83078  1.0000
  C   C51       1.0  0.80857  0.09657  0.43298  1.0000
  C   C52       1.0  0.19143  0.90343  0.56702  1.0000
  C   C53       1.0  0.20795  0.90333  0.47691  1.0000
  C   C54       1.0  0.79205  0.09667  0.52309  1.0000
  C   C55       1.0  0.67959  0.27862  0.97429  1.0000
  C   C56       1.0  0.32041  0.72138  0.02571  1.0000
  C   C57       1.0  0.66550  0.46895  0.95549  1.0000
  C   C58       1.0  0.33450  0.53105  0.04451  1.0000
  C   C59       1.0  0.57694  0.27075  0.80348  1.0000
  C   C60       1.0  0.42306  0.72925  0.19652  1.0000
  N   N1        1.0  0.64174  0.33741  0.91399  1.0000
  N   N2        1.0  0.35826  0.66259  0.08601  1.0000
  O   O1        1.0  0.95749  0.21138  0.04401  1.0000
  O   O2        1.0  0.04251  0.78862  0.95599  1.0000
  O   O3        1.0  0.64916  0.89412  0.07385  1.0000
  O   O4        1.0  0.35084  0.10588  0.92615  1.0000
  O   O5        1.0  0.71335  0.15590  0.13832  1.0000
  O   O6        1.0  0.28665  0.84410  0.86168  1.0000
  O   O7        1.0  0.47826  0.06778  0.11141  1.0000
  O   O8        1.0  0.52174  0.93221  0.88859  1.0000
  O   O9        1.0  0.77203  0.81791  0.91177  1.0000
  O   O10       1.0  0.22797  0.18209  0.08823  1.0000
  O   O11       1.0  0.57700  0.68651  0.91013  1.0000
  O   O12       1.0  0.42300  0.31349  0.08988  1.0000
  O   O13       1.0  0.96264  0.02218  0.10923  1.0000
  O   O14       1.0  0.03736  0.97782  0.89077  1.0000
  O   O15       1.0  0.17493  0.97731  0.14960  1.0000
  O   O16       1.0  0.82507  0.02269  0.85040  1.0000
  O   O17       1.0  0.66121  0.16547  0.94038  1.0000
  O   O18       1.0  0.33879  0.83453  0.05962  1.0000
