data_image0
_chemical_formula_structural       Zn4H24C28O16
_chemical_formula_sum              "Zn4 H24 C28 O16"
_cell_length_a       7.36312
_cell_length_b       7.35442
_cell_length_c       13.6789
_cell_angle_alpha    105.615
_cell_angle_beta     105.657
_cell_angle_gamma    89.9801

_space_group_name_H-M_alt    "P 1"
_space_group_IT_number       1

loop_
  _space_group_symop_operation_xyz
  'x, y, z'

loop_
  _atom_site_type_symbol
  _atom_site_label
  _atom_site_symmetry_multiplicity
  _atom_site_fract_x
  _atom_site_fract_y
  _atom_site_fract_z
  _atom_site_occupancy
  Zn  Zn1       1.0  0.03024  0.28011  0.06029  1.0000
  Zn  Zn2       1.0  0.78005  0.53020  0.56018  1.0000
  Zn  Zn3       1.0  0.96976  0.71990  0.93971  1.0000
  Zn  Zn4       1.0  0.21995  0.46981  0.43982  1.0000
  H   H1        1.0  0.68772  0.14237  0.70039  1.0000
  H   H2        1.0  0.55787  0.18846  0.20001  1.0000
  H   H3        1.0  0.64256  0.51178  0.20012  1.0000
  H   H4        1.0  0.01195  0.05764  0.69993  1.0000
  H   H5        1.0  0.31229  0.85764  0.29962  1.0000
  H   H6        1.0  0.44213  0.81154  0.79999  1.0000
  H   H7        1.0  0.35744  0.48822  0.79988  1.0000
  H   H8        1.0  0.98805  0.94236  0.30007  1.0000
  H   H9        1.0  0.71575  0.02146  0.79926  1.0000
  H   H10       1.0  0.77754  0.21645  0.29903  1.0000
  H   H11       1.0  0.52158  0.58299  0.29888  1.0000
  H   H12       1.0  0.08298  0.27742  0.79887  1.0000
  H   H13       1.0  0.28424  0.97854  0.20074  1.0000
  H   H14       1.0  0.22246  0.78355  0.70097  1.0000
  H   H15       1.0  0.47842  0.41701  0.70112  1.0000
  H   H16       1.0  0.91701  0.72258  0.20112  1.0000
  H   H17       1.0  0.39666  0.31580  0.94142  1.0000
  H   H18       1.0  0.62577  0.89738  0.44135  1.0000
  H   H19       1.0  0.81589  0.04462  0.44140  1.0000
  H   H20       1.0  0.54404  0.12564  0.94157  1.0000
  H   H21       1.0  0.60333  0.68420  0.05858  1.0000
  H   H22       1.0  0.37423  0.10262  0.55864  1.0000
  H   H23       1.0  0.18411  0.95538  0.55861  1.0000
  H   H24       1.0  0.45596  0.87435  0.05843  1.0000
  C   C1        1.0  0.71995  0.39545  0.88864  1.0000
  C   C2        1.0  0.49273  0.22038  0.38822  1.0000
  C   C3        1.0  0.89550  0.66813  0.38843  1.0000
  C   C4        1.0  0.16792  0.99269  0.88823  1.0000
  C   C5        1.0  0.28005  0.60453  0.11137  1.0000
  C   C6        1.0  0.50727  0.77963  0.61179  1.0000
  C   C7        1.0  0.10450  0.33186  0.61157  1.0000
  C   C8        1.0  0.83208  0.00733  0.11177  1.0000
  C   C9        1.0  0.54518  0.26463  0.82056  1.0000
  C   C10       1.0  0.55589  0.04573  0.32024  1.0000
  C   C11       1.0  0.76466  0.77494  0.32039  1.0000
  C   C12       1.0  0.27471  0.05557  0.82034  1.0000
  C   C13       1.0  0.45482  0.73537  0.17944  1.0000
  C   C14       1.0  0.44411  0.95426  0.67977  1.0000
  C   C15       1.0  0.23534  0.22506  0.67960  1.0000
  C   C16       1.0  0.72529  0.94443  0.17966  1.0000
  C   C17       1.0  0.61457  0.09307  0.74997  1.0000
  C   C18       1.0  0.65668  0.11522  0.24969  1.0000
  C   C19       1.0  0.59329  0.63475  0.24966  1.0000
  C   C20       1.0  0.13481  0.15650  0.74963  1.0000
  C   C21       1.0  0.38543  0.90694  0.25003  1.0000
  C   C22       1.0  0.34331  0.88479  0.75031  1.0000
  C   C23       1.0  0.40671  0.36525  0.75034  1.0000
  C   C24       1.0  0.86519  0.84350  0.25037  1.0000
  C   C25       1.0  0.44476  0.19504  0.89018  1.0000
  C   C26       1.0  0.69515  0.94527  0.39005  1.0000
  C   C27       1.0  0.55524  0.80496  0.10982  1.0000
  C   C28       1.0  0.30486  0.05472  0.60995  1.0000
  O   O1        1.0  0.80521  0.37186  0.97808  1.0000
  O   O2        1.0  0.60550  0.30567  0.47775  1.0000
  O   O3        1.0  0.87209  0.67236  0.47788  1.0000
  O   O4        1.0  0.17211  0.10585  0.97764  1.0000
  O   O5        1.0  0.19477  0.62815  0.02192  1.0000
  O   O6        1.0  0.39451  0.69432  0.52225  1.0000
  O   O7        1.0  0.12792  0.32765  0.52212  1.0000
  O   O8        1.0  0.82788  0.89414  0.02235  1.0000
  O   O9        1.0  0.77068  0.52212  0.85143  1.0000
  O   O10       1.0  0.32877  0.27089  0.35107  1.0000
  O   O11       1.0  0.02220  0.58024  0.35132  1.0000
  O   O12       1.0  0.07988  0.82876  0.85103  1.0000
  O   O13       1.0  0.22933  0.47788  0.14856  1.0000
  O   O14       1.0  0.67125  0.72912  0.64894  1.0000
  O   O15       1.0  0.97781  0.41975  0.64868  1.0000
  O   O16       1.0  0.92010  0.17123  0.14897  1.0000
