data_image0
_chemical_formula_structural       Zn4H32C48N16Cl8O4
_chemical_formula_sum              "Zn4 H32 C48 N16 Cl8 O4"
_cell_length_a       5.2783
_cell_length_b       12.3721
_cell_length_c       20.48
_cell_angle_alpha    90
_cell_angle_beta     90
_cell_angle_gamma    94.725

_space_group_name_H-M_alt    "P 1"
_space_group_IT_number       1

loop_
  _space_group_symop_operation_xyz
  'x, y, z'

loop_
  _atom_site_type_symbol
  _atom_site_label
  _atom_site_symmetry_multiplicity
  _atom_site_fract_x
  _atom_site_fract_y
  _atom_site_fract_z
  _atom_site_occupancy
  Zn  Zn1       1.0  0.89739  0.40687  0.66516  1.0000
  Zn  Zn2       1.0  0.10261  0.09313  0.16516  1.0000
  Zn  Zn3       1.0  0.10261  0.59312  0.33484  1.0000
  Zn  Zn4       1.0  0.89739  0.90687  0.83484  1.0000
  H   H1        1.0  0.81847  0.19319  0.61244  1.0000
  H   H2        1.0  0.18153  0.30681  0.11244  1.0000
  H   H3        1.0  0.18153  0.80681  0.38756  1.0000
  H   H4        1.0  0.81847  0.69319  0.88757  1.0000
  H   H5        1.0  0.53185  0.08253  0.53815  1.0000
  H   H6        1.0  0.46815  0.41747  0.03815  1.0000
  H   H7        1.0  0.46815  0.91746  0.46185  1.0000
  H   H8        1.0  0.53184  0.58254  0.96185  1.0000
  H   H9        1.0  0.16223  0.37375  0.49243  1.0000
  H   H10       1.0  0.83775  0.12624  0.99243  1.0000
  H   H11       1.0  0.83776  0.62624  0.50757  1.0000
  H   H12       1.0  0.16226  0.87377  0.00757  1.0000
  H   H13       1.0  0.46154  0.47196  0.57103  1.0000
  H   H14       1.0  0.53846  0.02804  0.07103  1.0000
  H   H15       1.0  0.53846  0.52803  0.42897  1.0000
  H   H16       1.0  0.46156  0.97197  0.92897  1.0000
  H   H17       1.0  0.43299  0.93261  0.22270  1.0000
  H   H18       1.0  0.56701  0.56739  0.72270  1.0000
  H   H19       1.0  0.56700  0.06739  0.77729  1.0000
  H   H20       1.0  0.43298  0.43261  0.27729  1.0000
  H   H21       1.0  0.76489  0.93087  0.30963  1.0000
  H   H22       1.0  0.23510  0.56913  0.80963  1.0000
  H   H23       1.0  0.23510  0.06912  0.69037  1.0000
  H   H24       1.0  0.76490  0.43088  0.19037  1.0000
  H   H25       1.0  0.56461  0.25035  0.36724  1.0000
  H   H26       1.0  0.43539  0.24965  0.86723  1.0000
  H   H27       1.0  0.43539  0.74965  0.63276  1.0000
  H   H28       1.0  0.56462  0.75036  0.13277  1.0000
  H   H29       1.0  0.23013  0.23495  0.27968  1.0000
  H   H30       1.0  0.76987  0.26505  0.77968  1.0000
  H   H31       1.0  0.76987  0.76505  0.72032  1.0000
  H   H32       1.0  0.23013  0.73495  0.22032  1.0000
  C   C1        1.0  0.66971  0.22967  0.58518  1.0000
  C   C2        1.0  0.33030  0.27032  0.08518  1.0000
  C   C3        1.0  0.33029  0.77032  0.41482  1.0000
  C   C4        1.0  0.66970  0.72968  0.91483  1.0000
  C   C5        1.0  0.50853  0.16854  0.54390  1.0000
  C   C6        1.0  0.49147  0.33146  0.04390  1.0000
  C   C7        1.0  0.49147  0.83146  0.45610  1.0000
  C   C8        1.0  0.50853  0.66855  0.95610  1.0000
  C   C9        1.0  0.32152  0.21900  0.50926  1.0000
  C   C10       1.0  0.67847  0.28099  0.00926  1.0000
  C   C11       1.0  0.67847  0.78099  0.49074  1.0000
  C   C12       1.0  0.32154  0.71902  0.99074  1.0000
  C   C13       1.0  0.30327  0.33042  0.51835  1.0000
  C   C14       1.0  0.69671  0.16958  0.01835  1.0000
  C   C15       1.0  0.69671  0.66957  0.48164  1.0000
  C   C16       1.0  0.30330  0.83044  0.98165  1.0000
  C   C17       1.0  0.47276  0.38576  0.56149  1.0000
  C   C18       1.0  0.52724  0.11423  0.06149  1.0000
  C   C19       1.0  0.52723  0.61423  0.43851  1.0000
  C   C20       1.0  0.47278  0.88578  0.93852  1.0000
  C   C21       1.0  0.16721  0.14942  0.46498  1.0000
  C   C22       1.0  0.83279  0.35057  0.96498  1.0000
  C   C23       1.0  0.83278  0.85057  0.53502  1.0000
  C   C24       1.0  0.16723  0.64944  0.03502  1.0000
  C   C25       1.0  0.89282  0.09160  0.39319  1.0000
  C   C26       1.0  0.10718  0.40839  0.89319  1.0000
  C   C27       1.0  0.10719  0.90839  0.60681  1.0000
  C   C28       1.0  0.89281  0.59162  0.10682  1.0000
  C   C29       1.0  0.46561  0.00014  0.25669  1.0000
  C   C30       1.0  0.53438  0.49986  0.75669  1.0000
  C   C31       1.0  0.53439  0.99986  0.74331  1.0000
  C   C32       1.0  0.46561  0.50014  0.24331  1.0000
  C   C33       1.0  0.65003  0.99974  0.30483  1.0000
  C   C34       1.0  0.34998  0.50025  0.80483  1.0000
  C   C35       1.0  0.34997  0.00026  0.69517  1.0000
  C   C36       1.0  0.65003  0.49974  0.19517  1.0000
  C   C37       1.0  0.68960  0.09082  0.34561  1.0000
  C   C38       1.0  0.31040  0.40917  0.84561  1.0000
  C   C39       1.0  0.31040  0.90917  0.65439  1.0000
  C   C40       1.0  0.68960  0.59083  0.15439  1.0000
  C   C41       1.0  0.53718  0.17740  0.33744  1.0000
  C   C42       1.0  0.46282  0.32260  0.83744  1.0000
  C   C43       1.0  0.46283  0.82260  0.66256  1.0000
  C   C44       1.0  0.53717  0.67740  0.16256  1.0000
  C   C45       1.0  0.35457  0.17018  0.28845  1.0000
  C   C46       1.0  0.64543  0.32982  0.78845  1.0000
  C   C47       1.0  0.64543  0.82982  0.71155  1.0000
  C   C48       1.0  0.35457  0.67018  0.21155  1.0000
  N   N1        1.0  0.65345  0.33687  0.59403  1.0000
  N   N2        1.0  0.34655  0.16313  0.09404  1.0000
  N   N3        1.0  0.34655  0.66313  0.40597  1.0000
  N   N4        1.0  0.65346  0.83687  0.90597  1.0000
  N   N5        1.0  0.20856  0.04840  0.45162  1.0000
  N   N6        1.0  0.79144  0.45160  0.95161  1.0000
  N   N7        1.0  0.79144  0.95160  0.54838  1.0000
  N   N8        1.0  0.20856  0.54841  0.04838  1.0000
  N   N9        1.0  0.03345  0.01126  0.40572  1.0000
  N   N10       1.0  0.96655  0.48874  0.90572  1.0000
  N   N11       1.0  0.96655  0.98873  0.59428  1.0000
  N   N12       1.0  0.03344  0.51127  0.09428  1.0000
  N   N13       1.0  0.32153  0.08390  0.24823  1.0000
  N   N14       1.0  0.67847  0.41610  0.74823  1.0000
  N   N15       1.0  0.67846  0.91611  0.75177  1.0000
  N   N16       1.0  0.32153  0.58390  0.25177  1.0000
  Cl  Cl1       1.0  0.14186  0.27340  0.69094  1.0000
  Cl  Cl2       1.0  0.85814  0.22660  0.19094  1.0000
  Cl  Cl3       1.0  0.85813  0.72660  0.30906  1.0000
  Cl  Cl4       1.0  0.14186  0.77340  0.80906  1.0000
  Cl  Cl5       1.0  0.03428  0.57254  0.63167  1.0000
  Cl  Cl6       1.0  0.96572  0.92746  0.13167  1.0000
  Cl  Cl7       1.0  0.96573  0.42746  0.36833  1.0000
  Cl  Cl8       1.0  0.03427  0.07254  0.86833  1.0000
  O   O1        1.0  0.96684  0.18206  0.42974  1.0000
  O   O2        1.0  0.03315  0.31793  0.92974  1.0000
  O   O3        1.0  0.03316  0.81793  0.57026  1.0000
  O   O4        1.0  0.96685  0.68207  0.07027  1.0000
