data_image0
_chemical_formula_structural       Cd4H40C48N24O32
_chemical_formula_sum              "Cd4 H40 C48 N24 O32"
_cell_length_a       7.21659
_cell_length_b       15.4753
_cell_length_c       15.4375
_cell_angle_alpha    92.1972
_cell_angle_beta     102.749
_cell_angle_gamma    103.102

_space_group_name_H-M_alt    "P 1"
_space_group_IT_number       1

loop_
  _space_group_symop_operation_xyz
  'x, y, z'

loop_
  _atom_site_type_symbol
  _atom_site_label
  _atom_site_symmetry_multiplicity
  _atom_site_fract_x
  _atom_site_fract_y
  _atom_site_fract_z
  _atom_site_occupancy
  Cd  Cd1       1.0  0.86268  0.75939  0.54750  1.0000
  Cd  Cd2       1.0  0.36182  0.54681  0.75940  1.0000
  Cd  Cd3       1.0  0.20902  0.89108  0.09649  1.0000
  Cd  Cd4       1.0  0.70962  0.09627  0.89106  1.0000
  H   H1        1.0  0.00426  0.89477  0.72177  1.0000
  H   H2        1.0  0.50117  0.72063  0.89473  1.0000
  H   H3        1.0  0.13587  0.05611  0.77142  1.0000
  H   H4        1.0  0.63477  0.77059  0.05606  1.0000
  H   H5        1.0  0.22217  0.16249  0.65894  1.0000
  H   H6        1.0  0.72270  0.65880  0.16224  1.0000
  H   H7        1.0  0.02054  0.93679  0.45908  1.0000
  H   H8        1.0  0.51960  0.45883  0.93649  1.0000
  H   H9        1.0  0.23471  0.99981  0.27179  1.0000
  H   H10       1.0  0.73513  0.27175  0.99886  1.0000
  H   H11       1.0  0.26562  0.27935  0.23756  1.0000
  H   H12       1.0  0.76527  0.23851  0.27917  1.0000
  H   H13       1.0  0.28161  0.24597  0.07966  1.0000
  H   H14       1.0  0.78128  0.08107  0.24626  1.0000
  H   H15       1.0  0.26725  0.09018  0.02517  1.0000
  H   H16       1.0  0.76776  0.02620  0.09024  1.0000
  H   H17       1.0  0.76773  0.55849  0.61742  1.0000
  H   H18       1.0  0.26879  0.61755  0.55927  1.0000
  H   H19       1.0  0.57175  0.40361  0.56177  1.0000
  H   H20       1.0  0.07362  0.56255  0.40407  1.0000
  H   H21       1.0  0.37663  0.37237  0.40374  1.0000
  H   H22       1.0  0.87774  0.40466  0.37214  1.0000
  H   H23       1.0  0.59168  0.65201  0.37236  1.0000
  H   H24       1.0  0.09048  0.37194  0.65164  1.0000
  H   H25       1.0  0.28000  0.71472  0.18151  1.0000
  H   H26       1.0  0.78060  0.18105  0.71441  1.0000
  H   H27       1.0  0.04134  0.48831  0.98334  1.0000
  H   H28       1.0  0.53988  0.98277  0.48804  1.0000
  H   H29       1.0  0.95370  0.59607  0.87157  1.0000
  H   H30       1.0  0.45389  0.87109  0.59643  1.0000
  H   H31       1.0  0.04135  0.75798  0.92146  1.0000
  H   H32       1.0  0.54348  0.92096  0.75865  1.0000
  H   H33       1.0  0.61456  0.83996  0.40770  1.0000
  H   H34       1.0  0.11317  0.40720  0.84035  1.0000
  H   H35       1.0  0.45933  0.78166  0.45708  1.0000
  H   H36       1.0  0.95835  0.45638  0.78229  1.0000
  H   H37       1.0  0.03861  0.80799  0.24600  1.0000
  H   H38       1.0  0.53999  0.24571  0.80840  1.0000
  H   H39       1.0  0.88685  0.86421  0.19853  1.0000
  H   H40       1.0  0.38810  0.19836  0.86514  1.0000
  C   C1        1.0  0.03875  0.94243  0.67428  1.0000
  C   C2        1.0  0.53674  0.67346  0.94238  1.0000
  C   C3        1.0  0.11243  0.03306  0.70161  1.0000
  C   C4        1.0  0.61132  0.70091  0.03297  1.0000
  C   C5        1.0  0.15998  0.09151  0.63966  1.0000
  C   C6        1.0  0.65983  0.63928  0.09132  1.0000
  C   C7        1.0  0.12888  0.05731  0.55067  1.0000
  C   C8        1.0  0.62867  0.55040  0.05710  1.0000
  C   C9        1.0  0.05079  0.96559  0.52783  1.0000
  C   C10       1.0  0.54984  0.52745  0.96539  1.0000
  C   C11       1.0  0.17641  0.11622  0.48399  1.0000
  C   C12       1.0  0.67684  0.48398  0.11590  1.0000
  C   C13       1.0  0.23079  0.15435  0.35802  1.0000
  C   C14       1.0  0.73123  0.35837  0.15378  1.0000
  C   C15       1.0  0.24545  0.05641  0.23176  1.0000
  C   C16       1.0  0.74605  0.23215  0.05580  1.0000
  C   C17       1.0  0.24963  0.14163  0.26729  1.0000
  C   C18       1.0  0.74995  0.26785  0.14108  1.0000
  C   C19       1.0  0.26441  0.21212  0.21264  1.0000
  C   C20       1.0  0.76435  0.21354  0.21186  1.0000
  C   C21       1.0  0.27212  0.19365  0.12485  1.0000
  C   C22       1.0  0.77210  0.12593  0.19365  1.0000
  C   C23       1.0  0.26488  0.10685  0.09388  1.0000
  C   C24       1.0  0.76528  0.09476  0.10680  1.0000
  C   C25       1.0  0.68178  0.54280  0.54904  1.0000
  C   C26       1.0  0.18239  0.54922  0.54321  1.0000
  C   C27       1.0  0.57258  0.45660  0.51733  1.0000
  C   C28       1.0  0.07368  0.51786  0.45688  1.0000
  C   C29       1.0  0.46474  0.43929  0.42947  1.0000
  C   C30       1.0  0.96535  0.43003  0.43921  1.0000
  C   C31       1.0  0.46948  0.51036  0.37557  1.0000
  C   C32       1.0  0.96909  0.37577  0.51005  1.0000
  C   C33       1.0  0.58346  0.59510  0.41196  1.0000
  C   C34       1.0  0.08269  0.41181  0.59491  1.0000
  C   C35       1.0  0.35429  0.49754  0.28451  1.0000
  C   C36       1.0  0.85361  0.28465  0.49705  1.0000
  C   C37       1.0  0.21934  0.53467  0.15775  1.0000
  C   C38       1.0  0.71887  0.15753  0.53413  1.0000
  C   C39       1.0  0.20957  0.68572  0.11341  1.0000
  C   C40       1.0  0.71012  0.11296  0.68548  1.0000
  C   C41       1.0  0.16694  0.59358  0.09091  1.0000
  C   C42       1.0  0.66681  0.09049  0.59319  1.0000
  C   C43       1.0  0.07325  0.55962  0.00248  1.0000
  C   C44       1.0  0.57279  0.00203  0.55946  1.0000
  C   C45       1.0  0.02585  0.61872  0.94084  1.0000
  C   C46       1.0  0.52627  0.94036  0.61893  1.0000
  C   C47       1.0  0.07433  0.70961  0.96809  1.0000
  C   C48       1.0  0.57564  0.96759  0.70996  1.0000
  N   N1        1.0  0.00792  0.90965  0.58874  1.0000
  N   N2        1.0  0.50619  0.58807  0.90957  1.0000
  N   N3        1.0  0.21562  0.20361  0.48915  1.0000
  N   N4        1.0  0.71646  0.48915  0.20339  1.0000
  N   N5        1.0  0.24953  0.22801  0.40732  1.0000
  N   N6        1.0  0.75030  0.40759  0.22764  1.0000
  N   N7        1.0  0.25210  0.03962  0.14686  1.0000
  N   N8        1.0  0.75273  0.14741  0.03930  1.0000
  N   N9        1.0  0.68718  0.61083  0.49683  1.0000
  N   N10       1.0  0.18688  0.49665  0.61096  1.0000
  N   N11       1.0  0.25503  0.42352  0.23562  1.0000
  N   N12       1.0  0.75418  0.23592  0.42298  1.0000
  N   N13       1.0  0.16830  0.44737  0.15334  1.0000
  N   N14       1.0  0.66760  0.15340  0.44677  1.0000
  N   N15       1.0  0.16499  0.74212  0.05286  1.0000
  N   N16       1.0  0.66612  0.05243  0.74219  1.0000
  N   N17       1.0  0.09952  0.75081  0.39974  1.0000
  N   N18       1.0  0.59814  0.39932  0.74999  1.0000
  N   N19       1.0  0.67250  0.71322  0.71854  1.0000
  N   N20       1.0  0.17129  0.71761  0.71322  1.0000
  N   N21       1.0  0.60052  0.89528  0.25106  1.0000
  N   N22       1.0  0.10124  0.25110  0.89458  1.0000
  N   N23       1.0  0.31665  0.94960  0.91863  1.0000
  N   N24       1.0  0.81638  0.91867  0.95019  1.0000
  O   O1        1.0  0.18276  0.08041  0.40245  1.0000
  O   O2        1.0  0.68301  0.40264  0.07985  1.0000
  O   O3        1.0  0.33752  0.57101  0.23924  1.0000
  O   O4        1.0  0.83703  0.23905  0.57053  1.0000
  O   O5        1.0  0.59978  0.80730  0.46050  1.0000
  O   O6        1.0  0.09860  0.46014  0.80816  1.0000
  O   O7        1.0  0.00446  0.84272  0.19518  1.0000
  O   O8        1.0  0.50684  0.19550  0.84415  1.0000
  O   O9        1.0  0.21926  0.74945  0.47342  1.0000
  O   O10       1.0  0.71938  0.47303  0.74960  1.0000
  O   O11       1.0  0.93091  0.76351  0.40035  1.0000
  O   O12       1.0  0.42843  0.39975  0.76156  1.0000
  O   O13       1.0  0.14540  0.74015  0.32670  1.0000
  O   O14       1.0  0.64370  0.32644  0.73946  1.0000
  O   O15       1.0  0.72481  0.77779  0.67353  1.0000
  O   O16       1.0  0.22338  0.67246  0.77747  1.0000
  O   O17       1.0  0.52932  0.64827  0.67816  1.0000
  O   O18       1.0  0.02719  0.67752  0.64860  1.0000
  O   O19       1.0  0.75461  0.71261  0.79793  1.0000
  O   O20       1.0  0.25439  0.79693  0.71254  1.0000
  O   O21       1.0  0.41639  0.88164  0.24371  1.0000
  O   O22       1.0  0.91695  0.24347  0.87954  1.0000
  O   O23       1.0  0.66632  0.89741  0.18117  1.0000
  O   O24       1.0  0.16665  0.18141  0.89755  1.0000
  O   O25       1.0  0.71466  0.90633  0.32745  1.0000
  O   O26       1.0  0.21581  0.32752  0.90615  1.0000
  O   O27       1.0  0.40795  0.95384  0.00113  1.0000
  O   O28       1.0  0.90781  0.00113  0.95365  1.0000
  O   O29       1.0  0.16162  0.89280  0.88732  1.0000
  O   O30       1.0  0.66142  0.88677  0.89371  1.0000
  O   O31       1.0  0.38797  0.00639  0.86998  1.0000
  O   O32       1.0  0.88747  0.87071  0.00741  1.0000
