data_image0
_chemical_formula_structural       Hg4H32C48I8N16O4
_chemical_formula_sum              "Hg4 H32 C48 I8 N16 O4"
_cell_length_a       5.27095
_cell_length_b       17.0998
_cell_length_c       20.4069
_cell_angle_alpha    103.002
_cell_angle_beta     90
_cell_angle_gamma    90

_space_group_name_H-M_alt    "P 1"
_space_group_IT_number       1

loop_
  _space_group_symop_operation_xyz
  'x, y, z'

loop_
  _atom_site_type_symbol
  _atom_site_label
  _atom_site_symmetry_multiplicity
  _atom_site_fract_x
  _atom_site_fract_y
  _atom_site_fract_z
  _atom_site_occupancy
  Hg  Hg1       1.0  0.42038  0.75000  0.75000  1.0000
  Hg  Hg2       1.0  0.57962  0.25000  0.25000  1.0000
  Hg  Hg3       1.0  0.52651  0.75000  0.25000  1.0000
  Hg  Hg4       1.0  0.47350  0.25000  0.75000  1.0000
  H   H1        1.0  0.78324  0.68454  0.61299  1.0000
  H   H2        1.0  0.78323  0.81546  0.88701  1.0000
  H   H3        1.0  0.21676  0.31546  0.38701  1.0000
  H   H4        1.0  0.21676  0.18454  0.11299  1.0000
  H   H5        1.0  0.14312  0.72326  0.54652  1.0000
  H   H6        1.0  0.14311  0.77674  0.95348  1.0000
  H   H7        1.0  0.85688  0.27674  0.45348  1.0000
  H   H8        1.0  0.85688  0.22326  0.04652  1.0000
  H   H9        1.0  0.08538  0.96409  0.67075  1.0000
  H   H10       1.0  0.08538  0.53591  0.82925  1.0000
  H   H11       1.0  0.91462  0.03591  0.32925  1.0000
  H   H12       1.0  0.91462  0.46409  0.17075  1.0000
  H   H13       1.0  0.72913  0.91467  0.73203  1.0000
  H   H14       1.0  0.72913  0.58533  0.76797  1.0000
  H   H15       1.0  0.27087  0.08533  0.26797  1.0000
  H   H16       1.0  0.27087  0.41467  0.23203  1.0000
  H   H17       1.0  0.10609  0.67594  0.34774  1.0000
  H   H18       1.0  0.10610  0.82406  0.15226  1.0000
  H   H19       1.0  0.89390  0.32406  0.65226  1.0000
  H   H20       1.0  0.89391  0.17594  0.84774  1.0000
  H   H21       1.0  0.76168  0.71547  0.43299  1.0000
  H   H22       1.0  0.76169  0.78453  0.06701  1.0000
  H   H23       1.0  0.23830  0.28452  0.56701  1.0000
  H   H24       1.0  0.23832  0.21548  0.93299  1.0000
  H   H25       1.0  0.96352  0.96330  0.44180  1.0000
  H   H26       1.0  0.96352  0.53670  0.05820  1.0000
  H   H27       1.0  0.03648  0.03670  0.55820  1.0000
  H   H28       1.0  0.03648  0.46330  0.94180  1.0000
  H   H29       1.0  0.29167  0.91309  0.35435  1.0000
  H   H30       1.0  0.29167  0.58691  0.14565  1.0000
  H   H31       1.0  0.70833  0.08691  0.64565  1.0000
  H   H32       1.0  0.70833  0.41309  0.85436  1.0000
  C   C1        1.0  0.85539  0.74600  0.62363  1.0000
  C   C2        1.0  0.85539  0.75400  0.87637  1.0000
  C   C3        1.0  0.14462  0.25400  0.37638  1.0000
  C   C4        1.0  0.14461  0.24600  0.12363  1.0000
  C   C5        1.0  0.05442  0.76778  0.58651  1.0000
  C   C6        1.0  0.05441  0.73222  0.91348  1.0000
  C   C7        1.0  0.94558  0.23222  0.41349  1.0000
  C   C8        1.0  0.94558  0.26778  0.08652  1.0000
  C   C9        1.0  0.13955  0.84748  0.60280  1.0000
  C   C10       1.0  0.13955  0.65252  0.89720  1.0000
  C   C11       1.0  0.86045  0.15252  0.39720  1.0000
  C   C12       1.0  0.86045  0.34748  0.10280  1.0000
  C   C13       1.0  0.02177  0.90195  0.65597  1.0000
  C   C14       1.0  0.02178  0.59805  0.84403  1.0000
  C   C15       1.0  0.97823  0.09805  0.34403  1.0000
  C   C16       1.0  0.97822  0.40195  0.15597  1.0000
  C   C17       1.0  0.82537  0.87455  0.69020  1.0000
  C   C18       1.0  0.82537  0.62545  0.80980  1.0000
  C   C19       1.0  0.17464  0.12545  0.30981  1.0000
  C   C20       1.0  0.17463  0.37455  0.19020  1.0000
  C   C21       1.0  0.34696  0.87544  0.56743  1.0000
  C   C22       1.0  0.34696  0.62456  0.93256  1.0000
  C   C23       1.0  0.65304  0.12456  0.43257  1.0000
  C   C24       1.0  0.65304  0.37544  0.06744  1.0000
  C   C25       1.0  0.65297  0.87310  0.49759  1.0000
  C   C26       1.0  0.65296  0.62690  0.00241  1.0000
  C   C27       1.0  0.34703  0.12690  0.50241  1.0000
  C   C28       1.0  0.34704  0.37310  0.99759  1.0000
  C   C29       1.0  0.06726  0.73908  0.36984  1.0000
  C   C30       1.0  0.06727  0.76092  0.13016  1.0000
  C   C31       1.0  0.93273  0.26092  0.63016  1.0000
  C   C32       1.0  0.93274  0.23908  0.86984  1.0000
  C   C33       1.0  0.87640  0.76128  0.41777  1.0000
  C   C34       1.0  0.87640  0.73872  0.08223  1.0000
  C   C35       1.0  0.12359  0.23871  0.58223  1.0000
  C   C36       1.0  0.12361  0.26128  0.91777  1.0000
  C   C37       1.0  0.83668  0.84319  0.44498  1.0000
  C   C38       1.0  0.83668  0.65681  0.05502  1.0000
  C   C39       1.0  0.16331  0.15681  0.55502  1.0000
  C   C40       1.0  0.16332  0.34319  0.94498  1.0000
  C   C41       1.0  0.98806  0.89927  0.42220  1.0000
  C   C42       1.0  0.98806  0.60073  0.07780  1.0000
  C   C43       1.0  0.01193  0.10073  0.57780  1.0000
  C   C44       1.0  0.01194  0.39927  0.92220  1.0000
  C   C45       1.0  0.17092  0.87144  0.37364  1.0000
  C   C46       1.0  0.17091  0.62856  0.12637  1.0000
  C   C47       1.0  0.82907  0.12856  0.62636  1.0000
  C   C48       1.0  0.82908  0.37144  0.87364  1.0000
  I   I1        1.0  0.32148  0.60594  0.66876  1.0000
  I   I2        1.0  0.32148  0.89406  0.83124  1.0000
  I   I3        1.0  0.67852  0.39406  0.33125  1.0000
  I   I4        1.0  0.67853  0.10595  0.16875  1.0000
  I   I5        1.0  0.61637  0.89947  0.23341  1.0000
  I   I6        1.0  0.61636  0.60053  0.26659  1.0000
  I   I7        1.0  0.38363  0.10053  0.76659  1.0000
  I   I8        1.0  0.38365  0.39947  0.73341  1.0000
  N   N1        1.0  0.74291  0.79819  0.67427  1.0000
  N   N2        1.0  0.74290  0.70181  0.82573  1.0000
  N   N3        1.0  0.25710  0.20181  0.32573  1.0000
  N   N4        1.0  0.25709  0.29819  0.17427  1.0000
  N   N5        1.0  0.44338  0.94803  0.57939  1.0000
  N   N6        1.0  0.44338  0.55197  0.92061  1.0000
  N   N7        1.0  0.55662  0.05197  0.42061  1.0000
  N   N8        1.0  0.55662  0.44803  0.07939  1.0000
  N   N9        1.0  0.64040  0.94633  0.53479  1.0000
  N   N10       1.0  0.64039  0.55367  0.96521  1.0000
  N   N11       1.0  0.35960  0.05367  0.46521  1.0000
  N   N12       1.0  0.35961  0.44633  0.03479  1.0000
  N   N13       1.0  0.21063  0.79286  0.34800  1.0000
  N   N14       1.0  0.21063  0.70714  0.15201  1.0000
  N   N15       1.0  0.78937  0.20714  0.65200  1.0000
  N   N16       1.0  0.78938  0.29286  0.84800  1.0000
  O   O1        1.0  0.47164  0.82418  0.51574  1.0000
  O   O2        1.0  0.47164  0.67582  0.98426  1.0000
  O   O3        1.0  0.52836  0.17582  0.48425  1.0000
  O   O4        1.0  0.52836  0.32418  0.01574  1.0000
