data_image0
_chemical_formula_structural       Hg4H32C48Br8N16O4
_chemical_formula_sum              "Hg4 H32 C48 Br8 N16 O4"
_cell_length_a       5.46549
_cell_length_b       16.3368
_cell_length_c       16.486
_cell_angle_alpha    90
_cell_angle_beta     93.1996
_cell_angle_gamma    90

_space_group_name_H-M_alt    "P 1"
_space_group_IT_number       1

loop_
  _space_group_symop_operation_xyz
  'x, y, z'

loop_
  _atom_site_type_symbol
  _atom_site_label
  _atom_site_symmetry_multiplicity
  _atom_site_fract_x
  _atom_site_fract_y
  _atom_site_fract_z
  _atom_site_occupancy
  Hg  Hg1       1.0  0.87229  0.19454  0.86503  1.0000
  Hg  Hg2       1.0  0.62771  0.69454  0.63497  1.0000
  Hg  Hg3       1.0  0.12771  0.80545  0.13497  1.0000
  Hg  Hg4       1.0  0.37229  0.30546  0.36503  1.0000
  H   H1        1.0  0.72148  0.30959  0.02664  1.0000
  H   H2        1.0  0.77852  0.80959  0.47336  1.0000
  H   H3        1.0  0.27852  0.69041  0.97336  1.0000
  H   H4        1.0  0.22148  0.19041  0.52664  1.0000
  H   H5        1.0  0.06393  0.45011  0.96369  1.0000
  H   H6        1.0  0.43608  0.95011  0.53631  1.0000
  H   H7        1.0  0.93608  0.54989  0.03631  1.0000
  H   H8        1.0  0.56393  0.04989  0.46369  1.0000
  H   H9        1.0  0.05121  0.38454  0.82788  1.0000
  H   H10       1.0  0.44879  0.88454  0.67212  1.0000
  H   H11       1.0  0.94879  0.61546  0.17212  1.0000
  H   H12       1.0  0.55121  0.11546  0.32788  1.0000
  H   H13       1.0  0.39166  0.28846  0.79507  1.0000
  H   H14       1.0  0.10834  0.78846  0.70493  1.0000
  H   H15       1.0  0.60834  0.71154  0.20493  1.0000
  H   H16       1.0  0.89166  0.21154  0.29507  1.0000
  H   H17       1.0  0.92604  0.36265  0.24243  1.0000
  H   H18       1.0  0.57396  0.86265  0.25757  1.0000
  H   H19       1.0  0.07396  0.63735  0.75757  1.0000
  H   H20       1.0  0.42604  0.13735  0.74243  1.0000
  H   H21       1.0  0.58445  0.58833  0.31449  1.0000
  H   H22       1.0  0.91555  0.08832  0.18551  1.0000
  H   H23       1.0  0.41555  0.41167  0.68551  1.0000
  H   H24       1.0  0.08445  0.91168  0.81449  1.0000
  H   H25       1.0  0.90783  0.59787  0.42856  1.0000
  H   H26       1.0  0.59217  0.09787  0.07144  1.0000
  H   H27       1.0  0.09217  0.40213  0.57144  1.0000
  H   H28       1.0  0.40783  0.90213  0.92856  1.0000
  H   H29       1.0  0.22224  0.48605  0.44433  1.0000
  H   H30       1.0  0.27776  0.98605  0.05567  1.0000
  H   H31       1.0  0.77775  0.51395  0.55567  1.0000
  H   H32       1.0  0.72225  0.01395  0.94433  1.0000
  C   C1        1.0  0.57242  0.32905  0.98410  1.0000
  C   C2        1.0  0.92758  0.82905  0.51590  1.0000
  C   C3        1.0  0.42758  0.67095  0.01590  1.0000
  C   C4        1.0  0.07242  0.17095  0.48410  1.0000
  C   C5        1.0  0.39672  0.38629  0.00620  1.0000
  C   C6        1.0  0.10328  0.88629  0.49380  1.0000
  C   C7        1.0  0.60328  0.61371  0.99380  1.0000
  C   C8        1.0  0.89672  0.11371  0.50620  1.0000
  C   C9        1.0  0.20473  0.40616  0.94945  1.0000
  C   C10       1.0  0.29527  0.90617  0.55055  1.0000
  C   C11       1.0  0.79527  0.59384  0.05055  1.0000
  C   C12       1.0  0.70473  0.09384  0.44945  1.0000
  C   C13       1.0  0.19794  0.37030  0.87314  1.0000
  C   C14       1.0  0.30206  0.87030  0.62686  1.0000
  C   C15       1.0  0.80206  0.62970  0.12686  1.0000
  C   C16       1.0  0.69794  0.12970  0.37314  1.0000
  C   C17       1.0  0.38473  0.31616  0.85514  1.0000
  C   C18       1.0  0.11527  0.81616  0.64486  1.0000
  C   C19       1.0  0.61527  0.68384  0.14486  1.0000
  C   C20       1.0  0.88473  0.18384  0.35514  1.0000
  C   C21       1.0  0.40994  0.42703  0.08434  1.0000
  C   C22       1.0  0.09006  0.92703  0.41566  1.0000
  C   C23       1.0  0.59006  0.57297  0.91566  1.0000
  C   C24       1.0  0.90994  0.07297  0.58434  1.0000
  C   C25       1.0  0.55679  0.46764  0.20065  1.0000
  C   C26       1.0  0.94322  0.96764  0.29934  1.0000
  C   C27       1.0  0.44321  0.53236  0.79935  1.0000
  C   C28       1.0  0.05679  0.03236  0.70066  1.0000
  C   C29       1.0  0.91385  0.41518  0.28295  1.0000
  C   C30       1.0  0.58615  0.91518  0.21705  1.0000
  C   C31       1.0  0.08615  0.58482  0.71705  1.0000
  C   C32       1.0  0.41385  0.08483  0.78295  1.0000
  C   C33       1.0  0.73155  0.47474  0.26954  1.0000
  C   C34       1.0  0.76846  0.97474  0.23046  1.0000
  C   C35       1.0  0.26845  0.52526  0.73046  1.0000
  C   C36       1.0  0.23154  0.02526  0.76954  1.0000
  C   C37       1.0  0.72505  0.54132  0.32331  1.0000
  C   C38       1.0  0.77495  0.04132  0.17669  1.0000
  C   C39       1.0  0.27495  0.45868  0.67669  1.0000
  C   C40       1.0  0.22504  0.95868  0.82331  1.0000
  C   C41       1.0  0.90343  0.54635  0.38658  1.0000
  C   C42       1.0  0.59658  0.04635  0.11342  1.0000
  C   C43       1.0  0.09658  0.45365  0.61342  1.0000
  C   C44       1.0  0.40343  0.95365  0.88658  1.0000
  C   C45       1.0  0.07867  0.48445  0.39556  1.0000
  C   C46       1.0  0.42133  0.98445  0.10444  1.0000
  C   C47       1.0  0.92133  0.51555  0.60444  1.0000
  C   C48       1.0  0.57867  0.01555  0.89556  1.0000
  Br  Br1       1.0  0.84793  0.24537  0.71852  1.0000
  Br  Br2       1.0  0.65207  0.74537  0.78148  1.0000
  Br  Br3       1.0  0.15206  0.75463  0.28148  1.0000
  Br  Br4       1.0  0.34794  0.25463  0.21852  1.0000
  Br  Br5       1.0  0.08569  0.15744  0.99961  1.0000
  Br  Br6       1.0  0.41431  0.65744  0.50039  1.0000
  Br  Br7       1.0  0.91431  0.84255  0.00039  1.0000
  Br  Br8       1.0  0.58569  0.34256  0.49961  1.0000
  N   N1        1.0  0.56555  0.29579  0.90979  1.0000
  N   N2        1.0  0.93445  0.79579  0.59020  1.0000
  N   N3        1.0  0.43445  0.70421  0.09021  1.0000
  N   N4        1.0  0.06555  0.20421  0.40980  1.0000
  N   N5        1.0  0.24884  0.47743  0.11303  1.0000
  N   N6        1.0  0.25116  0.97743  0.38697  1.0000
  N   N7        1.0  0.75116  0.52257  0.88697  1.0000
  N   N8        1.0  0.74884  0.02257  0.61303  1.0000
  N   N9        1.0  0.34369  0.50369  0.18823  1.0000
  N   N10       1.0  0.15631  0.00369  0.31177  1.0000
  N   N11       1.0  0.65631  0.49631  0.81177  1.0000
  N   N12       1.0  0.84369  0.99631  0.68823  1.0000
  N   N13       1.0  0.08092  0.42004  0.34502  1.0000
  N   N14       1.0  0.41908  0.92004  0.15498  1.0000
  N   N15       1.0  0.91908  0.57996  0.65498  1.0000
  N   N16       1.0  0.58092  0.07996  0.84502  1.0000
  O   O1        1.0  0.61152  0.41836  0.13661  1.0000
  O   O2        1.0  0.88849  0.91836  0.36339  1.0000
  O   O3        1.0  0.38848  0.58164  0.86339  1.0000
  O   O4        1.0  0.11151  0.08164  0.63661  1.0000
