data_image0
_chemical_formula_structural       Ag8H32C52O16F24
_chemical_formula_sum              "Ag8 H32 C52 O16 F24"
_cell_length_a       9.43151
_cell_length_b       11.1195
_cell_length_c       18.0747
_cell_angle_alpha    83.6148
_cell_angle_beta     74.7975
_cell_angle_gamma    64.9066

_space_group_name_H-M_alt    "P 1"
_space_group_IT_number       1

loop_
  _space_group_symop_operation_xyz
  'x, y, z'

loop_
  _atom_site_type_symbol
  _atom_site_label
  _atom_site_symmetry_multiplicity
  _atom_site_fract_x
  _atom_site_fract_y
  _atom_site_fract_z
  _atom_site_occupancy
  Ag  Ag1       1.0  0.43823  0.52266  0.21118  1.0000
  Ag  Ag2       1.0  0.03922  0.52267  0.78896  1.0000
  Ag  Ag3       1.0  0.39907  0.02253  0.28893  1.0000
  Ag  Ag4       1.0  0.57855  0.02272  0.71096  1.0000
  Ag  Ag5       1.0  0.58242  0.74613  0.26709  1.0000
  Ag  Ag6       1.0  0.67150  0.74626  0.73276  1.0000
  Ag  Ag7       1.0  0.59986  0.24616  0.23299  1.0000
  Ag  Ag8       1.0  0.15432  0.24613  0.76711  1.0000
  H   H1        1.0  0.67097  0.27071  0.07837  1.0000
  H   H2        1.0  0.05762  0.27083  0.92143  1.0000
  H   H3        1.0  0.49985  0.77074  0.42152  1.0000
  H   H4        1.0  0.72949  0.77080  0.57843  1.0000
  H   H5        1.0  0.92973  0.26332  0.08810  1.0000
  H   H6        1.0  0.80605  0.26378  0.91175  1.0000
  H   H7        1.0  0.76833  0.76338  0.41174  1.0000
  H   H8        1.0  0.46838  0.76337  0.58815  1.0000
  H   H9        1.0  0.73275  0.68986  0.09047  1.0000
  H   H10       1.0  0.57699  0.69032  0.90956  1.0000
  H   H11       1.0  0.57365  0.18988  0.40938  1.0000
  H   H12       1.0  0.23641  0.18989  0.59057  1.0000
  H   H13       1.0  0.47142  0.69969  0.08105  1.0000
  H   H14       1.0  0.82862  0.69983  0.91904  1.0000
  H   H15       1.0  0.30283  0.19969  0.41894  1.0000
  H   H16       1.0  0.49740  0.19978  0.58097  1.0000
  H   H17       1.0  0.38415  0.41590  0.05447  1.0000
  H   H18       1.0  0.19949  0.41581  0.94555  1.0000
  H   H19       1.0  0.18881  0.91590  0.44571  1.0000
  H   H20       1.0  0.89525  0.91606  0.55417  1.0000
  H   H21       1.0  0.32643  0.58912  0.04331  1.0000
  H   H22       1.0  0.08395  0.58899  0.95693  1.0000
  H   H23       1.0  0.11997  0.08908  0.45701  1.0000
  H   H24       1.0  0.79087  0.08920  0.54285  1.0000
  H   H25       1.0  0.03073  0.54780  0.08660  1.0000
  H   H26       1.0  0.42061  0.54826  0.91353  1.0000
  H   H27       1.0  0.86775  0.04799  0.41317  1.0000
  H   H28       1.0  0.08433  0.04789  0.58670  1.0000
  H   H29       1.0  0.10780  0.37431  0.07251  1.0000
  H   H30       1.0  0.51727  0.37474  0.92751  1.0000
  H   H31       1.0  0.93081  0.87447  0.42729  1.0000
  H   H32       1.0  0.19488  0.87439  0.57259  1.0000
  C   C1        1.0  0.55049  0.48620  0.07654  1.0000
  C   C2        1.0  0.96277  0.48628  0.92352  1.0000
  C   C3        1.0  0.37743  0.98617  0.42349  1.0000
  C   C4        1.0  0.63639  0.98626  0.57643  1.0000
  C   C5        1.0  0.67987  0.36329  0.08576  1.0000
  C   C6        1.0  0.95614  0.36349  0.91416  1.0000
  C   C7        1.0  0.51612  0.86333  0.41416  1.0000
  C   C8        1.0  0.62059  0.86338  0.58578  1.0000
  C   C9        1.0  0.82843  0.35953  0.08829  1.0000
  C   C10       1.0  0.81120  0.35994  0.91167  1.0000
  C   C11       1.0  0.66722  0.85959  0.41160  1.0000
  C   C12       1.0  0.47325  0.85960  0.58828  1.0000
  C   C13       1.0  0.85409  0.47629  0.08230  1.0000
  C   C14       1.0  0.66887  0.47676  0.91777  1.0000
  C   C15       1.0  0.68684  0.97634  0.41761  1.0000
  C   C16       1.0  0.33687  0.97636  0.58227  1.0000
  C   C17       1.0  0.71857  0.59766  0.08955  1.0000
  C   C18       1.0  0.68323  0.59805  0.91053  1.0000
  C   C19       1.0  0.55852  0.09769  0.41038  1.0000
  C   C20       1.0  0.34377  0.09772  0.58955  1.0000
  C   C21       1.0  0.56863  0.60328  0.08691  1.0000
  C   C22       1.0  0.82763  0.60349  0.91321  1.0000
  C   C23       1.0  0.40592  0.10328  0.41314  1.0000
  C   C24       1.0  0.49077  0.10335  0.58680  1.0000
  C   C25       1.0  0.43007  0.49229  0.03346  1.0000
  C   C26       1.0  0.07715  0.49213  0.96664  1.0000
  C   C27       1.0  0.21381  0.99219  0.46671  1.0000
  C   C28       1.0  0.79395  0.99230  0.53316  1.0000
  C   C29       1.0  0.02219  0.47107  0.05681  1.0000
  C   C30       1.0  0.50597  0.47152  0.94326  1.0000
  C   C31       1.0  0.82940  0.97122  0.44301  1.0000
  C   C32       1.0  0.19948  0.97116  0.55688  1.0000
  C   C33       1.0  0.69169  0.41529  0.31995  1.0000
  C   C34       1.0  0.89344  0.41535  0.68011  1.0000
  C   C35       1.0  0.76154  0.91539  0.18004  1.0000
  C   C36       1.0  0.32336  0.91519  0.81987  1.0000
  C   C37       1.0  0.77184  0.43312  0.38083  1.0000
  C   C38       1.0  0.79541  0.43289  0.61929  1.0000
  C   C39       1.0  0.90305  0.93297  0.11915  1.0000
  C   C40       1.0  0.16424  0.93298  0.88075  1.0000
  C   C41       1.0  0.92985  0.45534  0.34746  1.0000
  C   C42       1.0  0.61523  0.45512  0.65271  1.0000
  C   C43       1.0  0.02741  0.95531  0.15253  1.0000
  C   C44       1.0  0.01753  0.95541  0.84734  1.0000
  C   C45       1.0  0.06297  0.34879  0.28933  1.0000
  C   C46       1.0  0.58850  0.34867  0.71085  1.0000
  C   C47       1.0  0.10223  0.84885  0.21066  1.0000
  C   C48       1.0  0.04907  0.84892  0.78926  1.0000
  C   C49       1.0  0.22754  0.36080  0.26359  1.0000
  C   C50       1.0  0.41175  0.36093  0.73654  1.0000
  C   C51       1.0  0.24081  0.86106  0.23644  1.0000
  C   C52       1.0  0.89809  0.86108  0.76367  1.0000
  O   O1        1.0  0.61150  0.52028  0.28816  1.0000
  O   O2        1.0  0.86836  0.52038  0.71192  1.0000
  O   O3        1.0  0.64955  0.02044  0.21179  1.0000
  O   O4        1.0  0.33028  0.02013  0.78793  1.0000
  O   O5        1.0  0.71423  0.29773  0.31041  1.0000
  O   O6        1.0  0.98880  0.29786  0.68956  1.0000
  O   O7        1.0  0.77428  0.79788  0.18961  1.0000
  O   O8        1.0  0.42818  0.79767  0.81048  1.0000
  O   O9        1.0  0.22159  0.47493  0.26659  1.0000
  O   O10       1.0  0.30368  0.47510  0.73350  1.0000
  O   O11       1.0  0.23780  0.97522  0.23343  1.0000
  O   O12       1.0  0.78694  0.97521  0.76667  1.0000
  O   O13       1.0  0.34849  0.25344  0.24056  1.0000
  O   O14       1.0  0.39808  0.25360  0.75961  1.0000
  O   O15       1.0  0.33855  0.75374  0.25955  1.0000
  O   O16       1.0  0.90759  0.75370  0.74067  1.0000
  F   F1        1.0  0.80395  0.32664  0.42941  1.0000
  F   F2        1.0  0.86981  0.32623  0.57083  1.0000
  F   F3        1.0  0.98397  0.82629  0.07072  1.0000
  F   F4        1.0  0.18975  0.82643  0.92926  1.0000
  F   F5        1.0  0.66465  0.54361  0.42520  1.0000
  F   F6        1.0  0.79211  0.54325  0.57477  1.0000
  F   F7        1.0  0.84064  0.04330  0.07464  1.0000
  F   F8        1.0  0.11648  0.04338  0.92518  1.0000
  F   F9        1.0  0.99237  0.45728  0.40772  1.0000
  F   F10       1.0  0.55078  0.45700  0.59246  1.0000
  F   F11       1.0  0.15050  0.95736  0.09226  1.0000
  F   F12       1.0  0.89239  0.95755  0.90762  1.0000
  F   F13       1.0  0.88767  0.57754  0.31302  1.0000
  F   F14       1.0  0.53524  0.57733  0.68713  1.0000
  F   F15       1.0  0.95045  0.07750  0.18697  1.0000
  F   F16       1.0  0.97235  0.07756  0.81286  1.0000
  F   F17       1.0  0.00636  0.35724  0.22510  1.0000
  F   F18       1.0  0.63661  0.35700  0.77512  1.0000
  F   F19       1.0  0.98105  0.85723  0.27488  1.0000
  F   F20       1.0  0.16164  0.85729  0.72493  1.0000
  F   F21       1.0  0.08281  0.22680  0.32256  1.0000
  F   F22       1.0  0.69046  0.22664  0.67765  1.0000
  F   F23       1.0  0.15570  0.72683  0.17746  1.0000
  F   F24       1.0  0.11786  0.72692  0.82243  1.0000
