data_image0
_chemical_formula_structural       Ni4H56C40N32O4
_chemical_formula_sum              "Ni4 H56 C40 N32 O4"
_cell_length_a       7.88418
_cell_length_b       11.6135
_cell_length_c       14.98
_cell_angle_alpha    90
_cell_angle_beta     90
_cell_angle_gamma    90

_space_group_name_H-M_alt    "P 1"
_space_group_IT_number       1

loop_
  _space_group_symop_operation_xyz
  'x, y, z'

loop_
  _atom_site_type_symbol
  _atom_site_label
  _atom_site_symmetry_multiplicity
  _atom_site_fract_x
  _atom_site_fract_y
  _atom_site_fract_z
  _atom_site_occupancy
  Ni  Ni1       1.0  0.19893  0.23873  0.12254  1.0000
  Ni  Ni2       1.0  0.69894  0.73873  0.37745  1.0000
  Ni  Ni3       1.0  0.80106  0.73873  0.87745  1.0000
  Ni  Ni4       1.0  0.30107  0.23873  0.62254  1.0000
  H   H1        1.0  0.21820  0.42514  0.21907  1.0000
  H   H2        1.0  0.71820  0.92514  0.28092  1.0000
  H   H3        1.0  0.78180  0.92513  0.78092  1.0000
  H   H4        1.0  0.28180  0.42513  0.71908  1.0000
  H   H5        1.0  0.14160  0.45949  0.11877  1.0000
  H   H6        1.0  0.64161  0.95949  0.38122  1.0000
  H   H7        1.0  0.85839  0.95949  0.88122  1.0000
  H   H8        1.0  0.35839  0.45949  0.61878  1.0000
  H   H9        1.0  0.93453  0.47767  0.24827  1.0000
  H   H10       1.0  0.43452  0.97766  0.25173  1.0000
  H   H11       1.0  0.06547  0.97766  0.75173  1.0000
  H   H12       1.0  0.56547  0.47766  0.74827  1.0000
  H   H13       1.0  0.86931  0.39853  0.15273  1.0000
  H   H14       1.0  0.36931  0.89853  0.34727  1.0000
  H   H15       1.0  0.13068  0.89853  0.84728  1.0000
  H   H16       1.0  0.63069  0.39853  0.65273  1.0000
  H   H17       1.0  0.82302  0.29145  0.30100  1.0000
  H   H18       1.0  0.32302  0.79145  0.19900  1.0000
  H   H19       1.0  0.17698  0.79145  0.69900  1.0000
  H   H20       1.0  0.67698  0.29145  0.80100  1.0000
  H   H21       1.0  0.04624  0.29747  0.31792  1.0000
  H   H22       1.0  0.54623  0.79746  0.18208  1.0000
  H   H23       1.0  0.95377  0.79746  0.68208  1.0000
  H   H24       1.0  0.45377  0.29746  0.81792  1.0000
  H   H25       1.0  0.70789  0.15835  0.20757  1.0000
  H   H26       1.0  0.20790  0.65835  0.29244  1.0000
  H   H27       1.0  0.29211  0.65834  0.79244  1.0000
  H   H28       1.0  0.79211  0.15834  0.70757  1.0000
  H   H29       1.0  0.79788  0.22615  0.11159  1.0000
  H   H30       1.0  0.29789  0.72615  0.38841  1.0000
  H   H31       1.0  0.20212  0.72615  0.88841  1.0000
  H   H32       1.0  0.70212  0.22615  0.61159  1.0000
  H   H33       1.0  0.71475  0.02081  0.08354  1.0000
  H   H34       1.0  0.21475  0.52082  0.41646  1.0000
  H   H35       1.0  0.28524  0.52081  0.91647  1.0000
  H   H36       1.0  0.78525  0.02081  0.58354  1.0000
  H   H37       1.0  0.93731  0.04425  0.06707  1.0000
  H   H38       1.0  0.43731  0.54425  0.43294  1.0000
  H   H39       1.0  0.06268  0.54425  0.93294  1.0000
  H   H40       1.0  0.56269  0.04425  0.56706  1.0000
  H   H41       1.0  0.12788  0.97785  0.18410  1.0000
  H   H42       1.0  0.62787  0.47784  0.31590  1.0000
  H   H43       1.0  0.87212  0.47784  0.81590  1.0000
  H   H44       1.0  0.37212  0.97784  0.68410  1.0000
  H   H45       1.0  0.03292  0.90792  0.27874  1.0000
  H   H46       1.0  0.53292  0.40792  0.22126  1.0000
  H   H47       1.0  0.96709  0.40792  0.72126  1.0000
  H   H48       1.0  0.46709  0.90792  0.77874  1.0000
  H   H49       1.0  0.90178  0.08930  0.32729  1.0000
  H   H50       1.0  0.40178  0.58930  0.17271  1.0000
  H   H51       1.0  0.09823  0.58930  0.67272  1.0000
  H   H52       1.0  0.59823  0.08930  0.82729  1.0000
  H   H53       1.0  0.12417  0.11007  0.31342  1.0000
  H   H54       1.0  0.62417  0.61007  0.18658  1.0000
  H   H55       1.0  0.87583  0.61006  0.68658  1.0000
  H   H56       1.0  0.37583  0.11006  0.81342  1.0000
  C   C1        1.0  0.01564  0.23452  0.94313  1.0000
  C   C2        1.0  0.51564  0.73451  0.55687  1.0000
  C   C3        1.0  0.98436  0.73452  0.05687  1.0000
  C   C4        1.0  0.48436  0.23452  0.44313  1.0000
  C   C5        1.0  0.07256  0.20489  0.79553  1.0000
  C   C6        1.0  0.57255  0.70489  0.70446  1.0000
  C   C7        1.0  0.92744  0.70489  0.20446  1.0000
  C   C8        1.0  0.42744  0.20489  0.29553  1.0000
  C   C9        1.0  0.96101  0.40045  0.20790  1.0000
  C   C10       1.0  0.46101  0.90045  0.29210  1.0000
  C   C11       1.0  0.03899  0.90044  0.79210  1.0000
  C   C12       1.0  0.53899  0.40044  0.70790  1.0000
  C   C13       1.0  0.94671  0.29449  0.26642  1.0000
  C   C14       1.0  0.44671  0.79449  0.23359  1.0000
  C   C15       1.0  0.05329  0.79448  0.73359  1.0000
  C   C16       1.0  0.55329  0.29448  0.76641  1.0000
  C   C17       1.0  0.81834  0.15941  0.16220  1.0000
  C   C18       1.0  0.31835  0.65941  0.33781  1.0000
  C   C19       1.0  0.18165  0.65940  0.83781  1.0000
  C   C20       1.0  0.68166  0.15940  0.66219  1.0000
  C   C21       1.0  0.83445  0.04311  0.11678  1.0000
  C   C22       1.0  0.33445  0.54311  0.38322  1.0000
  C   C23       1.0  0.16555  0.54310  0.88322  1.0000
  C   C24       1.0  0.66555  0.04311  0.61678  1.0000
  C   C25       1.0  0.01890  0.97767  0.22995  1.0000
  C   C26       1.0  0.51890  0.47766  0.27006  1.0000
  C   C27       1.0  0.98110  0.47766  0.77006  1.0000
  C   C28       1.0  0.48110  0.97766  0.72995  1.0000
  C   C29       1.0  0.00580  0.09230  0.27759  1.0000
  C   C30       1.0  0.50580  0.59230  0.22241  1.0000
  C   C31       1.0  0.99420  0.59229  0.72241  1.0000
  C   C32       1.0  0.49420  0.09229  0.77759  1.0000
  C   C33       1.0  0.51520  0.36986  0.03868  1.0000
  C   C34       1.0  0.01522  0.86986  0.46131  1.0000
  C   C35       1.0  0.48477  0.86985  0.96131  1.0000
  C   C36       1.0  0.98480  0.36986  0.53868  1.0000
  C   C37       1.0  0.69360  0.50715  0.97614  1.0000
  C   C38       1.0  0.19362  0.00714  0.52387  1.0000
  C   C39       1.0  0.30638  0.00714  0.02387  1.0000
  C   C40       1.0  0.80640  0.50715  0.47613  1.0000
  N   N1        1.0  0.03739  0.26803  0.01662  1.0000
  N   N2        1.0  0.53741  0.76804  0.48338  1.0000
  N   N3        1.0  0.96259  0.76804  0.98338  1.0000
  N   N4        1.0  0.46261  0.26804  0.51661  1.0000
  N   N5        1.0  0.97757  0.19201  0.86562  1.0000
  N   N6        1.0  0.47757  0.69201  0.63437  1.0000
  N   N7        1.0  0.02243  0.69201  0.13437  1.0000
  N   N8        1.0  0.52242  0.19201  0.36562  1.0000
  N   N9        1.0  0.14797  0.20900  0.72781  1.0000
  N   N10       1.0  0.64797  0.70900  0.77219  1.0000
  N   N11       1.0  0.85203  0.70900  0.27219  1.0000
  N   N12       1.0  0.35203  0.20900  0.22781  1.0000
  N   N13       1.0  0.13320  0.40183  0.17002  1.0000
  N   N14       1.0  0.63320  0.90183  0.32998  1.0000
  N   N15       1.0  0.86680  0.90182  0.82998  1.0000
  N   N16       1.0  0.36680  0.40183  0.67002  1.0000
  N   N17       1.0  0.97303  0.18750  0.21427  1.0000
  N   N18       1.0  0.47303  0.68749  0.28573  1.0000
  N   N19       1.0  0.02697  0.68749  0.78573  1.0000
  N   N20       1.0  0.52697  0.18749  0.71427  1.0000
  N   N21       1.0  0.39480  0.31256  0.05305  1.0000
  N   N22       1.0  0.89482  0.81257  0.44694  1.0000
  N   N23       1.0  0.60517  0.81256  0.94694  1.0000
  N   N24       1.0  0.10519  0.31257  0.55305  1.0000
  N   N25       1.0  0.65729  0.42474  0.03096  1.0000
  N   N26       1.0  0.15732  0.92472  0.46905  1.0000
  N   N27       1.0  0.34268  0.92472  0.96905  1.0000
  N   N28       1.0  0.84271  0.42473  0.53095  1.0000
  N   N29       1.0  0.74495  0.58081  0.92922  1.0000
  N   N30       1.0  0.24496  0.08082  0.57078  1.0000
  N   N31       1.0  0.25504  0.08081  0.07079  1.0000
  N   N32       1.0  0.75506  0.58082  0.42921  1.0000
  O   O1        1.0  0.86627  0.95311  0.18060  1.0000
  O   O2        1.0  0.36626  0.45311  0.31941  1.0000
  O   O3        1.0  0.13373  0.45310  0.81941  1.0000
  O   O4        1.0  0.63373  0.95310  0.68059  1.0000
