data_image0
_chemical_formula_structural       K4H12C16N24O24
_chemical_formula_sum              "K4 H12 C16 N24 O24"
_cell_length_a       7.607
_cell_length_b       9.25567
_cell_length_c       13.1303
_cell_angle_alpha    89.9999
_cell_angle_beta     90.0004
_cell_angle_gamma    106.074

_space_group_name_H-M_alt    "P 1"
_space_group_IT_number       1

loop_
  _space_group_symop_operation_xyz
  'x, y, z'

loop_
  _atom_site_type_symbol
  _atom_site_label
  _atom_site_symmetry_multiplicity
  _atom_site_fract_x
  _atom_site_fract_y
  _atom_site_fract_z
  _atom_site_occupancy
  K   K1        1.0  0.05843  0.35410  0.18214  1.0000
  K   K2        1.0  0.44157  0.64590  0.68214  1.0000
  K   K3        1.0  0.94157  0.64591  0.81786  1.0000
  K   K4        1.0  0.55843  0.35411  0.31786  1.0000
  H   H1        1.0  0.35528  0.64063  0.35049  1.0000
  H   H2        1.0  0.14472  0.35938  0.85048  1.0000
  H   H3        1.0  0.64472  0.35939  0.64951  1.0000
  H   H4        1.0  0.85527  0.64062  0.14951  1.0000
  H   H5        1.0  0.59613  0.88203  0.43050  1.0000
  H   H6        1.0  0.90387  0.11797  0.93050  1.0000
  H   H7        1.0  0.40387  0.11797  0.56950  1.0000
  H   H8        1.0  0.09612  0.88203  0.06950  1.0000
  H   H9        1.0  0.69595  0.02185  0.34220  1.0000
  H   H10       1.0  0.80406  0.97815  0.84220  1.0000
  H   H11       1.0  0.30406  0.97816  0.65780  1.0000
  H   H12       1.0  0.19593  0.02185  0.15780  1.0000
  C   C1        1.0  0.46435  0.72234  0.12443  1.0000
  C   C2        1.0  0.03565  0.27765  0.62442  1.0000
  C   C3        1.0  0.53565  0.27767  0.87557  1.0000
  C   C4        1.0  0.96435  0.72234  0.37557  1.0000
  C   C5        1.0  0.56772  0.85745  0.17378  1.0000
  C   C6        1.0  0.93228  0.14254  0.67377  1.0000
  C   C7        1.0  0.43228  0.14256  0.82623  1.0000
  C   C8        1.0  0.06772  0.85745  0.32622  1.0000
  C   C9        1.0  0.53528  0.83330  0.28004  1.0000
  C   C10       1.0  0.96473  0.16670  0.78004  1.0000
  C   C11       1.0  0.46473  0.16671  0.71996  1.0000
  C   C12       1.0  0.03527  0.83329  0.21996  1.0000
  C   C13       1.0  0.45302  0.68817  0.01601  1.0000
  C   C14       1.0  0.04698  0.31181  0.51600  1.0000
  C   C15       1.0  0.54698  0.31184  0.98399  1.0000
  C   C16       1.0  0.95302  0.68817  0.48400  1.0000
  N   N1        1.0  0.37481  0.62481  0.19379  1.0000
  N   N2        1.0  0.12520  0.37519  0.69379  1.0000
  N   N3        1.0  0.62519  0.37521  0.80621  1.0000
  N   N4        1.0  0.87481  0.62480  0.30621  1.0000
  N   N5        1.0  0.41805  0.69371  0.28641  1.0000
  N   N6        1.0  0.08195  0.30629  0.78640  1.0000
  N   N7        1.0  0.58195  0.30630  0.71359  1.0000
  N   N8        1.0  0.91805  0.69370  0.21359  1.0000
  N   N9        1.0  0.61444  0.70632  0.96163  1.0000
  N   N10       1.0  0.88555  0.29366  0.46163  1.0000
  N   N11       1.0  0.38556  0.29369  0.03837  1.0000
  N   N12       1.0  0.11445  0.70633  0.53837  1.0000
  N   N13       1.0  0.28515  0.64405  0.96654  1.0000
  N   N14       1.0  0.21485  0.35595  0.46653  1.0000
  N   N15       1.0  0.71485  0.35597  0.03346  1.0000
  N   N16       1.0  0.78515  0.64403  0.53346  1.0000
  N   N17       1.0  0.67864  0.98832  0.13173  1.0000
  N   N18       1.0  0.82137  0.01167  0.63174  1.0000
  N   N19       1.0  0.32137  0.01169  0.86827  1.0000
  N   N20       1.0  0.17863  0.98832  0.36826  1.0000
  N   N21       1.0  0.59950  0.92387  0.35859  1.0000
  N   N22       1.0  0.90051  0.07613  0.85860  1.0000
  N   N23       1.0  0.40051  0.07614  0.64141  1.0000
  N   N24       1.0  0.09948  0.92386  0.14140  1.0000
  O   O1        1.0  0.62352  0.72821  0.86673  1.0000
  O   O2        1.0  0.87647  0.27177  0.36673  1.0000
  O   O3        1.0  0.37647  0.27180  0.13327  1.0000
  O   O4        1.0  0.12353  0.72823  0.63327  1.0000
  O   O5        1.0  0.75732  0.70690  0.01165  1.0000
  O   O6        1.0  0.74268  0.29309  0.51165  1.0000
  O   O7        1.0  0.24268  0.29311  0.98835  1.0000
  O   O8        1.0  0.25732  0.70690  0.48835  1.0000
  O   O9        1.0  0.27198  0.59228  0.87659  1.0000
  O   O10       1.0  0.22801  0.40772  0.37659  1.0000
  O   O11       1.0  0.72802  0.40773  0.12341  1.0000
  O   O12       1.0  0.77199  0.59226  0.62341  1.0000
  O   O13       1.0  0.14471  0.65192  0.01482  1.0000
  O   O14       1.0  0.35528  0.34808  0.51481  1.0000
  O   O15       1.0  0.85529  0.34810  0.98518  1.0000
  O   O16       1.0  0.64472  0.65190  0.48518  1.0000
  O   O17       1.0  0.69559  0.00027  0.03705  1.0000
  O   O18       1.0  0.80442  0.99972  0.53705  1.0000
  O   O19       1.0  0.30442  0.99974  0.96295  1.0000
  O   O20       1.0  0.19559  0.00027  0.46294  1.0000
  O   O21       1.0  0.75978  0.09257  0.19203  1.0000
  O   O22       1.0  0.74023  0.90742  0.69203  1.0000
  O   O23       1.0  0.24022  0.90745  0.80797  1.0000
  O   O24       1.0  0.25977  0.09257  0.30796  1.0000
