data_image0
_chemical_formula_structural       Ag4H48C48N12O8
_chemical_formula_sum              "Ag4 H48 C48 N12 O8"
_cell_length_a       10.6908
_cell_length_b       11.0389
_cell_length_c       12.475
_cell_angle_alpha    114.963
_cell_angle_beta     109.49
_cell_angle_gamma    91.811

_space_group_name_H-M_alt    "P 1"
_space_group_IT_number       1

loop_
  _space_group_symop_operation_xyz
  'x, y, z'

loop_
  _atom_site_type_symbol
  _atom_site_label
  _atom_site_symmetry_multiplicity
  _atom_site_fract_x
  _atom_site_fract_y
  _atom_site_fract_z
  _atom_site_occupancy
  Ag  Ag1       1.0  0.33842  0.63908  0.21375  1.0000
  Ag  Ag2       1.0  0.66158  0.36093  0.78625  1.0000
  Ag  Ag3       1.0  0.60939  0.46766  0.31279  1.0000
  Ag  Ag4       1.0  0.39061  0.53234  0.68721  1.0000
  H   H1        1.0  0.95659  0.38000  0.25714  1.0000
  H   H2        1.0  0.04340  0.62000  0.74286  1.0000
  H   H3        1.0  0.06524  0.60259  0.13823  1.0000
  H   H4        1.0  0.93476  0.39742  0.86177  1.0000
  H   H5        1.0  0.92998  0.47628  0.10658  1.0000
  H   H6        1.0  0.07002  0.52373  0.89342  1.0000
  H   H7        1.0  0.06966  0.42744  0.06195  1.0000
  H   H8        1.0  0.93034  0.57256  0.93805  1.0000
  H   H9        1.0  0.11729  0.41959  0.57879  1.0000
  H   H10       1.0  0.88271  0.58041  0.42122  1.0000
  H   H11       1.0  0.14532  0.27157  0.46627  1.0000
  H   H12       1.0  0.85468  0.72843  0.53373  1.0000
  H   H13       1.0  0.98385  0.31648  0.42621  1.0000
  H   H14       1.0  0.01615  0.68352  0.57379  1.0000
  H   H15       1.0  0.66229  0.00694  0.96740  1.0000
  H   H16       1.0  0.33771  0.99306  0.03260  1.0000
  H   H17       1.0  0.57140  0.07241  0.69652  1.0000
  H   H18       1.0  0.42860  0.92759  0.30349  1.0000
  H   H19       1.0  0.64304  0.95826  0.75603  1.0000
  H   H20       1.0  0.35696  0.04174  0.24397  1.0000
  H   H21       1.0  0.74873  0.09057  0.76140  1.0000
  H   H22       1.0  0.25127  0.90943  0.23860  1.0000
  H   H23       1.0  0.73979  0.23947  0.30354  1.0000
  H   H24       1.0  0.26021  0.76054  0.69646  1.0000
  H   H25       1.0  0.69164  0.06359  0.18610  1.0000
  H   H26       1.0  0.30836  0.93642  0.81390  1.0000
  H   H27       1.0  0.56690  0.16242  0.21658  1.0000
  H   H28       1.0  0.43310  0.83758  0.78342  1.0000
  H   H29       1.0  0.68574  0.06256  0.54133  1.0000
  H   H30       1.0  0.31426  0.93744  0.45867  1.0000
  H   H31       1.0  0.91050  0.22074  0.64739  1.0000
  H   H32       1.0  0.08950  0.77925  0.35261  1.0000
  H   H33       1.0  0.84671  0.74027  0.32100  1.0000
  H   H34       1.0  0.15329  0.25973  0.67900  1.0000
  H   H35       1.0  0.19730  0.18160  0.23684  1.0000
  H   H36       1.0  0.80271  0.81840  0.76316  1.0000
  H   H37       1.0  0.03213  0.01626  0.23746  1.0000
  H   H38       1.0  0.96787  0.98374  0.76254  1.0000
  H   H39       1.0  0.16492  0.17881  0.88345  1.0000
  H   H40       1.0  0.83507  0.82119  0.11655  1.0000
  H   H41       1.0  0.47731  0.72113  0.47318  1.0000
  H   H42       1.0  0.52269  0.27887  0.52682  1.0000
  H   H43       1.0  0.50149  0.66384  0.59111  1.0000
  H   H44       1.0  0.49851  0.33616  0.40889  1.0000
  H   H45       1.0  0.66870  0.54630  0.01442  1.0000
  H   H46       1.0  0.33130  0.45370  0.98558  1.0000
  H   H47       1.0  0.65772  0.57584  0.16069  1.0000
  H   H48       1.0  0.34228  0.42416  0.83931  1.0000
  C   C1        1.0  0.31883  0.58227  0.43890  1.0000
  C   C2        1.0  0.68117  0.41773  0.56110  1.0000
  C   C3        1.0  0.11692  0.50798  0.26085  1.0000
  C   C4        1.0  0.88308  0.49202  0.73915  1.0000
  C   C5        1.0  0.06043  0.43748  0.30904  1.0000
  C   C6        1.0  0.93957  0.56252  0.69096  1.0000
  C   C7        1.0  0.14241  0.43862  0.42297  1.0000
  C   C8        1.0  0.85759  0.56138  0.57703  1.0000
  C   C9        1.0  0.03956  0.50364  0.13516  1.0000
  C   C10       1.0  0.96044  0.49636  0.86484  1.0000
  C   C11       1.0  0.09311  0.35748  0.47590  1.0000
  C   C12       1.0  0.90689  0.64252  0.52410  1.0000
  C   C13       1.0  0.66665  0.37956  0.04879  1.0000
  C   C14       1.0  0.33335  0.62044  0.95121  1.0000
  C   C15       1.0  0.66050  0.15927  0.90161  1.0000
  C   C16       1.0  0.33950  0.84073  0.09839  1.0000
  C   C17       1.0  0.66182  0.11338  0.99033  1.0000
  C   C18       1.0  0.33818  0.88662  0.00967  1.0000
  C   C19       1.0  0.66464  0.20713  0.10925  1.0000
  C   C20       1.0  0.33536  0.79287  0.89076  1.0000
  C   C21       1.0  0.65486  0.06405  0.77190  1.0000
  C   C22       1.0  0.34514  0.93594  0.22810  1.0000
  C   C23       1.0  0.66645  0.16470  0.20890  1.0000
  C   C24       1.0  0.33355  0.83530  0.79111  1.0000
  C   C25       1.0  0.62516  0.79372  0.37784  1.0000
  C   C26       1.0  0.37484  0.20628  0.62216  1.0000
  C   C27       1.0  0.75516  0.89125  0.42723  1.0000
  C   C28       1.0  0.24484  0.10874  0.57277  1.0000
  C   C29       1.0  0.77245  0.02878  0.51861  1.0000
  C   C30       1.0  0.22755  0.97122  0.48139  1.0000
  C   C31       1.0  0.89666  0.11521  0.57708  1.0000
  C   C32       1.0  0.10335  0.88479  0.42292  1.0000
  C   C33       1.0  0.99072  0.93125  0.45210  1.0000
  C   C34       1.0  0.00928  0.06875  0.54790  1.0000
  C   C35       1.0  0.86146  0.84559  0.39230  1.0000
  C   C36       1.0  0.13854  0.15441  0.60770  1.0000
  C   C37       1.0  0.31743  0.30302  0.13940  1.0000
  C   C38       1.0  0.68257  0.69698  0.86060  1.0000
  C   C39       1.0  0.19333  0.19033  0.06792  1.0000
  C   C40       1.0  0.80667  0.80967  0.93208  1.0000
  C   C41       1.0  0.14542  0.13807  0.13330  1.0000
  C   C42       1.0  0.85459  0.86193  0.86670  1.0000
  C   C43       1.0  0.03235  0.02898  0.06844  1.0000
  C   C44       1.0  0.96766  0.97102  0.93156  1.0000
  C   C45       1.0  0.98229  0.97288  0.13356  1.0000
  C   C46       1.0  0.01771  0.02712  0.86644  1.0000
  C   C47       1.0  0.12664  0.13511  0.93295  1.0000
  C   C48       1.0  0.87336  0.86489  0.06705  1.0000
  N   N1        1.0  0.44308  0.65923  0.50514  1.0000
  N   N2        1.0  0.55692  0.34077  0.49486  1.0000
  N   N3        1.0  0.24554  0.57881  0.32406  1.0000
  N   N4        1.0  0.75446  0.42119  0.67594  1.0000
  N   N5        1.0  0.27028  0.51108  0.48835  1.0000
  N   N6        1.0  0.72972  0.48892  0.51165  1.0000
  N   N7        1.0  0.67423  0.51212  0.08034  1.0000
  N   N8        1.0  0.32577  0.48788  0.91967  1.0000
  N   N9        1.0  0.66512  0.29243  0.93114  1.0000
  N   N10       1.0  0.33488  0.70757  0.06886  1.0000
  N   N11       1.0  0.66491  0.33915  0.13771  1.0000
  N   N12       1.0  0.33509  0.66085  0.86229  1.0000
  O   O1        1.0  0.60629  0.67360  0.28666  1.0000
  O   O2        1.0  0.39371  0.32641  0.71334  1.0000
  O   O3        1.0  0.54139  0.83443  0.43063  1.0000
  O   O4        1.0  0.45861  0.16557  0.56937  1.0000
  O   O5        1.0  0.33661  0.37443  0.08690  1.0000
  O   O6        1.0  0.66338  0.62557  0.91309  1.0000
  O   O7        1.0  0.39621  0.31840  0.24894  1.0000
  O   O8        1.0  0.60379  0.68160  0.75105  1.0000
