data_image0
_chemical_formula_structural       Cu2H40C56N4O16
_chemical_formula_sum              "Cu2 H40 C56 N4 O16"
_cell_length_a       11.8819
_cell_length_b       11.9063
_cell_length_c       12.243
_cell_angle_alpha    65.879
_cell_angle_beta     65.8263
_cell_angle_gamma    67.4254

_space_group_name_H-M_alt    "P 1"
_space_group_IT_number       1

loop_
  _space_group_symop_operation_xyz
  'x, y, z'

loop_
  _atom_site_type_symbol
  _atom_site_label
  _atom_site_symmetry_multiplicity
  _atom_site_fract_x
  _atom_site_fract_y
  _atom_site_fract_z
  _atom_site_occupancy
  Cu  Cu1       1.0  0.16871  0.83125  0.75003  1.0000
  Cu  Cu2       1.0  0.83129  0.16875  0.24996  1.0000
  H   H1        1.0  0.87762  0.02681  0.56261  1.0000
  H   H2        1.0  0.97308  0.12293  0.93731  1.0000
  H   H3        1.0  0.12238  0.97319  0.43739  1.0000
  H   H4        1.0  0.02692  0.87707  0.06269  1.0000
  H   H5        1.0  0.67082  0.11356  0.50841  1.0000
  H   H6        1.0  0.88636  0.32929  0.99169  1.0000
  H   H7        1.0  0.32919  0.88643  0.49159  1.0000
  H   H8        1.0  0.11364  0.67071  0.00831  1.0000
  H   H9        1.0  0.46719  0.96298  0.87780  1.0000
  H   H10       1.0  0.03716  0.53219  0.62225  1.0000
  H   H11       1.0  0.53282  0.03702  0.12220  1.0000
  H   H12       1.0  0.96283  0.46781  0.37775  1.0000
  H   H13       1.0  0.66671  0.87148  0.94663  1.0000
  H   H14       1.0  0.12863  0.33318  0.55324  1.0000
  H   H15       1.0  0.33329  0.12852  0.05338  1.0000
  H   H16       1.0  0.87137  0.66683  0.44676  1.0000
  H   H17       1.0  0.47101  0.10948  0.55803  1.0000
  H   H18       1.0  0.89062  0.52889  0.94197  1.0000
  H   H19       1.0  0.52899  0.89052  0.44198  1.0000
  H   H20       1.0  0.10938  0.47111  0.05803  1.0000
  H   H21       1.0  0.38409  0.03439  0.71341  1.0000
  H   H22       1.0  0.96624  0.61526  0.78655  1.0000
  H   H23       1.0  0.61592  0.96561  0.28659  1.0000
  H   H24       1.0  0.03375  0.38474  0.21344  1.0000
  H   H25       1.0  0.46811  0.33487  0.49351  1.0000
  H   H26       1.0  0.66505  0.53201  0.00634  1.0000
  H   H27       1.0  0.53189  0.66512  0.50649  1.0000
  H   H28       1.0  0.33496  0.46799  0.99366  1.0000
  H   H29       1.0  0.36889  0.54489  0.53928  1.0000
  H   H30       1.0  0.45454  0.63125  0.96079  1.0000
  H   H31       1.0  0.63111  0.45511  0.46072  1.0000
  H   H32       1.0  0.54545  0.36874  0.03921  1.0000
  H   H33       1.0  0.18362  0.35589  0.92028  1.0000
  H   H34       1.0  0.64422  0.81624  0.57992  1.0000
  H   H35       1.0  0.81638  0.64411  0.07972  1.0000
  H   H36       1.0  0.35577  0.18375  0.42008  1.0000
  H   H37       1.0  0.27509  0.15023  0.87586  1.0000
  H   H38       1.0  0.85037  0.72473  0.62412  1.0000
  H   H39       1.0  0.72490  0.84977  0.12415  1.0000
  H   H40       1.0  0.14962  0.27527  0.37588  1.0000
  C   C1        1.0  0.90651  0.88744  0.80024  1.0000
  C   C2        1.0  0.11257  0.09366  0.69966  1.0000
  C   C3        1.0  0.09349  0.11256  0.19975  1.0000
  C   C4        1.0  0.88743  0.90635  0.30035  1.0000
  C   C5        1.0  0.78641  0.94442  0.75996  1.0000
  C   C6        1.0  0.05562  0.21368  0.73996  1.0000
  C   C7        1.0  0.21359  0.05558  0.24005  1.0000
  C   C8        1.0  0.94438  0.78633  0.26003  1.0000
  C   C9        1.0  0.78861  0.01316  0.63568  1.0000
  C   C10       1.0  0.98677  0.21171  0.86426  1.0000
  C   C11       1.0  0.21139  0.98684  0.36432  1.0000
  C   C12       1.0  0.01323  0.78829  0.13574  1.0000
  C   C13       1.0  0.67615  0.06200  0.60383  1.0000
  C   C14       1.0  0.93796  0.32395  0.89621  1.0000
  C   C15       1.0  0.32385  0.93801  0.39617  1.0000
  C   C16       1.0  0.06203  0.67605  0.10379  1.0000
  C   C17       1.0  0.56037  0.97546  0.81373  1.0000
  C   C18       1.0  0.02467  0.43923  0.68629  1.0000
  C   C19       1.0  0.43963  0.02454  0.18627  1.0000
  C   C20       1.0  0.97533  0.56077  0.31371  1.0000
  C   C21       1.0  0.66965  0.92628  0.84976  1.0000
  C   C22       1.0  0.07381  0.33017  0.65019  1.0000
  C   C23       1.0  0.33035  0.07372  0.15024  1.0000
  C   C24       1.0  0.92619  0.66984  0.34981  1.0000
  C   C25       1.0  0.44428  0.10100  0.65751  1.0000
  C   C26       1.0  0.89933  0.55538  0.84247  1.0000
  C   C27       1.0  0.55572  0.89900  0.34249  1.0000
  C   C28       1.0  0.10067  0.44462  0.15752  1.0000
  C   C29       1.0  0.38088  0.22841  0.68194  1.0000
  C   C30       1.0  0.77181  0.61902  0.81797  1.0000
  C   C31       1.0  0.61912  0.77159  0.31806  1.0000
  C   C32       1.0  0.22819  0.38098  0.18203  1.0000
  C   C33       1.0  0.40565  0.34024  0.58700  1.0000
  C   C34       1.0  0.65965  0.59440  0.91295  1.0000
  C   C35       1.0  0.59436  0.65975  0.41301  1.0000
  C   C36       1.0  0.34035  0.40559  0.08705  1.0000
  C   C37       1.0  0.35111  0.45709  0.61233  1.0000
  C   C38       1.0  0.54258  0.64898  0.88772  1.0000
  C   C39       1.0  0.64889  0.54290  0.38766  1.0000
  C   C40       1.0  0.45742  0.35102  0.11228  1.0000
  C   C41       1.0  0.27271  0.46323  0.73304  1.0000
  C   C42       1.0  0.53664  0.72730  0.76707  1.0000
  C   C43       1.0  0.72729  0.53676  0.26696  1.0000
  C   C44       1.0  0.46336  0.27270  0.23294  1.0000
  C   C45       1.0  0.24725  0.35127  0.82729  1.0000
  C   C46       1.0  0.64888  0.75268  0.67281  1.0000
  C   C47       1.0  0.75275  0.64873  0.17271  1.0000
  C   C48       1.0  0.35112  0.24732  0.32719  1.0000
  C   C49       1.0  0.30013  0.23508  0.80175  1.0000
  C   C50       1.0  0.76530  0.69974  0.69824  1.0000
  C   C51       1.0  0.69987  0.76492  0.19825  1.0000
  C   C52       1.0  0.23470  0.30026  0.30175  1.0000
  C   C53       1.0  0.21452  0.58696  0.76476  1.0000
  C   C54       1.0  0.41282  0.78553  0.73535  1.0000
  C   C55       1.0  0.78548  0.41304  0.23523  1.0000
  C   C56       1.0  0.58718  0.21446  0.26466  1.0000
  N   N1        1.0  0.56505  0.04253  0.69252  1.0000
  N   N2        1.0  0.95757  0.43473  0.80754  1.0000
  N   N3        1.0  0.43495  0.95747  0.30748  1.0000
  N   N4        1.0  0.04243  0.56527  0.19246  1.0000
  O   O1        1.0  0.89458  0.85265  0.91442  1.0000
  O   O2        1.0  0.14733  0.10559  0.58546  1.0000
  O   O3        1.0  0.10543  0.14736  0.08558  1.0000
  O   O4        1.0  0.85267  0.89442  0.41454  1.0000
  O   O5        1.0  0.01040  0.88118  0.70775  1.0000
  O   O6        1.0  0.11881  0.98999  0.79200  1.0000
  O   O7        1.0  0.98961  0.11882  0.29224  1.0000
  O   O8        1.0  0.88120  0.01002  0.20800  1.0000
  O   O9        1.0  0.14375  0.58628  0.87446  1.0000
  O   O10       1.0  0.41356  0.85621  0.62572  1.0000
  O   O11       1.0  0.85625  0.41372  0.12553  1.0000
  O   O12       1.0  0.58643  0.14378  0.37429  1.0000
  O   O13       1.0  0.24118  0.68759  0.67609  1.0000
  O   O14       1.0  0.31192  0.75894  0.82404  1.0000
  O   O15       1.0  0.75882  0.31241  0.32390  1.0000
  O   O16       1.0  0.68808  0.24105  0.17597  1.0000
