data_image0
_chemical_formula_structural       Cu2H28C20S4N8O12
_chemical_formula_sum              "Cu2 H28 C20 S4 N8 O12"
_cell_length_a       6.81778
_cell_length_b       8.07782
_cell_length_c       13.2022
_cell_angle_alpha    89.9998
_cell_angle_beta     90.0001
_cell_angle_gamma    89.9997

_space_group_name_H-M_alt    "P 1"
_space_group_IT_number       1

loop_
  _space_group_symop_operation_xyz
  'x, y, z'

loop_
  _atom_site_type_symbol
  _atom_site_label
  _atom_site_symmetry_multiplicity
  _atom_site_fract_x
  _atom_site_fract_y
  _atom_site_fract_z
  _atom_site_occupancy
  Cu  Cu1       1.0  0.50000  0.50000  0.50000  1.0000
  Cu  Cu2       1.0  1.00000  0.00000  0.00000  1.0000
  H   H1        1.0  0.50000  0.45251  0.08627  1.0000
  H   H2        1.0  0.50000  0.54749  0.91373  1.0000
  H   H3        1.0  1.00000  0.95252  0.41373  1.0000
  H   H4        1.0  0.00000  0.04748  0.58627  1.0000
  H   H5        1.0  0.36809  0.31301  0.16917  1.0000
  H   H6        1.0  0.36809  0.68699  0.83083  1.0000
  H   H7        1.0  0.13192  0.81301  0.33084  1.0000
  H   H8        1.0  0.13192  0.18699  0.66916  1.0000
  H   H9        1.0  0.63192  0.68699  0.83083  1.0000
  H   H10       1.0  0.63191  0.31300  0.16917  1.0000
  H   H11       1.0  0.86808  0.18699  0.66916  1.0000
  H   H12       1.0  0.86808  0.81301  0.33084  1.0000
  H   H13       1.0  0.18348  0.33313  0.37913  1.0000
  H   H14       1.0  0.18348  0.66687  0.62087  1.0000
  H   H15       1.0  0.31652  0.83313  0.12087  1.0000
  H   H16       1.0  0.31652  0.16687  0.87913  1.0000
  H   H17       1.0  0.81652  0.66687  0.62087  1.0000
  H   H18       1.0  0.81652  0.33313  0.37913  1.0000
  H   H19       1.0  0.68348  0.16687  0.87913  1.0000
  H   H20       1.0  0.68348  0.83313  0.12087  1.0000
  H   H21       1.0  0.50000  0.14194  0.66173  1.0000
  H   H22       1.0  0.50000  0.85806  0.33827  1.0000
  H   H23       1.0  0.00000  0.64194  0.83827  1.0000
  H   H24       1.0  1.00000  0.35805  0.16173  1.0000
  H   H25       1.0  0.50000  0.16659  0.34761  1.0000
  H   H26       1.0  0.50000  0.83341  0.65239  1.0000
  H   H27       1.0  0.00000  0.66659  0.15239  1.0000
  H   H28       1.0  1.00000  0.33341  0.84761  1.0000
  C   C1        1.0  0.50000  0.38885  0.15959  1.0000
  C   C2        1.0  0.50000  0.61115  0.84041  1.0000
  C   C3        1.0  1.00000  0.88885  0.34041  1.0000
  C   C4        1.0  1.00000  0.11115  0.65959  1.0000
  C   C5        1.0  0.10225  0.40756  0.43356  1.0000
  C   C6        1.0  0.10225  0.59243  0.56644  1.0000
  C   C7        1.0  0.39775  0.90757  0.06644  1.0000
  C   C8        1.0  0.39776  0.09244  0.93356  1.0000
  C   C9        1.0  0.89776  0.59244  0.56644  1.0000
  C   C10       1.0  0.89775  0.40757  0.43356  1.0000
  C   C11       1.0  0.60225  0.09243  0.93356  1.0000
  C   C12       1.0  0.60224  0.90756  0.06644  1.0000
  C   C13       1.0  0.50000  0.07944  0.58866  1.0000
  C   C14       1.0  0.50000  0.92056  0.41134  1.0000
  C   C15       1.0  0.00000  0.57944  0.91134  1.0000
  C   C16       1.0  1.00000  0.42056  0.08866  1.0000
  C   C17       1.0  0.50000  0.09313  0.41635  1.0000
  C   C18       1.0  0.50000  0.90687  0.58366  1.0000
  C   C19       1.0  1.00000  0.59312  0.08365  1.0000
  C   C20       1.0  0.00000  0.40687  0.91634  1.0000
  S   S1        1.0  0.50000  0.54400  0.25509  1.0000
  S   S2        1.0  0.50000  0.45600  0.74491  1.0000
  S   S3        1.0  1.00000  0.04400  0.24491  1.0000
  S   S4        1.0  0.00000  0.95600  0.75509  1.0000
  N   N1        1.0  0.20369  0.50000  0.50000  1.0000
  N   N2        1.0  0.29631  0.00000  0.00000  1.0000
  N   N3        1.0  0.79632  0.50000  0.50000  1.0000
  N   N4        1.0  0.70368  0.00000  1.00000  1.0000
  N   N5        1.0  0.50000  0.17433  0.50518  1.0000
  N   N6        1.0  0.50000  0.82567  0.49482  1.0000
  N   N7        1.0  0.00000  0.67433  0.99482  1.0000
  N   N8        1.0  1.00000  0.32567  0.00518  1.0000
  O   O1        1.0  0.50000  0.44368  0.35116  1.0000
  O   O2        1.0  0.50000  0.55632  0.64884  1.0000
  O   O3        1.0  1.00000  0.94368  0.14884  1.0000
  O   O4        1.0  1.00000  0.05632  0.85116  1.0000
  O   O5        1.0  0.31980  0.64077  0.24419  1.0000
  O   O6        1.0  0.31980  0.35923  0.75580  1.0000
  O   O7        1.0  0.18020  0.14077  0.25581  1.0000
  O   O8        1.0  0.18021  0.85923  0.74419  1.0000
  O   O9        1.0  0.68021  0.35923  0.75581  1.0000
  O   O10       1.0  0.68020  0.64077  0.24419  1.0000
  O   O11       1.0  0.81980  0.85923  0.74419  1.0000
  O   O12       1.0  0.81980  0.14077  0.25581  1.0000
