data_image0
_chemical_formula_structural       Na4H52C72O4
_chemical_formula_sum              "Na4 H52 C72 O4"
_cell_length_a       6.17928
_cell_length_b       11.5678
_cell_length_c       18.056
_cell_angle_alpha    90.7686
_cell_angle_beta     90
_cell_angle_gamma    90

_space_group_name_H-M_alt    "P 1"
_space_group_IT_number       1

loop_
  _space_group_symop_operation_xyz
  'x, y, z'

loop_
  _atom_site_type_symbol
  _atom_site_label
  _atom_site_symmetry_multiplicity
  _atom_site_fract_x
  _atom_site_fract_y
  _atom_site_fract_z
  _atom_site_occupancy
  Na  Na1       1.0  0.17721  0.41491  0.46337  1.0000
  Na  Na2       1.0  0.67722  0.58508  0.03663  1.0000
  Na  Na3       1.0  0.82278  0.58508  0.53662  1.0000
  Na  Na4       1.0  0.32278  0.41492  0.96338  1.0000
  H   H1        1.0  0.23423  0.57717  0.31446  1.0000
  H   H2        1.0  0.73425  0.42284  0.18552  1.0000
  H   H3        1.0  0.76577  0.42284  0.68551  1.0000
  H   H4        1.0  0.26574  0.57718  0.81448  1.0000
  H   H5        1.0  0.15286  0.37810  0.26839  1.0000
  H   H6        1.0  0.65285  0.62189  0.23160  1.0000
  H   H7        1.0  0.84715  0.62191  0.73159  1.0000
  H   H8        1.0  0.34715  0.37812  0.76841  1.0000
  H   H9        1.0  0.42318  0.22285  0.28784  1.0000
  H   H10       1.0  0.92318  0.77715  0.21216  1.0000
  H   H11       1.0  0.57681  0.77716  0.71214  1.0000
  H   H12       1.0  0.07683  0.22286  0.78785  1.0000
  H   H13       1.0  0.88800  0.24515  0.47076  1.0000
  H   H14       1.0  0.38802  0.75485  0.02924  1.0000
  H   H15       1.0  0.11199  0.75485  0.52924  1.0000
  H   H16       1.0  0.61197  0.24513  0.97076  1.0000
  H   H17       1.0  0.17556  0.09711  0.46379  1.0000
  H   H18       1.0  0.67557  0.90290  0.03622  1.0000
  H   H19       1.0  0.82442  0.90290  0.53622  1.0000
  H   H20       1.0  0.32443  0.09708  0.96378  1.0000
  H   H21       1.0  0.25736  0.99675  0.34378  1.0000
  H   H22       1.0  0.75736  0.00326  0.15623  1.0000
  H   H23       1.0  0.74263  0.00325  0.65623  1.0000
  H   H24       1.0  0.24266  0.99674  0.84377  1.0000
  H   H25       1.0  0.04715  0.04679  0.23130  1.0000
  H   H26       1.0  0.54715  0.95320  0.26871  1.0000
  H   H27       1.0  0.95288  0.95321  0.76870  1.0000
  H   H28       1.0  0.45291  0.04680  0.73129  1.0000
  H   H29       1.0  0.76542  0.19848  0.23771  1.0000
  H   H30       1.0  0.26541  0.80152  0.26229  1.0000
  H   H31       1.0  0.23461  0.80153  0.76228  1.0000
  H   H32       1.0  0.73464  0.19849  0.73772  1.0000
  H   H33       1.0  0.25335  0.68678  0.43379  1.0000
  H   H34       1.0  0.75338  0.31319  0.06620  1.0000
  H   H35       1.0  0.74663  0.31320  0.56620  1.0000
  H   H36       1.0  0.24660  0.68681  0.93381  1.0000
  H   H37       1.0  0.32001  0.89601  0.45497  1.0000
  H   H38       1.0  0.82006  0.10397  0.04503  1.0000
  H   H39       1.0  0.67996  0.10397  0.54502  1.0000
  H   H40       1.0  0.17993  0.89604  0.95498  1.0000
  H   H41       1.0  0.67807  0.98221  0.42067  1.0000
  H   H42       1.0  0.17811  0.01778  0.07933  1.0000
  H   H43       1.0  0.32190  0.01779  0.57934  1.0000
  H   H44       1.0  0.82188  0.98222  0.92066  1.0000
  H   H45       1.0  0.97145  0.85376  0.37407  1.0000
  H   H46       1.0  0.47148  0.14624  0.12593  1.0000
  H   H47       1.0  0.02855  0.14626  0.62594  1.0000
  H   H48       1.0  0.52852  0.85375  0.87406  1.0000
  H   H49       1.0  0.90534  0.64322  0.35609  1.0000
  H   H50       1.0  0.40537  0.35679  0.14390  1.0000
  H   H51       1.0  0.09466  0.35680  0.64391  1.0000
  H   H52       1.0  0.59463  0.64320  0.85609  1.0000
  C   C1        1.0  0.67511  0.43722  0.39063  1.0000
  C   C2        1.0  0.17513  0.56278  0.10937  1.0000
  C   C3        1.0  0.32488  0.56278  0.60936  1.0000
  C   C4        1.0  0.82488  0.43723  0.89064  1.0000
  C   C5        1.0  0.52654  0.52875  0.37167  1.0000
  C   C6        1.0  0.02658  0.47124  0.12832  1.0000
  C   C7        1.0  0.47345  0.47125  0.62831  1.0000
  C   C8        1.0  0.97343  0.52876  0.87169  1.0000
  C   C9        1.0  0.34182  0.50584  0.32846  1.0000
  C   C10       1.0  0.84185  0.49416  0.17154  1.0000
  C   C11       1.0  0.65818  0.49417  0.67153  1.0000
  C   C12       1.0  0.15815  0.50585  0.82847  1.0000
  C   C13       1.0  0.29883  0.39513  0.30037  1.0000
  C   C14       1.0  0.79882  0.60488  0.19963  1.0000
  C   C15       1.0  0.70117  0.60489  0.69961  1.0000
  C   C16       1.0  0.20117  0.39513  0.80038  1.0000
  C   C17       1.0  0.45138  0.30836  0.31211  1.0000
  C   C18       1.0  0.95139  0.69165  0.18788  1.0000
  C   C19       1.0  0.54862  0.69166  0.68787  1.0000
  C   C20       1.0  0.04862  0.30836  0.81213  1.0000
  C   C21       1.0  0.63953  0.32658  0.35440  1.0000
  C   C22       1.0  0.13955  0.67342  0.14559  1.0000
  C   C23       1.0  0.36045  0.67342  0.64558  1.0000
  C   C24       1.0  0.86046  0.32658  0.85442  1.0000
  C   C25       1.0  0.80490  0.23414  0.35480  1.0000
  C   C26       1.0  0.30493  0.76586  0.14520  1.0000
  C   C27       1.0  0.19509  0.76586  0.64520  1.0000
  C   C28       1.0  0.69509  0.23414  0.85480  1.0000
  C   C29       1.0  0.92424  0.20306  0.41795  1.0000
  C   C30       1.0  0.42426  0.79694  0.08205  1.0000
  C   C31       1.0  0.07574  0.79694  0.58205  1.0000
  C   C32       1.0  0.57575  0.20305  0.91795  1.0000
  C   C33       1.0  0.08468  0.11820  0.41402  1.0000
  C   C34       1.0  0.58470  0.88180  0.08598  1.0000
  C   C35       1.0  0.91531  0.88181  0.58598  1.0000
  C   C36       1.0  0.41531  0.11818  0.91402  1.0000
  C   C37       1.0  0.12976  0.06154  0.34704  1.0000
  C   C38       1.0  0.62978  0.93846  0.15297  1.0000
  C   C39       1.0  0.87024  0.93846  0.65297  1.0000
  C   C40       1.0  0.37025  0.06153  0.84703  1.0000
  C   C41       1.0  0.01112  0.08953  0.28403  1.0000
  C   C42       1.0  0.51116  0.91046  0.21597  1.0000
  C   C43       1.0  0.98888  0.91046  0.71596  1.0000
  C   C44       1.0  0.48889  0.08954  0.78403  1.0000
  C   C45       1.0  0.85159  0.17458  0.28795  1.0000
  C   C46       1.0  0.35162  0.82541  0.21205  1.0000
  C   C47       1.0  0.14841  0.82541  0.71205  1.0000
  C   C48       1.0  0.64841  0.17460  0.78794  1.0000
  C   C49       1.0  0.57338  0.65036  0.39255  1.0000
  C   C50       1.0  0.07341  0.34963  0.10744  1.0000
  C   C51       1.0  0.42661  0.34964  0.60743  1.0000
  C   C52       1.0  0.92659  0.65037  0.89257  1.0000
  C   C53       1.0  0.41092  0.72377  0.42071  1.0000
  C   C54       1.0  0.91097  0.27622  0.07928  1.0000
  C   C55       1.0  0.58905  0.27622  0.57929  1.0000
  C   C56       1.0  0.08903  0.72379  0.92072  1.0000
  C   C57       1.0  0.44841  0.84178  0.43195  1.0000
  C   C58       1.0  0.94845  0.15821  0.06805  1.0000
  C   C59       1.0  0.55158  0.15821  0.56805  1.0000
  C   C60       1.0  0.05155  0.84179  0.93196  1.0000
  C   C61       1.0  0.64912  0.88954  0.41425  1.0000
  C   C62       1.0  0.14916  0.11045  0.08575  1.0000
  C   C63       1.0  0.35088  0.11046  0.58576  1.0000
  C   C64       1.0  0.85083  0.88954  0.91425  1.0000
  C   C65       1.0  0.81445  0.81704  0.38805  1.0000
  C   C66       1.0  0.31448  0.18296  0.11195  1.0000
  C   C67       1.0  0.18554  0.18297  0.61195  1.0000
  C   C68       1.0  0.68551  0.81704  0.88805  1.0000
  C   C69       1.0  0.77832  0.69893  0.37828  1.0000
  C   C70       1.0  0.27836  0.30108  0.12171  1.0000
  C   C71       1.0  0.22166  0.30109  0.62172  1.0000
  C   C72       1.0  0.72164  0.69892  0.87829  1.0000
  O   O1        1.0  0.83309  0.45647  0.43733  1.0000
  O   O2        1.0  0.33311  0.54353  0.06266  1.0000
  O   O3        1.0  0.16689  0.54353  0.56266  1.0000
  O   O4        1.0  0.66687  0.45647  0.93734  1.0000
