data_image0
_chemical_formula_structural       Cu2H16C14I2N4O4
_chemical_formula_sum              "Cu2 H16 C14 I2 N4 O4"
_cell_length_a       4.21816
_cell_length_b       9.86491
_cell_length_c       11.0923
_cell_angle_alpha    82.5791
_cell_angle_beta     89.6122
_cell_angle_gamma    83.0346

_space_group_name_H-M_alt    "P 1"
_space_group_IT_number       1

loop_
  _space_group_symop_operation_xyz
  'x, y, z'

loop_
  _atom_site_type_symbol
  _atom_site_label
  _atom_site_symmetry_multiplicity
  _atom_site_fract_x
  _atom_site_fract_y
  _atom_site_fract_z
  _atom_site_occupancy
  Cu  Cu1       1.0  0.81096  0.11117  0.47818  1.0000
  Cu  Cu2       1.0  0.18902  0.88883  0.52182  1.0000
  H   H1        1.0  0.39604  0.36636  0.47665  1.0000
  H   H2        1.0  0.60395  0.63364  0.52335  1.0000
  H   H3        1.0  0.25771  0.58977  0.34325  1.0000
  H   H4        1.0  0.74230  0.41023  0.65675  1.0000
  H   H5        1.0  0.93445  0.43467  0.08425  1.0000
  H   H6        1.0  0.06556  0.56533  0.91575  1.0000
  H   H7        1.0  0.23776  0.21984  0.14841  1.0000
  H   H8        1.0  0.76225  0.78015  0.85159  1.0000
  H   H9        1.0  0.17912  0.12080  0.28700  1.0000
  H   H10       1.0  0.82088  0.87919  0.71301  1.0000
  H   H11       1.0  0.15774  0.85970  0.98743  1.0000
  H   H12       1.0  0.84226  0.14030  0.01257  1.0000
  H   H13       1.0  0.41816  0.93368  0.08199  1.0000
  H   H14       1.0  0.58184  0.06632  0.91801  1.0000
  H   H15       1.0  0.00911  0.92709  0.12432  1.0000
  H   H16       1.0  0.99089  0.07290  0.87569  1.0000
  C   C1        1.0  0.51213  0.38725  0.38926  1.0000
  C   C2        1.0  0.48786  0.61275  0.61073  1.0000
  C   C3        1.0  0.43393  0.51029  0.31524  1.0000
  C   C4        1.0  0.56607  0.48971  0.68476  1.0000
  C   C5        1.0  0.58797  0.52827  0.20223  1.0000
  C   C6        1.0  0.41203  0.47173  0.79777  1.0000
  C   C7        1.0  0.80950  0.42400  0.17042  1.0000
  C   C8        1.0  0.19050  0.57600  0.82958  1.0000
  C   C9        1.0  0.87965  0.30153  0.25175  1.0000
  C   C10       1.0  0.12035  0.69847  0.74825  1.0000
  C   C11       1.0  0.52213  0.65707  0.11618  1.0000
  C   C12       1.0  0.47788  0.34293  0.88382  1.0000
  C   C13       1.0  0.21384  0.87474  0.08082  1.0000
  C   C14       1.0  0.78617  0.12527  0.91918  1.0000
  I   I1        1.0  0.29074  0.11004  0.62630  1.0000
  I   I2        1.0  0.70925  0.88997  0.37370  1.0000
  N   N1        1.0  0.72984  0.28377  0.36063  1.0000
  N   N2        1.0  0.27016  0.71622  0.63937  1.0000
  N   N3        1.0  0.09462  0.19795  0.22084  1.0000
  N   N4        1.0  0.90538  0.80205  0.77916  1.0000
  O   O1        1.0  0.28514  0.74388  0.15525  1.0000
  O   O2        1.0  0.71487  0.25613  0.84476  1.0000
  O   O3        1.0  0.66594  0.68254  0.02056  1.0000
  O   O4        1.0  0.33404  0.31745  0.97944  1.0000
