data_image0
_chemical_formula_structural       CuAg2H6C14N2O8
_chemical_formula_sum              "Cu1 Ag2 H6 C14 N2 O8"
_cell_length_a       5.18296
_cell_length_b       8.67509
_cell_length_c       8.60954
_cell_angle_alpha    107.268
_cell_angle_beta     94.1825
_cell_angle_gamma    99.5972

_space_group_name_H-M_alt    "P 1"
_space_group_IT_number       1

loop_
  _space_group_symop_operation_xyz
  'x, y, z'

loop_
  _atom_site_type_symbol
  _atom_site_label
  _atom_site_symmetry_multiplicity
  _atom_site_fract_x
  _atom_site_fract_y
  _atom_site_fract_z
  _atom_site_occupancy
  Cu  Cu1       1.0  1.00000  0.00000  1.00000  1.0000
  Ag  Ag1       1.0  0.81837  0.04571  0.60872  1.0000
  Ag  Ag2       1.0  0.18163  0.95429  0.39128  1.0000
  H   H1        1.0  0.26086  0.53667  0.90036  1.0000
  H   H2        1.0  0.73914  0.46333  0.09964  1.0000
  H   H3        1.0  0.81733  0.43674  0.55371  1.0000
  H   H4        1.0  0.18267  0.56326  0.44629  1.0000
  H   H5        1.0  0.07575  0.72880  0.69427  1.0000
  H   H6        1.0  0.92425  0.27120  0.30573  1.0000
  C   C1        1.0  0.59755  0.72820  0.92559  1.0000
  C   C2        1.0  0.40244  0.27180  0.07441  1.0000
  C   C3        1.0  0.44133  0.57308  0.85219  1.0000
  C   C4        1.0  0.55867  0.42692  0.14781  1.0000
  C   C5        1.0  0.51957  0.46573  0.71586  1.0000
  C   C6        1.0  0.48043  0.53426  0.28414  1.0000
  C   C7        1.0  0.75190  0.51936  0.65810  1.0000
  C   C8        1.0  0.24810  0.48064  0.34190  1.0000
  C   C9        1.0  0.89599  0.67827  0.73537  1.0000
  C   C10       1.0  0.10401  0.32173  0.26463  1.0000
  C   C11       1.0  0.46612  0.14808  0.92612  1.0000
  C   C12       1.0  0.53388  0.85192  0.07388  1.0000
  C   C13       1.0  0.34831  0.29812  0.63253  1.0000
  C   C14       1.0  0.65169  0.70188  0.36747  1.0000
  N   N1        1.0  0.18088  0.22093  0.13314  1.0000
  N   N2        1.0  0.81912  0.77907  0.86686  1.0000
  O   O1        1.0  0.29241  0.01328  0.86553  1.0000
  O   O2        1.0  0.70758  0.98672  0.13447  1.0000
  O   O3        1.0  0.67956  0.18122  0.87257  1.0000
  O   O4        1.0  0.32044  0.81878  0.12743  1.0000
  O   O5        1.0  0.12930  0.27266  0.68630  1.0000
  O   O6        1.0  0.87070  0.72734  0.31370  1.0000
  O   O7        1.0  0.43583  0.20044  0.51565  1.0000
  O   O8        1.0  0.56417  0.79956  0.48435  1.0000
