data_image0
_chemical_formula_structural       Nd4H32C56N8O34
_chemical_formula_sum              "Nd4 H32 C56 N8 O34"
_cell_length_a       10.5083
_cell_length_b       12.1317
_cell_length_c       12.689
_cell_angle_alpha    109.943
_cell_angle_beta     100.717
_cell_angle_gamma    90.6609

_space_group_name_H-M_alt    "P 1"
_space_group_IT_number       1

loop_
  _space_group_symop_operation_xyz
  'x, y, z'

loop_
  _atom_site_type_symbol
  _atom_site_label
  _atom_site_symmetry_multiplicity
  _atom_site_fract_x
  _atom_site_fract_y
  _atom_site_fract_z
  _atom_site_occupancy
  Nd  Nd1       1.0  0.99135  0.32205  0.89006  1.0000
  Nd  Nd2       1.0  0.00864  0.67795  0.10994  1.0000
  Nd  Nd3       1.0  0.14388  0.05989  0.64381  1.0000
  Nd  Nd4       1.0  0.85612  0.94011  0.35619  1.0000
  H   H1        1.0  0.66055  0.22704  0.89047  1.0000
  H   H2        1.0  0.33945  0.77296  0.10953  1.0000
  H   H3        1.0  0.86826  0.86307  0.87250  1.0000
  H   H4        1.0  0.13175  0.13693  0.12750  1.0000
  H   H5        1.0  0.62811  0.86655  0.87482  1.0000
  H   H6        1.0  0.37189  0.13345  0.12518  1.0000
  H   H7        1.0  0.52273  0.05308  0.88604  1.0000
  H   H8        1.0  0.47727  0.94692  0.11397  1.0000
  H   H9        1.0  0.28054  0.87366  0.72569  1.0000
  H   H10       1.0  0.71946  0.12633  0.27432  1.0000
  H   H11       1.0  0.21537  0.95581  0.82237  1.0000
  H   H12       1.0  0.78463  0.04419  0.17764  1.0000
  H   H13       1.0  0.21370  0.51445  0.79913  1.0000
  H   H14       1.0  0.78630  0.48556  0.20087  1.0000
  H   H15       1.0  0.54115  0.31391  0.83947  1.0000
  H   H16       1.0  0.45885  0.68609  0.16053  1.0000
  H   H17       1.0  0.60030  0.68929  0.93047  1.0000
  H   H18       1.0  0.39970  0.31071  0.06953  1.0000
  H   H19       1.0  0.63964  0.29386  0.67043  1.0000
  H   H20       1.0  0.36036  0.70614  0.32957  1.0000
  H   H21       1.0  0.40604  0.26097  0.56028  1.0000
  H   H22       1.0  0.59396  0.73902  0.43972  1.0000
  H   H23       1.0  0.52106  0.95898  0.30901  1.0000
  H   H24       1.0  0.47894  0.04102  0.69099  1.0000
  H   H25       1.0  0.34787  0.09076  0.37570  1.0000
  H   H26       1.0  0.65213  0.90924  0.62429  1.0000
  H   H27       1.0  0.22191  0.39343  0.57618  1.0000
  H   H28       1.0  0.77809  0.60657  0.42382  1.0000
  H   H29       1.0  0.13360  0.58489  0.34328  1.0000
  H   H30       1.0  0.86640  0.41511  0.65672  1.0000
  H   H31       1.0  0.99556  0.21912  0.23650  1.0000
  H   H32       1.0  0.00444  0.78088  0.76350  1.0000
  C   C1        1.0  0.70016  0.14278  0.88257  1.0000
  C   C2        1.0  0.29984  0.85722  0.11743  1.0000
  C   C3        1.0  0.88200  0.03919  0.87009  1.0000
  C   C4        1.0  0.11800  0.96081  0.12991  1.0000
  C   C5        1.0  0.81560  0.93969  0.87172  1.0000
  C   C6        1.0  0.18441  0.06031  0.12828  1.0000
  C   C7        1.0  0.68411  0.94280  0.87523  1.0000
  C   C8        1.0  0.31589  0.05720  0.12477  1.0000
  C   C9        1.0  0.62517  0.04665  0.88173  1.0000
  C   C10       1.0  0.37483  0.95335  0.11827  1.0000
  C   C11       1.0  0.28427  0.29016  0.77516  1.0000
  C   C12       1.0  0.71573  0.70984  0.22484  1.0000
  C   C13       1.0  0.83691  0.16147  0.60531  1.0000
  C   C14       1.0  0.16309  0.83853  0.39469  1.0000
  C   C15       1.0  0.69739  0.14453  0.54487  1.0000
  C   C16       1.0  0.30261  0.85547  0.45514  1.0000
  C   C17       1.0  0.31777  0.50958  0.82317  1.0000
  C   C18       1.0  0.68222  0.49042  0.17683  1.0000
  C   C19       1.0  0.36923  0.40262  0.81686  1.0000
  C   C20       1.0  0.63077  0.59738  0.18314  1.0000
  C   C21       1.0  0.50373  0.39892  0.84813  1.0000
  C   C22       1.0  0.49627  0.60108  0.15187  1.0000
  C   C23       1.0  0.58781  0.50108  0.89133  1.0000
  C   C24       1.0  0.41219  0.49892  0.10868  1.0000
  C   C25       1.0  0.40376  0.60990  0.86074  1.0000
  C   C26       1.0  0.59624  0.39010  0.13926  1.0000
  C   C27       1.0  0.73138  0.49796  0.93365  1.0000
  C   C28       1.0  0.26862  0.50204  0.06636  1.0000
  C   C29       1.0  0.53676  0.60850  0.89758  1.0000
  C   C30       1.0  0.46324  0.39150  0.10242  1.0000
  C   C31       1.0  0.60748  0.22173  0.58950  1.0000
  C   C32       1.0  0.39251  0.77827  0.41050  1.0000
  C   C33       1.0  0.47976  0.20362  0.52833  1.0000
  C   C34       1.0  0.52024  0.79638  0.47167  1.0000
  C   C35       1.0  0.54228  0.03480  0.38797  1.0000
  C   C36       1.0  0.45772  0.96520  0.61203  1.0000
  C   C37       1.0  0.44676  0.10857  0.42571  1.0000
  C   C38       1.0  0.55325  0.89143  0.57429  1.0000
  C   C39       1.0  0.08715  0.18424  0.43621  1.0000
  C   C40       1.0  0.91285  0.81576  0.56379  1.0000
  C   C41       1.0  0.10436  0.29494  0.40981  1.0000
  C   C42       1.0  0.89564  0.70505  0.59019  1.0000
  C   C43       1.0  0.17576  0.39492  0.49253  1.0000
  C   C44       1.0  0.82424  0.60508  0.50747  1.0000
  C   C45       1.0  0.06378  0.39996  0.27566  1.0000
  C   C46       1.0  0.93622  0.60004  0.72434  1.0000
  C   C47       1.0  0.12581  0.50332  0.36071  1.0000
  C   C48       1.0  0.87419  0.49668  0.63929  1.0000
  C   C49       1.0  0.04968  0.29760  0.30153  1.0000
  C   C50       1.0  0.95032  0.70240  0.69847  1.0000
  C   C51       1.0  0.18260  0.49745  0.46688  1.0000
  C   C52       1.0  0.81740  0.50255  0.53312  1.0000
  C   C53       1.0  0.02230  0.03908  0.86248  1.0000
  C   C54       1.0  0.97770  0.96092  0.13752  1.0000
  C   C55       1.0  0.01922  0.39518  0.15471  1.0000
  C   C56       1.0  0.98078  0.60482  0.84529  1.0000
  N   N1        1.0  0.82558  0.13935  0.87440  1.0000
  N   N2        1.0  0.17443  0.86065  0.12560  1.0000
  N   N3        1.0  0.66575  0.05245  0.44599  1.0000
  N   N4        1.0  0.33425  0.94755  0.55401  1.0000
  N   N5        1.0  0.35288  0.72103  0.85773  1.0000
  N   N6        1.0  0.64712  0.27897  0.14227  1.0000
  N   N7        1.0  0.25654  0.60230  0.55454  1.0000
  N   N8        1.0  0.74346  0.39770  0.44546  1.0000
  O   O1        1.0  0.16032  0.29157  0.76092  1.0000
  O   O2        1.0  0.83968  0.70843  0.23908  1.0000
  O   O3        1.0  0.33954  0.19448  0.75085  1.0000
  O   O4        1.0  0.66046  0.80553  0.24915  1.0000
  O   O5        1.0  0.91278  0.08509  0.56064  1.0000
  O   O6        1.0  0.08722  0.91491  0.43937  1.0000
  O   O7        1.0  0.87137  0.24910  0.69584  1.0000
  O   O8        1.0  0.12863  0.75090  0.30416  1.0000
  O   O9        1.0  0.23491  0.72104  0.82181  1.0000
  O   O10       1.0  0.76509  0.27896  0.17819  1.0000
  O   O11       1.0  0.79447  0.59616  0.99247  1.0000
  O   O12       1.0  0.20553  0.40384  0.00753  1.0000
  O   O13       1.0  0.77739  0.39776  0.90803  1.0000
  O   O14       1.0  0.22260  0.60224  0.09197  1.0000
  O   O15       1.0  0.43121  0.80904  0.88987  1.0000
  O   O16       1.0  0.56879  0.19096  0.11013  1.0000
  O   O17       1.0  0.06594  0.12155  0.83001  1.0000
  O   O18       1.0  0.93406  0.87845  0.16999  1.0000
  O   O19       1.0  0.16452  0.17535  0.52246  1.0000
  O   O20       1.0  0.83547  0.82465  0.47754  1.0000
  O   O21       1.0  0.99681  0.10855  0.37022  1.0000
  O   O22       1.0  0.00319  0.89145  0.62978  1.0000
  O   O23       1.0  0.35601  0.58733  0.61657  1.0000
  O   O24       1.0  0.64399  0.41267  0.38343  1.0000
  O   O25       1.0  0.21599  0.69998  0.56166  1.0000
  O   O26       1.0  0.78401  0.30002  0.43834  1.0000
  O   O27       1.0  0.08938  0.96281  0.88427  1.0000
  O   O28       1.0  0.91062  0.03719  0.11573  1.0000
  O   O29       1.0  0.27003  0.95653  0.76502  1.0000
  O   O30       1.0  0.72998  0.04347  0.23498  1.0000
  O   O31       1.0  0.00804  0.29551  0.07583  1.0000
  O   O32       1.0  0.99196  0.70449  0.92417  1.0000
  O   O33       1.0  0.99825  0.49077  0.13506  1.0000
  O   O34       1.0  0.00175  0.50923  0.86494  1.0000
