data_image0
_chemical_formula_structural       Sm4H32C56N8O34
_chemical_formula_sum              "Sm4 H32 C56 N8 O34"
_cell_length_a       10.457
_cell_length_b       12.077
_cell_length_c       12.689
_cell_angle_alpha    110.038
_cell_angle_beta     100.77
_cell_angle_gamma    90.6235

_space_group_name_H-M_alt    "P 1"
_space_group_IT_number       1

loop_
  _space_group_symop_operation_xyz
  'x, y, z'

loop_
  _atom_site_type_symbol
  _atom_site_label
  _atom_site_symmetry_multiplicity
  _atom_site_fract_x
  _atom_site_fract_y
  _atom_site_fract_z
  _atom_site_occupancy
  Sm  Sm1       1.0  0.99222  0.32093  0.88792  1.0000
  Sm  Sm2       1.0  0.00778  0.67907  0.11208  1.0000
  Sm  Sm3       1.0  0.14452  0.06041  0.64202  1.0000
  Sm  Sm4       1.0  0.85548  0.93958  0.35798  1.0000
  H   H1        1.0  0.66189  0.22598  0.88697  1.0000
  H   H2        1.0  0.33811  0.77401  0.11303  1.0000
  H   H3        1.0  0.87443  0.86288  0.87209  1.0000
  H   H4        1.0  0.12557  0.13712  0.12791  1.0000
  H   H5        1.0  0.63261  0.86414  0.87218  1.0000
  H   H6        1.0  0.36740  0.13586  0.12782  1.0000
  H   H7        1.0  0.52475  0.05004  0.88153  1.0000
  H   H8        1.0  0.47525  0.94995  0.11847  1.0000
  H   H9        1.0  0.27948  0.87427  0.72059  1.0000
  H   H10       1.0  0.72052  0.12573  0.27941  1.0000
  H   H11       1.0  0.21851  0.95794  0.81986  1.0000
  H   H12       1.0  0.78150  0.04206  0.18014  1.0000
  H   H13       1.0  0.21489  0.51757  0.79906  1.0000
  H   H14       1.0  0.78511  0.48243  0.20094  1.0000
  H   H15       1.0  0.54207  0.31373  0.83865  1.0000
  H   H16       1.0  0.45793  0.68627  0.16135  1.0000
  H   H17       1.0  0.60418  0.69120  0.93436  1.0000
  H   H18       1.0  0.39582  0.30880  0.06564  1.0000
  H   H19       1.0  0.64214  0.29619  0.67035  1.0000
  H   H20       1.0  0.35786  0.70382  0.32965  1.0000
  H   H21       1.0  0.40760  0.26383  0.55981  1.0000
  H   H22       1.0  0.59240  0.73617  0.44019  1.0000
  H   H23       1.0  0.52135  0.95694  0.31084  1.0000
  H   H24       1.0  0.47864  0.04307  0.68916  1.0000
  H   H25       1.0  0.34809  0.09099  0.37650  1.0000
  H   H26       1.0  0.65191  0.90901  0.62350  1.0000
  H   H27       1.0  0.22137  0.39090  0.57477  1.0000
  H   H28       1.0  0.77863  0.60910  0.42523  1.0000
  H   H29       1.0  0.13403  0.58510  0.34353  1.0000
  H   H30       1.0  0.86597  0.41490  0.65648  1.0000
  H   H31       1.0  0.99146  0.21875  0.23496  1.0000
  H   H32       1.0  0.00854  0.78125  0.76504  1.0000
  C   C1        1.0  0.70253  0.14177  0.87954  1.0000
  C   C2        1.0  0.29747  0.85824  0.12046  1.0000
  C   C3        1.0  0.88655  0.03950  0.86893  1.0000
  C   C4        1.0  0.11345  0.96050  0.13107  1.0000
  C   C5        1.0  0.82073  0.93919  0.87052  1.0000
  C   C6        1.0  0.17927  0.06081  0.12948  1.0000
  C   C7        1.0  0.68826  0.94103  0.87269  1.0000
  C   C8        1.0  0.31174  0.05897  0.12731  1.0000
  C   C9        1.0  0.62791  0.04460  0.87823  1.0000
  C   C10       1.0  0.37209  0.95540  0.12177  1.0000
  C   C11       1.0  0.28336  0.29131  0.77246  1.0000
  C   C12       1.0  0.71664  0.70868  0.22753  1.0000
  C   C13       1.0  0.83922  0.16102  0.60628  1.0000
  C   C14       1.0  0.16078  0.83897  0.39372  1.0000
  C   C15       1.0  0.69923  0.14448  0.54576  1.0000
  C   C16       1.0  0.30077  0.85552  0.45423  1.0000
  C   C17       1.0  0.31927  0.51205  0.82369  1.0000
  C   C18       1.0  0.68072  0.48795  0.17631  1.0000
  C   C19       1.0  0.36988  0.40395  0.81636  1.0000
  C   C20       1.0  0.63012  0.59605  0.18364  1.0000
  C   C21       1.0  0.50493  0.39942  0.84814  1.0000
  C   C22       1.0  0.49507  0.60058  0.15186  1.0000
  C   C23       1.0  0.59016  0.50172  0.89279  1.0000
  C   C24       1.0  0.40984  0.49827  0.10720  1.0000
  C   C25       1.0  0.40631  0.61260  0.86282  1.0000
  C   C26       1.0  0.59369  0.38740  0.13718  1.0000
  C   C27       1.0  0.73440  0.49775  0.93520  1.0000
  C   C28       1.0  0.26560  0.50225  0.06480  1.0000
  C   C29       1.0  0.53975  0.61032  0.90023  1.0000
  C   C30       1.0  0.46025  0.38968  0.09977  1.0000
  C   C31       1.0  0.60943  0.22315  0.58981  1.0000
  C   C32       1.0  0.39056  0.77685  0.41019  1.0000
  C   C33       1.0  0.48120  0.20528  0.52849  1.0000
  C   C34       1.0  0.51880  0.79473  0.47151  1.0000
  C   C35       1.0  0.54300  0.03377  0.38928  1.0000
  C   C36       1.0  0.45700  0.96624  0.61072  1.0000
  C   C37       1.0  0.44753  0.10880  0.42646  1.0000
  C   C38       1.0  0.55247  0.89120  0.57354  1.0000
  C   C39       1.0  0.08404  0.18246  0.43480  1.0000
  C   C40       1.0  0.91596  0.81754  0.56520  1.0000
  C   C41       1.0  0.10253  0.29335  0.40818  1.0000
  C   C42       1.0  0.89746  0.70665  0.59182  1.0000
  C   C43       1.0  0.17533  0.39315  0.49132  1.0000
  C   C44       1.0  0.82467  0.60685  0.50868  1.0000
  C   C45       1.0  0.06266  0.39983  0.27482  1.0000
  C   C46       1.0  0.93734  0.60017  0.72518  1.0000
  C   C47       1.0  0.12598  0.50303  0.36051  1.0000
  C   C48       1.0  0.87402  0.49697  0.63950  1.0000
  C   C49       1.0  0.04732  0.29683  0.30008  1.0000
  C   C50       1.0  0.95268  0.70318  0.69992  1.0000
  C   C51       1.0  0.18302  0.49643  0.46639  1.0000
  C   C52       1.0  0.81699  0.50357  0.53362  1.0000
  C   C53       1.0  0.02741  0.04048  0.86156  1.0000
  C   C54       1.0  0.97259  0.95952  0.13844  1.0000
  C   C55       1.0  0.01810  0.39787  0.15452  1.0000
  C   C56       1.0  0.98190  0.60213  0.84548  1.0000
  N   N1        1.0  0.82885  0.13951  0.87247  1.0000
  N   N2        1.0  0.17115  0.86049  0.12752  1.0000
  N   N3        1.0  0.66716  0.05131  0.44731  1.0000
  N   N4        1.0  0.33284  0.94869  0.55269  1.0000
  N   N5        1.0  0.35611  0.72486  0.86078  1.0000
  N   N6        1.0  0.64389  0.27513  0.13922  1.0000
  N   N7        1.0  0.25743  0.60158  0.55442  1.0000
  N   N8        1.0  0.74257  0.39842  0.44558  1.0000
  O   O1        1.0  0.15903  0.29335  0.75915  1.0000
  O   O2        1.0  0.84096  0.70665  0.24085  1.0000
  O   O3        1.0  0.33799  0.19469  0.74538  1.0000
  O   O4        1.0  0.66200  0.80531  0.25462  1.0000
  O   O5        1.0  0.91530  0.08432  0.56108  1.0000
  O   O6        1.0  0.08470  0.91569  0.43892  1.0000
  O   O7        1.0  0.87363  0.24872  0.69727  1.0000
  O   O8        1.0  0.12637  0.75128  0.30273  1.0000
  O   O9        1.0  0.23809  0.72493  0.82250  1.0000
  O   O10       1.0  0.76191  0.27507  0.17751  1.0000
  O   O11       1.0  0.79778  0.59626  0.99510  1.0000
  O   O12       1.0  0.20222  0.40373  0.00490  1.0000
  O   O13       1.0  0.78063  0.39705  0.90845  1.0000
  O   O14       1.0  0.21937  0.60294  0.09154  1.0000
  O   O15       1.0  0.43496  0.81350  0.89602  1.0000
  O   O16       1.0  0.56505  0.18650  0.10398  1.0000
  O   O17       1.0  0.07005  0.12306  0.82809  1.0000
  O   O18       1.0  0.92995  0.87694  0.17192  1.0000
  O   O19       1.0  0.16190  0.17321  0.52089  1.0000
  O   O20       1.0  0.83809  0.82679  0.47911  1.0000
  O   O21       1.0  0.99205  0.10725  0.36926  1.0000
  O   O22       1.0  0.00795  0.89275  0.63074  1.0000
  O   O23       1.0  0.35716  0.58646  0.61672  1.0000
  O   O24       1.0  0.64284  0.41354  0.38328  1.0000
  O   O25       1.0  0.21685  0.69978  0.56138  1.0000
  O   O26       1.0  0.78315  0.30022  0.43863  1.0000
  O   O27       1.0  0.09586  0.96485  0.88424  1.0000
  O   O28       1.0  0.90414  0.03516  0.11576  1.0000
  O   O29       1.0  0.27173  0.95796  0.76108  1.0000
  O   O30       1.0  0.72827  0.04204  0.23892  1.0000
  O   O31       1.0  0.00542  0.29892  0.07341  1.0000
  O   O32       1.0  0.99458  0.70108  0.92659  1.0000
  O   O33       1.0  0.99933  0.49573  0.13848  1.0000
  O   O34       1.0  0.00066  0.50427  0.86152  1.0000
