data_image0
_chemical_formula_structural       Pr4H32C56N8O34
_chemical_formula_sum              "Pr4 H32 C56 N8 O34"
_cell_length_a       10.534
_cell_length_b       12.1928
_cell_length_c       12.689
_cell_angle_alpha    109.839
_cell_angle_beta     100.69
_cell_angle_gamma    90.6777

_space_group_name_H-M_alt    "P 1"
_space_group_IT_number       1

loop_
  _space_group_symop_operation_xyz
  'x, y, z'

loop_
  _atom_site_type_symbol
  _atom_site_label
  _atom_site_symmetry_multiplicity
  _atom_site_fract_x
  _atom_site_fract_y
  _atom_site_fract_z
  _atom_site_occupancy
  Pr  Pr1       1.0  0.99051  0.32373  0.89096  1.0000
  Pr  Pr2       1.0  0.00949  0.67627  0.10904  1.0000
  Pr  Pr3       1.0  0.14412  0.05956  0.64478  1.0000
  Pr  Pr4       1.0  0.85588  0.94044  0.35522  1.0000
  H   H1        1.0  0.65757  0.22711  0.89149  1.0000
  H   H2        1.0  0.34243  0.77289  0.10852  1.0000
  H   H3        1.0  0.86464  0.86482  0.87328  1.0000
  H   H4        1.0  0.13536  0.13518  0.12671  1.0000
  H   H5        1.0  0.62602  0.86926  0.87855  1.0000
  H   H6        1.0  0.37397  0.13074  0.12145  1.0000
  H   H7        1.0  0.52099  0.05524  0.89002  1.0000
  H   H8        1.0  0.47901  0.94476  0.10998  1.0000
  H   H9        1.0  0.30116  0.88766  0.74843  1.0000
  H   H10       1.0  0.69884  0.11234  0.25157  1.0000
  H   H11       1.0  0.21222  0.96123  0.82852  1.0000
  H   H12       1.0  0.78778  0.03877  0.17148  1.0000
  H   H13       1.0  0.21217  0.51405  0.79970  1.0000
  H   H14       1.0  0.78783  0.48595  0.20029  1.0000
  H   H15       1.0  0.54085  0.31672  0.83982  1.0000
  H   H16       1.0  0.45915  0.68328  0.16018  1.0000
  H   H17       1.0  0.59746  0.68960  0.92799  1.0000
  H   H18       1.0  0.40254  0.31040  0.07201  1.0000
  H   H19       1.0  0.63882  0.29355  0.66957  1.0000
  H   H20       1.0  0.36118  0.70645  0.33042  1.0000
  H   H21       1.0  0.40542  0.25980  0.56034  1.0000
  H   H22       1.0  0.59458  0.74020  0.43966  1.0000
  H   H23       1.0  0.52059  0.96058  0.30875  1.0000
  H   H24       1.0  0.47941  0.03942  0.69125  1.0000
  H   H25       1.0  0.34734  0.09065  0.37623  1.0000
  H   H26       1.0  0.65266  0.90935  0.62377  1.0000
  H   H27       1.0  0.22041  0.39351  0.57595  1.0000
  H   H28       1.0  0.77959  0.60649  0.42405  1.0000
  H   H29       1.0  0.13089  0.58265  0.34174  1.0000
  H   H30       1.0  0.86911  0.41735  0.65826  1.0000
  H   H31       1.0  0.99766  0.21797  0.23593  1.0000
  H   H32       1.0  0.00233  0.78203  0.76406  1.0000
  C   C1        1.0  0.69742  0.14351  0.88414  1.0000
  C   C2        1.0  0.30258  0.85649  0.11586  1.0000
  C   C3        1.0  0.87833  0.04006  0.87073  1.0000
  C   C4        1.0  0.12166  0.95994  0.12927  1.0000
  C   C5        1.0  0.81227  0.94123  0.87299  1.0000
  C   C6        1.0  0.18773  0.05877  0.12701  1.0000
  C   C7        1.0  0.68152  0.94488  0.87806  1.0000
  C   C8        1.0  0.31848  0.05512  0.12194  1.0000
  C   C9        1.0  0.62289  0.04834  0.88470  1.0000
  C   C10       1.0  0.37710  0.95166  0.11530  1.0000
  C   C11       1.0  0.28433  0.29151  0.77568  1.0000
  C   C12       1.0  0.71567  0.70848  0.22432  1.0000
  C   C13       1.0  0.83605  0.16253  0.60446  1.0000
  C   C14       1.0  0.16395  0.83747  0.39554  1.0000
  C   C15       1.0  0.69684  0.14566  0.54381  1.0000
  C   C16       1.0  0.30316  0.85434  0.45619  1.0000
  C   C17       1.0  0.31614  0.50981  0.82347  1.0000
  C   C18       1.0  0.68387  0.49019  0.17653  1.0000
  C   C19       1.0  0.36823  0.40384  0.81744  1.0000
  C   C20       1.0  0.63178  0.59616  0.18256  1.0000
  C   C21       1.0  0.50249  0.40083  0.84827  1.0000
  C   C22       1.0  0.49751  0.59917  0.15173  1.0000
  C   C23       1.0  0.58580  0.50270  0.89073  1.0000
  C   C24       1.0  0.41420  0.49730  0.10927  1.0000
  C   C25       1.0  0.40135  0.60984  0.85970  1.0000
  C   C26       1.0  0.59865  0.39015  0.14030  1.0000
  C   C27       1.0  0.72906  0.49942  0.93263  1.0000
  C   C28       1.0  0.27094  0.50058  0.06737  1.0000
  C   C29       1.0  0.53432  0.60918  0.89612  1.0000
  C   C30       1.0  0.46569  0.39082  0.10388  1.0000
  C   C31       1.0  0.60686  0.22187  0.58871  1.0000
  C   C32       1.0  0.39314  0.77813  0.41129  1.0000
  C   C33       1.0  0.47920  0.20333  0.52811  1.0000
  C   C34       1.0  0.52080  0.79667  0.47189  1.0000
  C   C35       1.0  0.54185  0.03611  0.38751  1.0000
  C   C36       1.0  0.45815  0.96389  0.61248  1.0000
  C   C37       1.0  0.44622  0.10879  0.42568  1.0000
  C   C38       1.0  0.55378  0.89121  0.57432  1.0000
  C   C39       1.0  0.08812  0.18416  0.43592  1.0000
  C   C40       1.0  0.91187  0.81584  0.56408  1.0000
  C   C41       1.0  0.10451  0.29449  0.40952  1.0000
  C   C42       1.0  0.89549  0.70551  0.59048  1.0000
  C   C43       1.0  0.17439  0.39456  0.49214  1.0000
  C   C44       1.0  0.82561  0.60544  0.50787  1.0000
  C   C45       1.0  0.06346  0.39820  0.27457  1.0000
  C   C46       1.0  0.93653  0.60181  0.72543  1.0000
  C   C47       1.0  0.12376  0.50155  0.35935  1.0000
  C   C48       1.0  0.87624  0.49845  0.64065  1.0000
  C   C49       1.0  0.05046  0.29649  0.30094  1.0000
  C   C50       1.0  0.94954  0.70351  0.69906  1.0000
  C   C51       1.0  0.18010  0.49641  0.46592  1.0000
  C   C52       1.0  0.81989  0.50359  0.53409  1.0000
  C   C53       1.0  0.01812  0.03952  0.86271  1.0000
  C   C54       1.0  0.98187  0.96048  0.13729  1.0000
  C   C55       1.0  0.01976  0.39172  0.15312  1.0000
  C   C56       1.0  0.98024  0.60828  0.84688  1.0000
  N   N1        1.0  0.82224  0.13980  0.87510  1.0000
  N   N2        1.0  0.17776  0.86020  0.12490  1.0000
  N   N3        1.0  0.66524  0.05426  0.44496  1.0000
  N   N4        1.0  0.33476  0.94574  0.55504  1.0000
  N   N5        1.0  0.34932  0.71912  0.85447  1.0000
  N   N6        1.0  0.65068  0.28088  0.14553  1.0000
  N   N7        1.0  0.25248  0.60153  0.55314  1.0000
  N   N8        1.0  0.74752  0.39847  0.44687  1.0000
  O   O1        1.0  0.16059  0.29238  0.76220  1.0000
  O   O2        1.0  0.83941  0.70762  0.23780  1.0000
  O   O3        1.0  0.34028  0.19693  0.75070  1.0000
  O   O4        1.0  0.65972  0.80307  0.24929  1.0000
  O   O5        1.0  0.91170  0.08633  0.56033  1.0000
  O   O6        1.0  0.08830  0.91368  0.43967  1.0000
  O   O7        1.0  0.87020  0.24978  0.69476  1.0000
  O   O8        1.0  0.12980  0.75022  0.30524  1.0000
  O   O9        1.0  0.23068  0.71985  0.82485  1.0000
  O   O10       1.0  0.76932  0.28015  0.17516  1.0000
  O   O11       1.0  0.79208  0.59689  0.99156  1.0000
  O   O12       1.0  0.20792  0.40311  0.00844  1.0000
  O   O13       1.0  0.77476  0.39964  0.90655  1.0000
  O   O14       1.0  0.22524  0.60036  0.09345  1.0000
  O   O15       1.0  0.42752  0.80531  0.87815  1.0000
  O   O16       1.0  0.57249  0.19469  0.12186  1.0000
  O   O17       1.0  0.06225  0.12131  0.83035  1.0000
  O   O18       1.0  0.93775  0.87869  0.16964  1.0000
  O   O19       1.0  0.16524  0.17557  0.52232  1.0000
  O   O20       1.0  0.83476  0.82443  0.47768  1.0000
  O   O21       1.0  0.99877  0.10836  0.36969  1.0000
  O   O22       1.0  0.00123  0.89164  0.63031  1.0000
  O   O23       1.0  0.35134  0.58762  0.61644  1.0000
  O   O24       1.0  0.64866  0.41237  0.38357  1.0000
  O   O25       1.0  0.21171  0.69805  0.55858  1.0000
  O   O26       1.0  0.78830  0.30195  0.44143  1.0000
  O   O27       1.0  0.08443  0.96312  0.88441  1.0000
  O   O28       1.0  0.91556  0.03688  0.11559  1.0000
  O   O29       1.0  0.27195  0.96597  0.77599  1.0000
  O   O30       1.0  0.72805  0.03403  0.22401  1.0000
  O   O31       1.0  0.01047  0.29192  0.07571  1.0000
  O   O32       1.0  0.98953  0.70808  0.92429  1.0000
  O   O33       1.0  0.99739  0.48554  0.13093  1.0000
  O   O34       1.0  0.00262  0.51446  0.86908  1.0000
