data_image0
_chemical_formula_structural       Zn4H24C32N16O12
_chemical_formula_sum              "Zn4 H24 C32 N16 O12"
_cell_length_a       7.19577
_cell_length_b       10.3055
_cell_length_c       12.1966
_cell_angle_alpha    106.912
_cell_angle_beta     89.9999
_cell_angle_gamma    90.0001

_space_group_name_H-M_alt    "P 1"
_space_group_IT_number       1

loop_
  _space_group_symop_operation_xyz
  'x, y, z'

loop_
  _atom_site_type_symbol
  _atom_site_label
  _atom_site_symmetry_multiplicity
  _atom_site_fract_x
  _atom_site_fract_y
  _atom_site_fract_z
  _atom_site_occupancy
  Zn  Zn1       1.0  0.01869  0.87007  0.85193  1.0000
  Zn  Zn2       1.0  0.51869  0.62993  0.14807  1.0000
  Zn  Zn3       1.0  0.98132  0.12993  0.14807  1.0000
  Zn  Zn4       1.0  0.48131  0.37007  0.85193  1.0000
  H   H1        1.0  0.96371  0.75409  0.47454  1.0000
  H   H2        1.0  0.46372  0.74590  0.52546  1.0000
  H   H3        1.0  0.03628  0.24590  0.52546  1.0000
  H   H4        1.0  0.53627  0.25410  0.47455  1.0000
  H   H5        1.0  0.99755  0.63166  0.26570  1.0000
  H   H6        1.0  0.49757  0.86834  0.73429  1.0000
  H   H7        1.0  0.00245  0.36834  0.73429  1.0000
  H   H8        1.0  0.50243  0.13167  0.26572  1.0000
  H   H9        1.0  0.34787  0.47933  0.55818  1.0000
  H   H10       1.0  0.84787  0.02068  0.44182  1.0000
  H   H11       1.0  0.65212  0.52067  0.44182  1.0000
  H   H12       1.0  0.15212  0.97932  0.55818  1.0000
  H   H13       1.0  0.38555  0.35779  0.35049  1.0000
  H   H14       1.0  0.88554  0.14222  0.64951  1.0000
  H   H15       1.0  0.61446  0.64221  0.64951  1.0000
  H   H16       1.0  0.11445  0.85778  0.35049  1.0000
  H   H17       1.0  0.24914  0.08813  0.91464  1.0000
  H   H18       1.0  0.74914  0.41187  0.08536  1.0000
  H   H19       1.0  0.75086  0.91187  0.08536  1.0000
  H   H20       1.0  0.25087  0.58814  0.91464  1.0000
  H   H21       1.0  0.23598  0.04701  0.78333  1.0000
  H   H22       1.0  0.73598  0.45299  0.21667  1.0000
  H   H23       1.0  0.76402  0.95300  0.21667  1.0000
  H   H24       1.0  0.26402  0.54701  0.78333  1.0000
  C   C1        1.0  0.22979  0.41451  0.17494  1.0000
  C   C2        1.0  0.72979  0.08549  0.82506  1.0000
  C   C3        1.0  0.77022  0.58548  0.82506  1.0000
  C   C4        1.0  0.27021  0.91451  0.17495  1.0000
  C   C5        1.0  0.14070  0.70245  0.65262  1.0000
  C   C6        1.0  0.64070  0.79755  0.34737  1.0000
  C   C7        1.0  0.85929  0.29755  0.34737  1.0000
  C   C8        1.0  0.35929  0.20244  0.65263  1.0000
  C   C9        1.0  0.05675  0.66764  0.44591  1.0000
  C   C10       1.0  0.55675  0.83236  0.55409  1.0000
  C   C11       1.0  0.94325  0.33236  0.55409  1.0000
  C   C12       1.0  0.44325  0.16764  0.44592  1.0000
  C   C13       1.0  0.07602  0.59954  0.32973  1.0000
  C   C14       1.0  0.57603  0.90046  0.67026  1.0000
  C   C15       1.0  0.92398  0.40045  0.67026  1.0000
  C   C16       1.0  0.42397  0.09954  0.32974  1.0000
  C   C17       1.0  0.19481  0.48739  0.29597  1.0000
  C   C18       1.0  0.69481  0.01261  0.70403  1.0000
  C   C19       1.0  0.80519  0.51260  0.70403  1.0000
  C   C20       1.0  0.30519  0.98739  0.29597  1.0000
  C   C21       1.0  0.15640  0.62626  0.52846  1.0000
  C   C22       1.0  0.65640  0.87374  0.47153  1.0000
  C   C23       1.0  0.84360  0.37374  0.47153  1.0000
  C   C24       1.0  0.34360  0.12625  0.52847  1.0000
  C   C25       1.0  0.27242  0.51267  0.49389  1.0000
  C   C26       1.0  0.77242  0.98733  0.50611  1.0000
  C   C27       1.0  0.72758  0.48733  0.50611  1.0000
  C   C28       1.0  0.22758  0.01267  0.49390  1.0000
  C   C29       1.0  0.29200  0.44389  0.37829  1.0000
  C   C30       1.0  0.79200  0.05611  0.62170  1.0000
  C   C31       1.0  0.70800  0.55610  0.62170  1.0000
  C   C32       1.0  0.20799  0.94389  0.37830  1.0000
  N   N1        1.0  0.18210  0.28481  0.12098  1.0000
  N   N2        1.0  0.68211  0.21519  0.87903  1.0000
  N   N3        1.0  0.81791  0.71518  0.87902  1.0000
  N   N4        1.0  0.31790  0.78481  0.12098  1.0000
  N   N5        1.0  0.34890  0.36058  0.00607  1.0000
  N   N6        1.0  0.84890  0.13942  0.99393  1.0000
  N   N7        1.0  0.65111  0.63942  0.99393  1.0000
  N   N8        1.0  0.15111  0.86058  0.00607  1.0000
  N   N9        1.0  0.33333  0.46325  0.10356  1.0000
  N   N10       1.0  0.83333  0.03675  0.89644  1.0000
  N   N11       1.0  0.66667  0.53674  0.89644  1.0000
  N   N12       1.0  0.16667  0.96326  0.10357  1.0000
  N   N13       1.0  0.25853  0.25475  0.01646  1.0000
  N   N14       1.0  0.75853  0.24525  0.98354  1.0000
  N   N15       1.0  0.74148  0.74525  0.98354  1.0000
  N   N16       1.0  0.24148  0.75475  0.01646  1.0000
  O   O1        1.0  0.23997  0.00548  0.84779  1.0000
  O   O2        1.0  0.73997  0.49452  0.15221  1.0000
  O   O3        1.0  0.76003  0.99452  0.15221  1.0000
  O   O4        1.0  0.26003  0.50548  0.84779  1.0000
  O   O5        1.0  0.01814  0.79766  0.68112  1.0000
  O   O6        1.0  0.51814  0.70234  0.31888  1.0000
  O   O7        1.0  0.98186  0.20235  0.31888  1.0000
  O   O8        1.0  0.48186  0.29765  0.68112  1.0000
  O   O9        1.0  0.24671  0.67459  0.72548  1.0000
  O   O10       1.0  0.74672  0.82541  0.27452  1.0000
  O   O11       1.0  0.75325  0.32541  0.27453  1.0000
  O   O12       1.0  0.25326  0.17459  0.72548  1.0000
