data_image0
_chemical_formula_structural       Cd4H60C64N16Cl4
_chemical_formula_sum              "Cd4 H60 C64 N16 Cl4"
_cell_length_a       10.2821
_cell_length_b       11.3571
_cell_length_c       13.4673
_cell_angle_alpha    90
_cell_angle_beta     90
_cell_angle_gamma    92.3469

_space_group_name_H-M_alt    "P 1"
_space_group_IT_number       1

loop_
  _space_group_symop_operation_xyz
  'x, y, z'

loop_
  _atom_site_type_symbol
  _atom_site_label
  _atom_site_symmetry_multiplicity
  _atom_site_fract_x
  _atom_site_fract_y
  _atom_site_fract_z
  _atom_site_occupancy
  Cd  Cd1       1.0  0.76230  0.36886  0.60783  1.0000
  Cd  Cd2       1.0  0.73770  0.63114  0.10783  1.0000
  Cd  Cd3       1.0  0.23770  0.63114  0.39217  1.0000
  Cd  Cd4       1.0  0.26230  0.36886  0.89217  1.0000
  H   H1        1.0  0.05518  0.16687  0.00073  1.0000
  H   H2        1.0  0.44482  0.83313  0.50073  1.0000
  H   H3        1.0  0.94482  0.83313  0.99927  1.0000
  H   H4        1.0  0.55518  0.16687  0.49927  1.0000
  H   H5        1.0  0.86420  0.02782  0.02598  1.0000
  H   H6        1.0  0.63579  0.97218  0.52598  1.0000
  H   H7        1.0  0.13580  0.97218  0.97402  1.0000
  H   H8        1.0  0.36421  0.02782  0.47402  1.0000
  H   H9        1.0  0.68379  0.01490  0.90387  1.0000
  H   H10       1.0  0.81621  0.98510  0.40387  1.0000
  H   H11       1.0  0.31621  0.98510  0.09613  1.0000
  H   H12       1.0  0.18379  0.01490  0.59613  1.0000
  H   H13       1.0  0.68842  0.13874  0.75206  1.0000
  H   H14       1.0  0.81158  0.86126  0.25206  1.0000
  H   H15       1.0  0.31158  0.86126  0.24794  1.0000
  H   H16       1.0  0.18842  0.13874  0.74794  1.0000
  H   H17       1.0  0.14796  0.39487  0.61708  1.0000
  H   H18       1.0  0.35204  0.60513  0.11708  1.0000
  H   H19       1.0  0.85204  0.60513  0.38292  1.0000
  H   H20       1.0  0.64796  0.39487  0.88292  1.0000
  H   H21       1.0  0.16386  0.49355  0.71961  1.0000
  H   H22       1.0  0.33614  0.50645  0.21961  1.0000
  H   H23       1.0  0.83614  0.50645  0.28039  1.0000
  H   H24       1.0  0.66386  0.49355  0.78039  1.0000
  H   H25       1.0  0.02772  0.49949  0.63765  1.0000
  H   H26       1.0  0.47228  0.50051  0.13765  1.0000
  H   H27       1.0  0.97228  0.50051  0.36235  1.0000
  H   H28       1.0  0.52772  0.49949  0.86235  1.0000
  H   H29       1.0  0.98959  0.17489  0.53122  1.0000
  H   H30       1.0  0.51041  0.82511  0.03122  1.0000
  H   H31       1.0  0.01041  0.82511  0.46878  1.0000
  H   H32       1.0  0.48959  0.17489  0.96878  1.0000
  H   H33       1.0  0.12418  0.05572  0.41847  1.0000
  H   H34       1.0  0.37582  0.94428  0.91847  1.0000
  H   H35       1.0  0.87582  0.94428  0.58153  1.0000
  H   H36       1.0  0.62418  0.05572  0.08153  1.0000
  H   H37       1.0  0.89582  0.15281  0.16312  1.0000
  H   H38       1.0  0.60418  0.84719  0.66312  1.0000
  H   H39       1.0  0.10419  0.84719  0.83688  1.0000
  H   H40       1.0  0.39581  0.15281  0.33688  1.0000
  H   H41       1.0  0.51965  0.38381  0.44748  1.0000
  H   H42       1.0  0.98035  0.61619  0.94748  1.0000
  H   H43       1.0  0.48036  0.61619  0.55251  1.0000
  H   H44       1.0  0.01965  0.38381  0.05252  1.0000
  H   H45       1.0  0.53293  0.42113  0.32001  1.0000
  H   H46       1.0  0.96707  0.57887  0.82001  1.0000
  H   H47       1.0  0.46708  0.57887  0.67998  1.0000
  H   H48       1.0  0.03293  0.42113  0.17999  1.0000
  H   H49       1.0  0.62370  0.50476  0.41082  1.0000
  H   H50       1.0  0.87630  0.49524  0.91082  1.0000
  H   H51       1.0  0.37630  0.49524  0.58918  1.0000
  H   H52       1.0  0.12370  0.50476  0.08918  1.0000
  H   H53       1.0  0.07796  0.04234  0.23836  1.0000
  H   H54       1.0  0.42204  0.95766  0.73836  1.0000
  H   H55       1.0  0.92204  0.95766  0.76164  1.0000
  H   H56       1.0  0.57797  0.04234  0.26164  1.0000
  H   H57       1.0  0.70194  0.31704  0.22165  1.0000
  H   H58       1.0  0.79806  0.68296  0.72165  1.0000
  H   H59       1.0  0.29807  0.68296  0.77834  1.0000
  H   H60       1.0  0.20194  0.31704  0.27835  1.0000
  C   C1        1.0  0.97742  0.23286  0.86227  1.0000
  C   C2        1.0  0.52258  0.76714  0.36227  1.0000
  C   C3        1.0  0.02258  0.76714  0.13773  1.0000
  C   C4        1.0  0.47742  0.23286  0.63773  1.0000
  C   C5        1.0  0.97527  0.16232  0.94746  1.0000
  C   C6        1.0  0.52472  0.83768  0.44746  1.0000
  C   C7        1.0  0.02472  0.83768  0.05254  1.0000
  C   C8        1.0  0.47528  0.16232  0.55254  1.0000
  C   C9        1.0  0.86787  0.08491  0.96089  1.0000
  C   C10       1.0  0.63212  0.91509  0.46089  1.0000
  C   C11       1.0  0.13212  0.91509  0.03911  1.0000
  C   C12       1.0  0.36788  0.08491  0.53911  1.0000
  C   C13       1.0  0.76557  0.07712  0.89143  1.0000
  C   C14       1.0  0.73443  0.92287  0.39143  1.0000
  C   C15       1.0  0.23443  0.92288  0.10857  1.0000
  C   C16       1.0  0.26557  0.07712  0.60857  1.0000
  C   C17       1.0  0.76729  0.14643  0.80599  1.0000
  C   C18       1.0  0.73271  0.85357  0.30598  1.0000
  C   C19       1.0  0.23270  0.85357  0.19401  1.0000
  C   C20       1.0  0.26729  0.14643  0.69401  1.0000
  C   C21       1.0  0.87422  0.22477  0.79200  1.0000
  C   C22       1.0  0.62577  0.77523  0.29200  1.0000
  C   C23       1.0  0.12578  0.77523  0.20800  1.0000
  C   C24       1.0  0.37422  0.22477  0.70800  1.0000
  C   C25       1.0  0.02207  0.35442  0.73982  1.0000
  C   C26       1.0  0.47793  0.64558  0.23982  1.0000
  C   C27       1.0  0.97793  0.64558  0.26018  1.0000
  C   C28       1.0  0.52207  0.35442  0.76018  1.0000
  C   C29       1.0  0.09399  0.44043  0.67526  1.0000
  C   C30       1.0  0.40601  0.55956  0.17526  1.0000
  C   C31       1.0  0.90601  0.55956  0.32474  1.0000
  C   C32       1.0  0.59399  0.44044  0.82474  1.0000
  C   C33       1.0  0.86547  0.22886  0.40998  1.0000
  C   C34       1.0  0.63453  0.77114  0.90998  1.0000
  C   C35       1.0  0.13453  0.77114  0.59002  1.0000
  C   C36       1.0  0.36547  0.22886  0.09002  1.0000
  C   C37       1.0  0.96840  0.16929  0.45194  1.0000
  C   C38       1.0  0.53160  0.83071  0.95194  1.0000
  C   C39       1.0  0.03160  0.83071  0.54806  1.0000
  C   C40       1.0  0.46840  0.16929  0.04806  1.0000
  C   C41       1.0  0.04313  0.10295  0.38800  1.0000
  C   C42       1.0  0.45687  0.89705  0.88800  1.0000
  C   C43       1.0  0.95687  0.89705  0.61200  1.0000
  C   C44       1.0  0.54313  0.10295  0.11201  1.0000
  C   C45       1.0  0.91610  0.15639  0.24249  1.0000
  C   C46       1.0  0.58390  0.84361  0.74249  1.0000
  C   C47       1.0  0.08390  0.84361  0.75751  1.0000
  C   C48       1.0  0.41610  0.15639  0.25751  1.0000
  C   C49       1.0  0.84161  0.22291  0.30642  1.0000
  C   C50       1.0  0.65839  0.77709  0.80641  1.0000
  C   C51       1.0  0.15840  0.77709  0.69358  1.0000
  C   C52       1.0  0.34161  0.22291  0.19359  1.0000
  C   C53       1.0  0.69717  0.33607  0.37862  1.0000
  C   C54       1.0  0.80283  0.66393  0.87862  1.0000
  C   C55       1.0  0.30283  0.66393  0.62137  1.0000
  C   C56       1.0  0.19717  0.33607  0.12138  1.0000
  C   C57       1.0  0.58746  0.41581  0.38952  1.0000
  C   C58       1.0  0.91254  0.58419  0.88952  1.0000
  C   C59       1.0  0.41255  0.58419  0.61048  1.0000
  C   C60       1.0  0.08745  0.41581  0.11048  1.0000
  C   C61       1.0  0.01713  0.09571  0.28531  1.0000
  C   C62       1.0  0.48288  0.90430  0.78531  1.0000
  C   C63       1.0  0.98288  0.90429  0.71469  1.0000
  C   C64       1.0  0.51713  0.09571  0.21469  1.0000
  N   N1        1.0  0.77288  0.29956  0.45257  1.0000
  N   N2        1.0  0.72712  0.70044  0.95257  1.0000
  N   N3        1.0  0.22712  0.70044  0.54743  1.0000
  N   N4        1.0  0.27288  0.29956  0.04743  1.0000
  N   N5        1.0  0.06900  0.31607  0.82741  1.0000
  N   N6        1.0  0.43100  0.68393  0.32741  1.0000
  N   N7        1.0  0.93100  0.68393  0.17259  1.0000
  N   N8        1.0  0.56900  0.31607  0.67259  1.0000
  N   N9        1.0  0.73531  0.29131  0.29033  1.0000
  N   N10       1.0  0.76469  0.70869  0.79033  1.0000
  N   N11       1.0  0.26469  0.70869  0.70967  1.0000
  N   N12       1.0  0.23531  0.29132  0.20967  1.0000
  N   N13       1.0  0.90517  0.30313  0.71554  1.0000
  N   N14       1.0  0.59483  0.69688  0.21554  1.0000
  N   N15       1.0  0.09483  0.69687  0.28446  1.0000
  N   N16       1.0  0.40517  0.30313  0.78446  1.0000
  Cl  Cl1       1.0  0.79109  0.58587  0.58291  1.0000
  Cl  Cl2       1.0  0.70891  0.41413  0.08291  1.0000
  Cl  Cl3       1.0  0.20892  0.41413  0.41709  1.0000
  Cl  Cl4       1.0  0.29108  0.58587  0.91708  1.0000
