data_image0
_chemical_formula_structural       Gd4H24C24S4N4O32
_chemical_formula_sum              "Gd4 H24 C24 S4 N4 O32"
_cell_length_a       6.38821
_cell_length_b       7.69792
_cell_length_c       20.335
_cell_angle_alpha    90.0003
_cell_angle_beta     89.9998
_cell_angle_gamma    106.106

_space_group_name_H-M_alt    "P 1"
_space_group_IT_number       1

loop_
  _space_group_symop_operation_xyz
  'x, y, z'

loop_
  _atom_site_type_symbol
  _atom_site_label
  _atom_site_symmetry_multiplicity
  _atom_site_fract_x
  _atom_site_fract_y
  _atom_site_fract_z
  _atom_site_occupancy
  Gd  Gd1       1.0  0.69207  0.14928  0.42925  1.0000
  Gd  Gd2       1.0  0.80793  0.85073  0.92925  1.0000
  Gd  Gd3       1.0  0.30793  0.85073  0.57075  1.0000
  Gd  Gd4       1.0  0.19206  0.14927  0.07075  1.0000
  H   H1        1.0  0.43822  0.51653  0.33273  1.0000
  H   H2        1.0  0.06179  0.48348  0.83273  1.0000
  H   H3        1.0  0.56180  0.48348  0.66727  1.0000
  H   H4        1.0  0.93821  0.51651  0.16727  1.0000
  H   H5        1.0  0.36096  0.30800  0.23478  1.0000
  H   H6        1.0  0.13905  0.69201  0.73478  1.0000
  H   H7        1.0  0.63905  0.69201  0.76522  1.0000
  H   H8        1.0  0.86095  0.30798  0.26522  1.0000
  H   H9        1.0  0.58483  0.96558  0.19621  1.0000
  H   H10       1.0  0.91517  0.03442  0.69621  1.0000
  H   H11       1.0  0.41517  0.03442  0.80379  1.0000
  H   H12       1.0  0.08483  0.96557  0.30379  1.0000
  H   H13       1.0  0.49618  0.73772  0.10360  1.0000
  H   H14       1.0  0.00383  0.26229  0.60360  1.0000
  H   H15       1.0  0.50382  0.26229  0.89640  1.0000
  H   H16       1.0  0.99618  0.73771  0.39640  1.0000
  H   H17       1.0  0.60872  0.31115  0.55621  1.0000
  H   H18       1.0  0.89127  0.68886  0.05621  1.0000
  H   H19       1.0  0.39128  0.68886  0.44379  1.0000
  H   H20       1.0  0.10873  0.31114  0.94379  1.0000
  H   H21       1.0  0.74684  0.48550  0.51453  1.0000
  H   H22       1.0  0.75316  0.51450  0.01453  1.0000
  H   H23       1.0  0.25316  0.51450  0.48547  1.0000
  H   H24       1.0  0.24684  0.48550  0.98547  1.0000
  C   C1        1.0  0.56863  0.89362  0.32672  1.0000
  C   C2        1.0  0.93137  0.10638  0.82672  1.0000
  C   C3        1.0  0.43138  0.10639  0.67328  1.0000
  C   C4        1.0  0.06862  0.89360  0.17328  1.0000
  C   C5        1.0  0.51870  0.75971  0.27195  1.0000
  C   C6        1.0  0.98130  0.24029  0.77195  1.0000
  C   C7        1.0  0.48130  0.24029  0.72805  1.0000
  C   C8        1.0  0.01870  0.75971  0.22805  1.0000
  C   C9        1.0  0.45468  0.57321  0.28324  1.0000
  C   C10       1.0  0.04533  0.42680  0.78324  1.0000
  C   C11       1.0  0.54533  0.42680  0.71676  1.0000
  C   C12       1.0  0.95467  0.57320  0.21676  1.0000
  C   C13       1.0  0.41187  0.45467  0.23055  1.0000
  C   C14       1.0  0.08814  0.54534  0.73056  1.0000
  C   C15       1.0  0.58814  0.54533  0.76944  1.0000
  C   C16       1.0  0.91186  0.45465  0.26945  1.0000
  C   C17       1.0  0.53707  0.82167  0.20696  1.0000
  C   C18       1.0  0.96292  0.17834  0.70696  1.0000
  C   C19       1.0  0.46293  0.17834  0.79304  1.0000
  C   C20       1.0  0.03708  0.82166  0.29304  1.0000
  C   C21       1.0  0.49089  0.70096  0.15532  1.0000
  C   C22       1.0  0.00911  0.29905  0.65532  1.0000
  C   C23       1.0  0.50910  0.29905  0.84468  1.0000
  C   C24       1.0  0.99089  0.70095  0.34468  1.0000
  S   S1        1.0  0.21380  0.16766  0.44281  1.0000
  S   S2        1.0  0.28619  0.83234  0.94281  1.0000
  S   S3        1.0  0.78620  0.83234  0.55719  1.0000
  S   S4        1.0  0.71380  0.16766  0.05719  1.0000
  N   N1        1.0  0.42974  0.51982  0.16779  1.0000
  N   N2        1.0  0.07027  0.48019  0.66779  1.0000
  N   N3        1.0  0.57027  0.48019  0.83221  1.0000
  N   N4        1.0  0.92974  0.51981  0.33221  1.0000
  O   O1        1.0  0.54415  0.83927  0.38651  1.0000
  O   O2        1.0  0.95585  0.16072  0.88652  1.0000
  O   O3        1.0  0.45586  0.16073  0.61349  1.0000
  O   O4        1.0  0.04414  0.83927  0.11348  1.0000
  O   O5        1.0  0.63794  0.06142  0.31331  1.0000
  O   O6        1.0  0.86206  0.93858  0.81331  1.0000
  O   O7        1.0  0.36205  0.93858  0.68669  1.0000
  O   O8        1.0  0.13794  0.06141  0.18669  1.0000
  O   O9        1.0  0.39129  0.40931  0.11760  1.0000
  O   O10       1.0  0.10872  0.59069  0.61760  1.0000
  O   O11       1.0  0.60872  0.59070  0.88240  1.0000
  O   O12       1.0  0.89129  0.40931  0.38240  1.0000
  O   O13       1.0  0.15190  0.28803  0.49055  1.0000
  O   O14       1.0  0.34809  0.71197  0.99055  1.0000
  O   O15       1.0  0.84810  0.71197  0.50945  1.0000
  O   O16       1.0  0.65191  0.28803  0.00945  1.0000
  O   O17       1.0  0.01440  0.06283  0.40776  1.0000
  O   O18       1.0  0.48558  0.93717  0.90776  1.0000
  O   O19       1.0  0.98560  0.93717  0.59224  1.0000
  O   O20       1.0  0.51440  0.06283  0.09224  1.0000
  O   O21       1.0  0.38543  0.26353  0.39555  1.0000
  O   O22       1.0  0.11456  0.73647  0.89555  1.0000
  O   O23       1.0  0.61458  0.73648  0.60445  1.0000
  O   O24       1.0  0.88542  0.26352  0.10445  1.0000
  O   O25       1.0  0.31692  0.03568  0.47676  1.0000
  O   O26       1.0  0.18308  0.96432  0.97676  1.0000
  O   O27       1.0  0.68308  0.96432  0.52324  1.0000
  O   O28       1.0  0.81691  0.03568  0.02324  1.0000
  O   O29       1.0  0.69332  0.35115  0.51559  1.0000
  O   O30       1.0  0.80667  0.64885  0.01559  1.0000
  O   O31       1.0  0.30668  0.64885  0.48441  1.0000
  O   O32       1.0  0.19332  0.35115  0.98441  1.0000
