data_image0
_chemical_formula_structural       Cu3H24C14N26O2
_chemical_formula_sum              "Cu3 H24 C14 N26 O2"
_cell_length_a       7.81462
_cell_length_b       9.36405
_cell_length_c       11.0347
_cell_angle_alpha    100.881
_cell_angle_beta     103.845
_cell_angle_gamma    108.868

_space_group_name_H-M_alt    "P 1"
_space_group_IT_number       1

loop_
  _space_group_symop_operation_xyz
  'x, y, z'

loop_
  _atom_site_type_symbol
  _atom_site_label
  _atom_site_symmetry_multiplicity
  _atom_site_fract_x
  _atom_site_fract_y
  _atom_site_fract_z
  _atom_site_occupancy
  Cu  Cu1       1.0  0.44477  0.15781  0.10063  1.0000
  Cu  Cu2       1.0  0.55701  0.84260  0.89947  1.0000
  Cu  Cu3       1.0  0.99829  0.99840  0.99933  1.0000
  H   H1        1.0  0.97281  0.14655  0.56686  1.0000
  H   H2        1.0  0.02741  0.85328  0.43322  1.0000
  H   H3        1.0  0.71097  0.89378  0.40830  1.0000
  H   H4        1.0  0.28904  0.10607  0.59188  1.0000
  H   H5        1.0  0.49659  0.92147  0.20864  1.0000
  H   H6        1.0  0.50377  0.07842  0.79140  1.0000
  H   H7        1.0  0.69038  0.45046  0.26977  1.0000
  H   H8        1.0  0.30958  0.54956  0.73055  1.0000
  H   H9        1.0  0.90091  0.53598  0.41061  1.0000
  H   H10       1.0  0.09911  0.46395  0.58962  1.0000
  H   H11       1.0  0.29604  0.50956  0.04841  1.0000
  H   H12       1.0  0.70405  0.49046  0.95161  1.0000
  H   H13       1.0  0.48276  0.50377  0.37899  1.0000
  H   H14       1.0  0.51728  0.49628  0.62103  1.0000
  H   H15       1.0  0.25404  0.48242  0.39465  1.0000
  H   H16       1.0  0.74586  0.51749  0.60519  1.0000
  H   H17       1.0  0.44066  0.67438  0.44363  1.0000
  H   H18       1.0  0.55932  0.32557  0.55647  1.0000
  H   H19       1.0  0.13320  0.63679  0.11223  1.0000
  H   H20       1.0  0.86694  0.36324  0.88774  1.0000
  H   H21       1.0  0.23803  0.76622  0.27459  1.0000
  H   H22       1.0  0.76188  0.23378  0.72541  1.0000
  H   H23       1.0  0.04970  0.57922  0.23917  1.0000
  H   H24       1.0  0.95035  0.42070  0.76076  1.0000
  C   C1        1.0  0.77168  0.29618  0.35547  1.0000
  C   C2        1.0  0.22846  0.70373  0.64468  1.0000
  C   C3        1.0  0.87187  0.14743  0.47944  1.0000
  C   C4        1.0  0.12833  0.85241  0.52064  1.0000
  C   C5        1.0  0.72800  0.00789  0.39269  1.0000
  C   C6        1.0  0.27219  0.99195  0.60741  1.0000
  C   C7        1.0  0.60979  0.02315  0.28469  1.0000
  C   C8        1.0  0.39044  0.97671  0.71539  1.0000
  C   C9        1.0  0.35829  0.49555  0.14418  1.0000
  C   C10       1.0  0.64202  0.50465  0.85588  1.0000
  C   C11       1.0  0.37660  0.55701  0.37234  1.0000
  C   C12       1.0  0.62341  0.44302  0.62766  1.0000
  C   C13       1.0  0.17663  0.64219  0.21539  1.0000
  C   C14       1.0  0.82344  0.35782  0.78459  1.0000
  N   N1        1.0  0.62835  0.16434  0.26521  1.0000
  N   N2        1.0  0.37181  0.83552  0.73491  1.0000
  N   N3        1.0  0.89472  0.28841  0.46214  1.0000
  N   N4        1.0  0.10553  0.71143  0.53793  1.0000
  N   N5        1.0  0.79341  0.43813  0.33984  1.0000
  N   N6        1.0  0.20655  0.56179  0.66043  1.0000
  N   N7        1.0  0.21770  0.10227  0.93720  1.0000
  N   N8        1.0  0.78210  0.89809  0.06381  1.0000
  N   N9        1.0  0.20653  0.18893  0.86918  1.0000
  N   N10       1.0  0.79287  0.81060  0.13098  1.0000
  N   N11       1.0  0.19454  0.26845  0.80118  1.0000
  N   N12       1.0  0.80439  0.73096  0.19898  1.0000
  N   N13       1.0  0.21837  0.04999  0.16069  1.0000
  N   N14       1.0  0.78165  0.95114  0.83836  1.0000
  N   N15       1.0  0.21443  0.10654  0.26828  1.0000
  N   N16       1.0  0.78503  0.89296  0.73108  1.0000
  N   N17       1.0  0.21355  0.15870  0.37211  1.0000
  N   N18       1.0  0.78513  0.84008  0.62717  1.0000
  N   N19       1.0  0.63224  0.20427  0.00787  1.0000
  N   N20       1.0  0.36796  0.79651  0.99168  1.0000
  N   N21       1.0  0.79844  0.22936  0.05461  1.0000
  N   N22       1.0  0.20184  0.77168  0.94535  1.0000
  N   N23       1.0  0.96119  0.25218  0.09238  1.0000
  N   N24       1.0  0.03909  0.74921  0.90792  1.0000
  N   N25       1.0  0.31497  0.56995  0.24134  1.0000
  N   N26       1.0  0.68524  0.43022  0.75870  1.0000
  O   O1        1.0  0.46246  0.41839  0.15711  1.0000
  O   O2        1.0  0.53800  0.58199  0.84295  1.0000
