data_image0
_chemical_formula_structural       Mo2H26C24N4O7
_chemical_formula_sum              "Mo2 H26 C24 N4 O7"
_cell_length_a       5.95642
_cell_length_b       7.04113
_cell_length_c       14.361
_cell_angle_alpha    77.8067
_cell_angle_beta     84.4473
_cell_angle_gamma    88.9165

_space_group_name_H-M_alt    "P 1"
_space_group_IT_number       1

loop_
  _space_group_symop_operation_xyz
  'x, y, z'

loop_
  _atom_site_type_symbol
  _atom_site_label
  _atom_site_symmetry_multiplicity
  _atom_site_fract_x
  _atom_site_fract_y
  _atom_site_fract_z
  _atom_site_occupancy
  Mo  Mo1       1.0  0.78801  0.38000  0.97847  1.0000
  Mo  Mo2       1.0  0.21200  0.62000  0.02153  1.0000
  H   H1        1.0  0.64738  0.74834  0.88802  1.0000
  H   H2        1.0  0.35262  0.25166  0.11198  1.0000
  H   H3        1.0  0.93070  0.77101  0.87007  1.0000
  H   H4        1.0  0.06931  0.22898  0.12992  1.0000
  H   H5        1.0  0.43899  0.60350  0.77700  1.0000
  H   H6        1.0  0.56100  0.39650  0.22300  1.0000
  H   H7        1.0  0.71929  0.96820  0.12402  1.0000
  H   H8        1.0  0.28071  0.03180  0.87598  1.0000
  H   H9        1.0  0.51301  0.79483  0.14506  1.0000
  H   H10       1.0  0.48700  0.20517  0.85494  1.0000
  H   H11       1.0  0.78301  0.72841  0.12284  1.0000
  H   H12       1.0  0.21700  0.27159  0.87716  1.0000
  H   H13       1.0  0.04132  0.68644  0.25076  1.0000
  H   H14       1.0  0.95869  0.31357  0.74924  1.0000
  H   H15       1.0  0.39677  0.86413  0.46206  1.0000
  H   H16       1.0  0.60323  0.13586  0.53794  1.0000
  H   H17       1.0  0.07275  0.64556  0.42477  1.0000
  H   H18       1.0  0.92725  0.35444  0.57523  1.0000
  H   H19       1.0  0.09458  0.83863  0.54332  1.0000
  H   H20       1.0  0.90542  0.16136  0.45668  1.0000
  H   H21       1.0  0.36305  0.89920  0.28933  1.0000
  H   H22       1.0  0.63696  0.10080  0.71067  1.0000
  H   H23       1.0  0.41493  0.61788  0.60463  1.0000
  H   H24       1.0  0.58507  0.38212  0.39537  1.0000
  H   H25       1.0  0.12104  0.81886  0.71552  1.0000
  H   H26       1.0  0.87895  0.18113  0.28449  1.0000
  C   C1        1.0  0.58304  0.65374  0.72527  1.0000
  C   C2        1.0  0.41695  0.34626  0.27473  1.0000
  C   C3        1.0  0.73599  0.74995  0.45699  1.0000
  C   C4        1.0  0.26401  0.25005  0.54300  1.0000
  C   C5        1.0  0.70013  0.79357  0.26029  1.0000
  C   C6        1.0  0.29987  0.20643  0.73971  1.0000
  C   C7        1.0  0.90023  0.72394  0.29782  1.0000
  C   C8        1.0  0.09977  0.27607  0.70218  1.0000
  C   C9        1.0  0.75311  0.73089  0.56048  1.0000
  C   C10       1.0  0.24688  0.26910  0.43952  1.0000
  C   C11       1.0  0.53684  0.82037  0.41675  1.0000
  C   C12       1.0  0.46316  0.17963  0.58325  1.0000
  C   C13       1.0  0.78120  0.70988  0.75774  1.0000
  C   C14       1.0  0.21879  0.29012  0.24226  1.0000
  C   C15       1.0  0.91716  0.70295  0.39564  1.0000
  C   C16       1.0  0.08284  0.29706  0.60436  1.0000
  C   C17       1.0  0.95156  0.78300  0.59435  1.0000
  C   C18       1.0  0.04844  0.21699  0.40565  1.0000
  C   C19       1.0  0.51801  0.84248  0.31930  1.0000
  C   C20       1.0  0.48199  0.15752  0.68070  1.0000
  C   C21       1.0  0.56956  0.66462  0.62819  1.0000
  C   C22       1.0  0.43043  0.33538  0.37181  1.0000
  C   C23       1.0  0.96676  0.77292  0.69138  1.0000
  C   C24       1.0  0.03324  0.22707  0.30862  1.0000
  N   N1        1.0  0.79232  0.70013  0.85650  1.0000
  N   N2        1.0  0.20767  0.29987  0.14350  1.0000
  N   N3        1.0  0.67972  0.82174  0.15837  1.0000
  N   N4        1.0  0.32028  0.17826  0.84163  1.0000
  O   O1        1.0  0.76542  0.19591  0.08375  1.0000
  O   O2        1.0  0.23459  0.80409  0.91625  1.0000
  O   O3        1.0  0.72768  0.26413  0.88732  1.0000
  O   O4        1.0  0.27232  0.73587  0.11268  1.0000
  O   O5        1.0  0.90089  0.59880  0.05163  1.0000
  O   O6        1.0  0.09911  0.40121  0.94837  1.0000
  O   O7        1.0  0.50000  0.50000  0.00000  1.0000
