data_image0
_chemical_formula_structural       Cu2H16C20N16Cl4
_chemical_formula_sum              "Cu2 H16 C20 N16 Cl4"
_cell_length_a       8.03942
_cell_length_b       8.91148
_cell_length_c       9.46834
_cell_angle_alpha    89.9995
_cell_angle_beta     106.638
_cell_angle_gamma    90.0003

_space_group_name_H-M_alt    "P 1"
_space_group_IT_number       1

loop_
  _space_group_symop_operation_xyz
  'x, y, z'

loop_
  _atom_site_type_symbol
  _atom_site_label
  _atom_site_symmetry_multiplicity
  _atom_site_fract_x
  _atom_site_fract_y
  _atom_site_fract_z
  _atom_site_occupancy
  Cu  Cu1       1.0  1.00000  1.00000  1.00000  1.0000
  Cu  Cu2       1.0  0.50000  0.50000  1.00000  1.0000
  H   H1        1.0  0.22227  0.43161  0.49627  1.0000
  H   H2        1.0  0.27774  0.93160  0.50373  1.0000
  H   H3        1.0  0.77773  0.56839  0.50373  1.0000
  H   H4        1.0  0.72227  0.06839  0.49627  1.0000
  H   H5        1.0  0.38490  0.66448  0.48039  1.0000
  H   H6        1.0  0.11510  0.16447  0.51961  1.0000
  H   H7        1.0  0.61510  0.33552  0.51961  1.0000
  H   H8        1.0  0.88490  0.83552  0.48039  1.0000
  H   H9        1.0  0.94975  0.37168  0.28148  1.0000
  H   H10       1.0  0.55025  0.87168  0.71853  1.0000
  H   H11       1.0  0.05024  0.62832  0.71852  1.0000
  H   H12       1.0  0.44976  0.12832  0.28148  1.0000
  H   H13       1.0  0.75165  0.72322  0.88749  1.0000
  H   H14       1.0  0.74835  0.22322  0.11251  1.0000
  H   H15       1.0  0.24835  0.27678  0.11251  1.0000
  H   H16       1.0  0.25165  0.77679  0.88749  1.0000
  C   C1        1.0  0.17463  0.50643  0.40267  1.0000
  C   C2        1.0  0.32537  0.00642  0.59733  1.0000
  C   C3        1.0  0.82537  0.49357  0.59733  1.0000
  C   C4        1.0  0.67463  0.99357  0.40267  1.0000
  C   C5        1.0  0.26431  0.64088  0.39474  1.0000
  C   C6        1.0  0.23570  0.14088  0.60525  1.0000
  C   C7        1.0  0.73570  0.35911  0.60525  1.0000
  C   C8        1.0  0.76431  0.85912  0.39474  1.0000
  C   C9        1.0  0.06542  0.71036  0.18397  1.0000
  C   C10       1.0  0.43458  0.21036  0.81603  1.0000
  C   C11       1.0  0.93458  0.28963  0.81603  1.0000
  C   C12       1.0  0.56542  0.78964  0.18397  1.0000
  C   C13       1.0  0.02764  0.47297  0.29092  1.0000
  C   C14       1.0  0.47237  0.97297  0.70908  1.0000
  C   C15       1.0  0.97236  0.52702  0.70908  1.0000
  C   C16       1.0  0.52764  0.02702  0.29092  1.0000
  C   C17       1.0  0.84665  0.69582  0.99097  1.0000
  C   C18       1.0  0.65335  0.19582  0.00903  1.0000
  C   C19       1.0  0.15335  0.30418  0.00903  1.0000
  C   C20       1.0  0.34664  0.80419  0.99097  1.0000
  N   N1        1.0  0.21104  0.74326  0.28896  1.0000
  N   N2        1.0  0.28896  0.24325  0.71104  1.0000
  N   N3        1.0  0.78897  0.25674  0.71104  1.0000
  N   N4        1.0  0.71104  0.75675  0.28896  1.0000
  N   N5        1.0  0.97767  0.57493  0.18061  1.0000
  N   N6        1.0  0.52233  0.07493  0.81939  1.0000
  N   N7        1.0  0.02232  0.42507  0.81938  1.0000
  N   N8        1.0  0.47767  0.92507  0.18061  1.0000
  N   N9        1.0  0.84041  0.56502  0.05751  1.0000
  N   N10       1.0  0.65959  0.06503  0.94249  1.0000
  N   N11       1.0  0.15959  0.43497  0.94249  1.0000
  N   N12       1.0  0.34041  0.93498  0.05751  1.0000
  N   N13       1.0  0.97789  0.78823  0.06259  1.0000
  N   N14       1.0  0.52211  0.28823  0.93741  1.0000
  N   N15       1.0  0.02211  0.21177  0.93741  1.0000
  N   N16       1.0  0.47789  0.71177  0.06259  1.0000
  Cl  Cl1       1.0  0.96116  0.91591  0.76066  1.0000
  Cl  Cl2       1.0  0.53884  0.41591  0.23933  1.0000
  Cl  Cl3       1.0  0.03884  0.08409  0.23934  1.0000
  Cl  Cl4       1.0  0.46116  0.58410  0.76067  1.0000
