data_image0
_chemical_formula_structural       Cu2H16C24S4N20
_chemical_formula_sum              "Cu2 H16 C24 S4 N20"
_cell_length_a       7.84522
_cell_length_b       8.78509
_cell_length_c       11.7207
_cell_angle_alpha    89.9983
_cell_angle_beta     103.982
_cell_angle_gamma    90.003

_space_group_name_H-M_alt    "P 1"
_space_group_IT_number       1

loop_
  _space_group_symop_operation_xyz
  'x, y, z'

loop_
  _atom_site_type_symbol
  _atom_site_label
  _atom_site_symmetry_multiplicity
  _atom_site_fract_x
  _atom_site_fract_y
  _atom_site_fract_z
  _atom_site_occupancy
  Cu  Cu1       1.0  0.00033  0.00009  0.00001  1.0000
  Cu  Cu2       1.0  0.50032  0.49993  0.00007  1.0000
  H   H1        1.0  0.58942  0.92980  0.40547  1.0000
  H   H2        1.0  0.90987  0.43064  0.59421  1.0000
  H   H3        1.0  0.40994  0.06934  0.59415  1.0000
  H   H4        1.0  0.08949  0.57016  0.40545  1.0000
  H   H5        1.0  0.43551  0.18313  0.40036  1.0000
  H   H6        1.0  0.06358  0.68402  0.59939  1.0000
  H   H7        1.0  0.56368  0.81596  0.59936  1.0000
  H   H8        1.0  0.93559  0.31681  0.40032  1.0000
  H   H9        1.0  0.72376  0.86240  0.23570  1.0000
  H   H10       1.0  0.77633  0.36265  0.76430  1.0000
  H   H11       1.0  0.27634  0.13727  0.76423  1.0000
  H   H12       1.0  0.22377  0.63763  0.23568  1.0000
  H   H13       1.0  0.67474  0.21175  0.91376  1.0000
  H   H14       1.0  0.82612  0.71169  0.08660  1.0000
  H   H15       1.0  0.32613  0.78839  0.08656  1.0000
  H   H16       1.0  0.17473  0.28835  0.91369  1.0000
  C   C1        1.0  0.88150  0.08255  0.73907  1.0000
  C   C2        1.0  0.61836  0.58222  0.26096  1.0000
  C   C3        1.0  0.11831  0.91775  0.26093  1.0000
  C   C4        1.0  0.38150  0.41750  0.73914  1.0000
  C   C5        1.0  0.58102  0.00816  0.33266  1.0000
  C   C6        1.0  0.91847  0.50880  0.66717  1.0000
  C   C7        1.0  0.41855  0.99117  0.66711  1.0000
  C   C8        1.0  0.08111  0.49180  0.33265  1.0000
  C   C9        1.0  0.49540  0.15013  0.32910  1.0000
  C   C10       1.0  0.00405  0.65081  0.67076  1.0000
  C   C11       1.0  0.50411  0.84915  0.67071  1.0000
  C   C12       1.0  0.99548  0.34982  0.32907  1.0000
  C   C13       1.0  0.55577  0.20925  0.15552  1.0000
  C   C14       1.0  0.94438  0.70947  0.84461  1.0000
  C   C15       1.0  0.44438  0.79049  0.84455  1.0000
  C   C16       1.0  0.05579  0.29077  0.15546  1.0000
  C   C17       1.0  0.65467  0.96805  0.24187  1.0000
  C   C18       1.0  0.84524  0.46842  0.75811  1.0000
  C   C19       1.0  0.34529  0.03154  0.75804  1.0000
  C   C20       1.0  0.15475  0.53194  0.24185  1.0000
  C   C21       1.0  0.64662  0.18662  0.99783  1.0000
  C   C22       1.0  0.85399  0.68664  0.00244  1.0000
  C   C23       1.0  0.35401  0.81338  0.00239  1.0000
  C   C24       1.0  0.14660  0.31346  0.99775  1.0000
  S   S1        1.0  0.85309  0.09255  0.59894  1.0000
  S   S2        1.0  0.64580  0.59238  0.40100  1.0000
  S   S3        1.0  0.14563  0.90758  0.40096  1.0000
  S   S4        1.0  0.35299  0.40747  0.59902  1.0000
  N   N1        1.0  0.89949  0.08082  0.84323  1.0000
  N   N2        1.0  0.60122  0.58040  0.15689  1.0000
  N   N3        1.0  0.10125  0.91962  0.15687  1.0000
  N   N4        1.0  0.39953  0.41926  0.84331  1.0000
  N   N5        1.0  0.48229  0.25025  0.24201  1.0000
  N   N6        1.0  0.01757  0.75071  0.75803  1.0000
  N   N7        1.0  0.51757  0.74925  0.75798  1.0000
  N   N8        1.0  0.98231  0.24973  0.24195  1.0000
  N   N9        1.0  0.63809  0.06930  0.15258  1.0000
  N   N10       1.0  0.86206  0.56953  0.84750  1.0000
  N   N11       1.0  0.36209  0.93044  0.84742  1.0000
  N   N12       1.0  0.13814  0.43071  0.15256  1.0000
  N   N13       1.0  0.69476  0.05447  0.05218  1.0000
  N   N14       1.0  0.80566  0.55457  0.94802  1.0000
  N   N15       1.0  0.30571  0.94544  0.94794  1.0000
  N   N16       1.0  0.19479  0.44558  0.05214  1.0000
  N   N17       1.0  0.93609  0.78425  0.94413  1.0000
  N   N18       1.0  0.56442  0.28416  0.05613  1.0000
  N   N19       1.0  0.06438  0.21589  0.05605  1.0000
  N   N20       1.0  0.43607  0.71573  0.94409  1.0000
