data_image0
_chemical_formula_structural       Ag2H14C26N12O2
_chemical_formula_sum              "Ag2 H14 C26 N12 O2"
_cell_length_a       4.11023
_cell_length_b       11.3163
_cell_length_c       14.7488
_cell_angle_alpha    87.8125
_cell_angle_beta     87.8489
_cell_angle_gamma    87.5403

_space_group_name_H-M_alt    "P 1"
_space_group_IT_number       1

loop_
  _space_group_symop_operation_xyz
  'x, y, z'

loop_
  _atom_site_type_symbol
  _atom_site_label
  _atom_site_symmetry_multiplicity
  _atom_site_fract_x
  _atom_site_fract_y
  _atom_site_fract_z
  _atom_site_occupancy
  Ag  Ag1       1.0  0.28572  0.26216  0.35916  1.0000
  Ag  Ag2       1.0  0.71425  0.73784  0.64084  1.0000
  H   H1        1.0  0.59442  0.15229  0.16637  1.0000
  H   H2        1.0  0.40558  0.84771  0.83364  1.0000
  H   H3        1.0  0.85764  0.23674  0.96014  1.0000
  H   H4        1.0  0.14236  0.76325  0.03987  1.0000
  H   H5        1.0  0.80450  0.11027  0.03463  1.0000
  H   H6        1.0  0.19549  0.88973  0.96538  1.0000
  H   H7        1.0  0.20155  0.16377  0.01203  1.0000
  H   H8        1.0  0.79844  0.83623  0.98798  1.0000
  H   H9        1.0  0.27725  0.37338  0.05121  1.0000
  H   H10       1.0  0.72275  0.62662  0.94880  1.0000
  H   H11       1.0  0.09781  0.41083  0.15926  1.0000
  H   H12       1.0  0.90219  0.58918  0.84074  1.0000
  H   H13       1.0  0.88599  0.44764  0.05820  1.0000
  H   H14       1.0  0.11401  0.55236  0.94180  1.0000
  C   C1        1.0  0.70384  0.23907  0.17037  1.0000
  C   C2        1.0  0.29617  0.76094  0.82963  1.0000
  C   C3        1.0  0.94305  0.19009  0.02207  1.0000
  C   C4        1.0  0.05695  0.80991  0.97794  1.0000
  C   C5        1.0  0.04884  0.38149  0.09156  1.0000
  C   C6        1.0  0.95116  0.61852  0.90844  1.0000
  C   C7        1.0  0.97703  0.86843  0.31891  1.0000
  C   C8        1.0  0.02298  0.13157  0.68108  1.0000
  C   C9        1.0  0.79708  0.83317  0.24465  1.0000
  C   C10       1.0  0.20293  0.16683  0.75535  1.0000
  C   C11       1.0  0.79450  0.70774  0.24712  1.0000
  C   C12       1.0  0.20551  0.29226  0.75288  1.0000
  C   C13       1.0  0.97200  0.66412  0.32323  1.0000
  C   C14       1.0  0.02800  0.33588  0.67677  1.0000
  C   C15       1.0  0.08525  0.76364  0.36747  1.0000
  C   C16       1.0  0.91476  0.23635  0.63253  1.0000
  C   C17       1.0  0.03996  0.98576  0.33762  1.0000
  C   C18       1.0  0.96005  0.01424  0.66238  1.0000
  C   C19       1.0  0.63278  0.90681  0.18093  1.0000
  C   C20       1.0  0.36722  0.09319  0.81907  1.0000
  C   C21       1.0  0.63443  0.64462  0.18287  1.0000
  C   C22       1.0  0.36556  0.35538  0.81712  1.0000
  C   C23       1.0  0.02652  0.54470  0.34973  1.0000
  C   C24       1.0  0.97348  0.45530  0.65027  1.0000
  C   C25       1.0  0.27137  0.75956  0.44528  1.0000
  C   C26       1.0  0.72863  0.24044  0.55472  1.0000
  N   N1        1.0  0.89815  0.26722  0.09871  1.0000
  N   N2        1.0  0.10186  0.73279  0.90129  1.0000
  N   N3        1.0  0.08896  0.08467  0.35057  1.0000
  N   N4        1.0  0.91105  0.91533  0.64943  1.0000
  N   N5        1.0  0.48516  0.96550  0.12848  1.0000
  N   N6        1.0  0.51483  0.03450  0.87152  1.0000
  N   N7        1.0  0.49251  0.60041  0.12680  1.0000
  N   N8        1.0  0.50748  0.39960  0.87320  1.0000
  N   N9        1.0  0.06775  0.44506  0.37188  1.0000
  N   N10       1.0  0.93224  0.55494  0.62812  1.0000
  N   N11       1.0  0.42709  0.75684  0.50998  1.0000
  N   N12       1.0  0.57291  0.24316  0.49002  1.0000
  O   O1        1.0  0.64760  0.30458  0.23654  1.0000
  O   O2        1.0  0.35240  0.69542  0.76347  1.0000
