data_image0
_chemical_formula_structural       Cd2H28C32S4N8O4
_chemical_formula_sum              "Cd2 H28 C32 S4 N8 O4"
_cell_length_a       5.77525
_cell_length_b       11.3947
_cell_length_c       13.7666
_cell_angle_alpha    90.0007
_cell_angle_beta     99.5457
_cell_angle_gamma    90.001

_space_group_name_H-M_alt    "P 1"
_space_group_IT_number       1

loop_
  _space_group_symop_operation_xyz
  'x, y, z'

loop_
  _atom_site_type_symbol
  _atom_site_label
  _atom_site_symmetry_multiplicity
  _atom_site_fract_x
  _atom_site_fract_y
  _atom_site_fract_z
  _atom_site_occupancy
  Cd  Cd1       1.0  0.50001  0.50000  0.00000  1.0000
  Cd  Cd2       1.0  0.49999  0.00000  0.50001  1.0000
  H   H1        1.0  0.12217  0.28788  0.99563  1.0000
  H   H2        1.0  0.87783  0.78788  0.50437  1.0000
  H   H3        1.0  0.87785  0.71211  0.00437  1.0000
  H   H4        1.0  0.12216  0.21212  0.49563  1.0000
  H   H5        1.0  0.09148  0.07708  0.03663  1.0000
  H   H6        1.0  0.90850  0.57708  0.46337  1.0000
  H   H7        1.0  0.90851  0.92292  0.96337  1.0000
  H   H8        1.0  0.09150  0.42293  0.53663  1.0000
  H   H9        1.0  0.81796  0.09187  0.17924  1.0000
  H   H10       1.0  0.18204  0.59186  0.32076  1.0000
  H   H11       1.0  0.18205  0.90813  0.82076  1.0000
  H   H12       1.0  0.81794  0.40814  0.67924  1.0000
  H   H13       1.0  0.81790  0.30241  0.13205  1.0000
  H   H14       1.0  0.18211  0.80240  0.36795  1.0000
  H   H15       1.0  0.18212  0.69759  0.86795  1.0000
  H   H16       1.0  0.81789  0.19760  0.63205  1.0000
  H   H17       1.0  0.60901  0.78230  0.19566  1.0000
  H   H18       1.0  0.39098  0.28229  0.30433  1.0000
  H   H19       1.0  0.39099  0.21770  0.80434  1.0000
  H   H20       1.0  0.60900  0.71771  0.69567  1.0000
  H   H21       1.0  0.66188  0.91230  0.26959  1.0000
  H   H22       1.0  0.33811  0.41230  0.23040  1.0000
  H   H23       1.0  0.33810  0.08769  0.73041  1.0000
  H   H24       1.0  0.66190  0.58769  0.76960  1.0000
  H   H25       1.0  0.80428  0.89452  0.16674  1.0000
  H   H26       1.0  0.19571  0.39452  0.33327  1.0000
  H   H27       1.0  0.19572  0.10547  0.83327  1.0000
  H   H28       1.0  0.80428  0.60548  0.66673  1.0000
  C   C1        1.0  0.04166  0.55545  0.12028  1.0000
  C   C2        1.0  0.95833  0.05546  0.37972  1.0000
  C   C3        1.0  0.95837  0.44455  0.87972  1.0000
  C   C4        1.0  0.04165  0.94455  0.62028  1.0000
  C   C5        1.0  0.27241  0.24161  0.03668  1.0000
  C   C6        1.0  0.72760  0.74161  0.46332  1.0000
  C   C7        1.0  0.72761  0.75839  0.96332  1.0000
  C   C8        1.0  0.27239  0.25839  0.53668  1.0000
  C   C9        1.0  0.25566  0.12370  0.05995  1.0000
  C   C10       1.0  0.74433  0.62370  0.44005  1.0000
  C   C11       1.0  0.74434  0.87630  0.94005  1.0000
  C   C12       1.0  0.25566  0.37630  0.55995  1.0000
  C   C13       1.0  0.45239  0.06568  0.11123  1.0000
  C   C14       1.0  0.54762  0.56569  0.38877  1.0000
  C   C15       1.0  0.54762  0.93431  0.88877  1.0000
  C   C16       1.0  0.45237  0.43431  0.61123  1.0000
  C   C17       1.0  0.65844  0.13079  0.13861  1.0000
  C   C18       1.0  0.34155  0.63078  0.36139  1.0000
  C   C19       1.0  0.34157  0.86921  0.86139  1.0000
  C   C20       1.0  0.65844  0.36922  0.63861  1.0000
  C   C21       1.0  0.66061  0.24882  0.11211  1.0000
  C   C22       1.0  0.33940  0.74881  0.38789  1.0000
  C   C23       1.0  0.33941  0.75118  0.88789  1.0000
  C   C24       1.0  0.66059  0.25119  0.61211  1.0000
  C   C25       1.0  0.43373  0.93648  0.13285  1.0000
  C   C26       1.0  0.56630  0.43647  0.36716  1.0000
  C   C27       1.0  0.56627  0.06353  0.86716  1.0000
  C   C28       1.0  0.43374  0.56352  0.63284  1.0000
  C   C29       1.0  0.63935  0.87698  0.19417  1.0000
  C   C30       1.0  0.36064  0.37697  0.30583  1.0000
  C   C31       1.0  0.36065  0.12302  0.80583  1.0000
  C   C32       1.0  0.63935  0.62302  0.69417  1.0000
  S   S1        1.0  0.80546  0.55434  0.17047  1.0000
  S   S2        1.0  0.19455  0.05433  0.32953  1.0000
  S   S3        1.0  0.19457  0.44566  0.82953  1.0000
  S   S4        1.0  0.80544  0.94567  0.67047  1.0000
  N   N1        1.0  0.21383  0.55856  0.08435  1.0000
  N   N2        1.0  0.78620  0.05856  0.41565  1.0000
  N   N3        1.0  0.78620  0.44144  0.91565  1.0000
  N   N4        1.0  0.21379  0.94144  0.58435  1.0000
  N   N5        1.0  0.47228  0.30338  0.06154  1.0000
  N   N6        1.0  0.52773  0.80337  0.43845  1.0000
  N   N7        1.0  0.52774  0.69662  0.93846  1.0000
  N   N8        1.0  0.47227  0.19663  0.56154  1.0000
  O   O1        1.0  0.25078  0.88386  0.10047  1.0000
  O   O2        1.0  0.74918  0.38387  0.39952  1.0000
  O   O3        1.0  0.74921  0.11615  0.89953  1.0000
  O   O4        1.0  0.25079  0.61614  0.60048  1.0000
