data_image0
_chemical_formula_structural       Cd2H28C32Se4N8O4
_chemical_formula_sum              "Cd2 H28 C32 Se4 N8 O4"
_cell_length_a       5.79291
_cell_length_b       12.2044
_cell_length_c       14.643
_cell_angle_alpha    69.6769
_cell_angle_beta     78.5776
_cell_angle_gamma    76.185

_space_group_name_H-M_alt    "P 1"
_space_group_IT_number       1

loop_
  _space_group_symop_operation_xyz
  'x, y, z'

loop_
  _atom_site_type_symbol
  _atom_site_label
  _atom_site_symmetry_multiplicity
  _atom_site_fract_x
  _atom_site_fract_y
  _atom_site_fract_z
  _atom_site_occupancy
  Cd  Cd1       1.0  0.99998  0.00000  1.00000  1.0000
  Cd  Cd2       1.0  0.99999  0.49999  0.49998  1.0000
  H   H1        1.0  0.35764  0.20075  0.88669  1.0000
  H   H2        1.0  0.44501  0.29898  0.61346  1.0000
  H   H3        1.0  0.64236  0.79924  0.11329  1.0000
  H   H4        1.0  0.55493  0.70102  0.38651  1.0000
  H   H5        1.0  0.33942  0.41858  0.83465  1.0000
  H   H6        1.0  0.59314  0.08109  0.66548  1.0000
  H   H7        1.0  0.66059  0.58141  0.16534  1.0000
  H   H8        1.0  0.40681  0.91893  0.33450  1.0000
  H   H9        1.0  0.59467  0.45210  0.96043  1.0000
  H   H10       1.0  0.00831  0.04827  0.53917  1.0000
  H   H11       1.0  0.40538  0.54791  0.03958  1.0000
  H   H12       1.0  0.99169  0.95171  0.46083  1.0000
  H   H13       1.0  0.64659  0.23183  0.01138  1.0000
  H   H14       1.0  0.88996  0.26871  0.48837  1.0000
  H   H15       1.0  0.35341  0.76817  0.98862  1.0000
  H   H16       1.0  0.11000  0.73128  0.51161  1.0000
  H   H17       1.0  0.08727  0.74332  0.80504  1.0000
  H   H18       1.0  0.63612  0.75645  0.69521  1.0000
  H   H19       1.0  0.91283  0.25667  0.19501  1.0000
  H   H20       1.0  0.36391  0.24357  0.30480  1.0000
  H   H21       1.0  0.18064  0.63833  0.73868  1.0000
  H   H22       1.0  0.55650  0.86140  0.76163  1.0000
  H   H23       1.0  0.81948  0.36166  0.26136  1.0000
  H   H24       1.0  0.44352  0.13864  0.23835  1.0000
  H   H25       1.0  0.30087  0.60997  0.84794  1.0000
  H   H26       1.0  0.75805  0.88998  0.65256  1.0000
  H   H27       1.0  0.69921  0.39001  0.15211  1.0000
  H   H28       1.0  0.24196  0.11004  0.34742  1.0000
  C   C1        1.0  0.57248  0.99341  0.87762  1.0000
  C   C2        1.0  0.44382  0.50622  0.62261  1.0000
  C   C3        1.0  0.42744  0.00659  0.12237  1.0000
  C   C4        1.0  0.55620  0.49379  0.37737  1.0000
  C   C5        1.0  0.19184  0.25956  0.90259  1.0000
  C   C6        1.0  0.35409  0.24032  0.59749  1.0000
  C   C7        1.0  0.80817  0.74045  0.09740  1.0000
  C   C8        1.0  0.64582  0.75968  0.40250  1.0000
  C   C9        1.0  0.17970  0.38220  0.87349  1.0000
  C   C10       1.0  0.43579  0.11765  0.62659  1.0000
  C   C11       1.0  0.82032  0.61779  0.12651  1.0000
  C   C12       1.0  0.56415  0.88236  0.37341  1.0000
  C   C13       1.0  0.96339  0.45487  0.89454  1.0000
  C   C14       1.0  0.31324  0.04525  0.60539  1.0000
  C   C15       1.0  0.03666  0.54513  0.10548  1.0000
  C   C16       1.0  0.68672  0.95474  0.39461  1.0000
  C   C17       1.0  0.76764  0.39981  0.94355  1.0000
  C   C18       1.0  0.11162  0.10053  0.55615  1.0000
  C   C19       1.0  0.23240  0.60020  0.05647  1.0000
  C   C20       1.0  0.88835  0.89945  0.44384  1.0000
  C   C21       1.0  0.79472  0.27714  0.97133  1.0000
  C   C22       1.0  0.04336  0.22316  0.52850  1.0000
  C   C23       1.0  0.20530  0.72286  0.02867  1.0000
  C   C24       1.0  0.95659  0.77683  0.47150  1.0000
  C   C25       1.0  0.93218  0.58784  0.86906  1.0000
  C   C26       1.0  0.38879  0.91220  0.63108  1.0000
  C   C27       1.0  0.06788  0.41215  0.13096  1.0000
  C   C28       1.0  0.61121  0.08779  0.36892  1.0000
  C   C29       1.0  0.13691  0.64867  0.81224  1.0000
  C   C30       1.0  0.59741  0.85112  0.68805  1.0000
  C   C31       1.0  0.86319  0.35132  0.18780  1.0000
  C   C32       1.0  0.40261  0.14891  0.31194  1.0000
  Se  Se1       1.0  0.85369  0.03588  0.81698  1.0000
  Se  Se2       1.0  0.70682  0.46432  0.68323  1.0000
  Se  Se3       1.0  0.14624  0.96414  0.18301  1.0000
  Se  Se4       1.0  0.29314  0.53572  0.31674  1.0000
  N   N1        1.0  0.38710  0.96550  0.91716  1.0000
  N   N2        1.0  0.27000  0.53389  0.58306  1.0000
  N   N3        1.0  0.61282  0.03447  0.08285  1.0000
  N   N4        1.0  0.73002  0.46609  0.41692  1.0000
  N   N5        1.0  0.00353  0.20768  0.95115  1.0000
  N   N6        1.0  0.16238  0.29238  0.54885  1.0000
  N   N7        1.0  0.99646  0.79233  0.04884  1.0000
  N   N8        1.0  0.83753  0.70762  0.45114  1.0000
  O   O1        1.0  0.73830  0.64358  0.89562  1.0000
  O   O2        1.0  0.27663  0.85677  0.60464  1.0000
  O   O3        1.0  0.26174  0.35643  0.10438  1.0000
  O   O4        1.0  0.72338  0.14322  0.39536  1.0000
