data_image0
_chemical_formula_structural       Cd2H28C32S4N8O4
_chemical_formula_sum              "Cd2 H28 C32 S4 N8 O4"
_cell_length_a       5.69431
_cell_length_b       12.5629
_cell_length_c       14.3958
_cell_angle_alpha    106.712
_cell_angle_beta     101.357
_cell_angle_gamma    103.177

_space_group_name_H-M_alt    "P 1"
_space_group_IT_number       1

loop_
  _space_group_symop_operation_xyz
  'x, y, z'

loop_
  _atom_site_type_symbol
  _atom_site_label
  _atom_site_symmetry_multiplicity
  _atom_site_fract_x
  _atom_site_fract_y
  _atom_site_fract_z
  _atom_site_occupancy
  Cd  Cd1       1.0  0.00000  1.00000  0.99999  1.0000
  Cd  Cd2       1.0  0.50001  0.50000  0.50000  1.0000
  H   H1        1.0  0.44108  0.79910  0.88371  1.0000
  H   H2        1.0  0.25818  0.70067  0.61638  1.0000
  H   H3        1.0  0.55893  0.20091  0.11629  1.0000
  H   H4        1.0  0.74184  0.29932  0.38361  1.0000
  H   H5        1.0  0.24328  0.58583  0.83110  1.0000
  H   H6        1.0  0.32627  0.91385  0.66863  1.0000
  H   H7        1.0  0.75671  0.41419  0.16890  1.0000
  H   H8        1.0  0.67372  0.08614  0.33137  1.0000
  H   H9        1.0  0.96830  0.56263  0.96955  1.0000
  H   H10       1.0  0.93812  0.93737  0.53088  1.0000
  H   H11       1.0  0.03165  0.43736  0.03045  1.0000
  H   H12       1.0  0.06189  0.06263  0.46912  1.0000
  H   H13       1.0  0.13385  0.77827  0.01962  1.0000
  H   H14       1.0  0.83750  0.72181  0.48093  1.0000
  H   H15       1.0  0.86615  0.22172  0.98038  1.0000
  H   H16       1.0  0.16254  0.27819  0.51907  1.0000
  H   H17       1.0  0.17600  0.27100  0.79661  1.0000
  H   H18       1.0  0.60955  0.22883  0.70296  1.0000
  H   H19       1.0  0.82397  0.72901  0.20339  1.0000
  H   H20       1.0  0.39046  0.77116  0.29704  1.0000
  H   H21       1.0  0.18527  0.37514  0.73382  1.0000
  H   H22       1.0  0.57603  0.12458  0.76567  1.0000
  H   H23       1.0  0.81470  0.62486  0.26618  1.0000
  H   H24       1.0  0.42401  0.87542  0.23433  1.0000
  H   H25       1.0  0.09217  0.40074  0.84605  1.0000
  H   H26       1.0  0.34618  0.09906  0.65324  1.0000
  H   H27       1.0  0.90781  0.59927  0.15395  1.0000
  H   H28       1.0  0.65383  0.90094  0.34676  1.0000
  C   C1        1.0  0.42203  0.99555  0.87428  1.0000
  C   C2        1.0  0.05099  0.50425  0.62556  1.0000
  C   C3        1.0  0.57796  0.00445  0.12571  1.0000
  C   C4        1.0  0.94902  0.49576  0.37446  1.0000
  C   C5        1.0  0.55142  0.74357  0.90171  1.0000
  C   C6        1.0  0.40648  0.75626  0.59842  1.0000
  C   C7        1.0  0.44857  0.25644  0.09829  1.0000
  C   C8        1.0  0.59354  0.24374  0.40158  1.0000
  C   C9        1.0  0.44218  0.62349  0.87212  1.0000
  C   C10       1.0  0.44687  0.87628  0.62782  1.0000
  C   C11       1.0  0.55781  0.37652  0.12788  1.0000
  C   C12       1.0  0.55313  0.12371  0.37218  1.0000
  C   C13       1.0  0.59077  0.55501  0.89564  1.0000
  C   C14       1.0  0.64095  0.94485  0.60436  1.0000
  C   C15       1.0  0.40921  0.44499  0.10436  1.0000
  C   C16       1.0  0.35905  0.05514  0.39564  1.0000
  C   C17       1.0  0.84418  0.61131  0.94881  1.0000
  C   C18       1.0  0.78561  0.88866  0.55155  1.0000
  C   C19       1.0  0.15579  0.38868  0.05119  1.0000
  C   C20       1.0  0.21439  0.11133  0.44845  1.0000
  C   C21       1.0  0.93827  0.73145  0.97672  1.0000
  C   C22       1.0  0.73139  0.76855  0.52372  1.0000
  C   C23       1.0  0.06173  0.26855  0.02329  1.0000
  C   C24       1.0  0.26864  0.23144  0.47628  1.0000
  C   C25       1.0  0.48990  0.42486  0.86752  1.0000
  C   C26       1.0  0.69826  0.07492  0.63212  1.0000
  C   C27       1.0  0.51006  0.57514  0.13248  1.0000
  C   C28       1.0  0.30169  0.92505  0.36788  1.0000
  C   C29       1.0  0.22013  0.36398  0.80789  1.0000
  C   C30       1.0  0.54899  0.13584  0.69165  1.0000
  C   C31       1.0  0.77985  0.63603  0.19211  1.0000
  C   C32       1.0  0.45103  0.86416  0.30835  1.0000
  S   S1        1.0  0.12080  0.95407  0.82027  1.0000
  S   S2        1.0  0.84574  0.54600  0.67972  1.0000
  S   S3        1.0  0.87919  0.04595  0.17972  1.0000
  S   S4        1.0  0.15428  0.45400  0.32029  1.0000
  N   N1        1.0  0.64206  0.02619  0.91207  1.0000
  N   N2        1.0  0.20230  0.47345  0.58767  1.0000
  N   N3        1.0  0.35793  0.97381  0.08792  1.0000
  N   N4        1.0  0.79773  0.52655  0.41233  1.0000
  N   N5        1.0  0.79497  0.79687  0.95324  1.0000
  N   N6        1.0  0.54549  0.70305  0.54704  1.0000
  N   N7        1.0  0.20505  0.20314  0.04676  1.0000
  N   N8        1.0  0.45454  0.29695  0.45295  1.0000
  O   O1        1.0  0.63161  0.37128  0.89394  1.0000
  O   O2        1.0  0.86701  0.12845  0.60540  1.0000
  O   O3        1.0  0.36836  0.62872  0.10606  1.0000
  O   O4        1.0  0.13300  0.87154  0.39457  1.0000
