data_image0
_chemical_formula_structural       Hg4H16C32N20
_chemical_formula_sum              "Hg4 H16 C32 N20"
_cell_length_a       7.18941
_cell_length_b       7.90539
_cell_length_c       16.9592
_cell_angle_alpha    89.9991
_cell_angle_beta     92.1976
_cell_angle_gamma    90.0004

_space_group_name_H-M_alt    "P 1"
_space_group_IT_number       1

loop_
  _space_group_symop_operation_xyz
  'x, y, z'

loop_
  _atom_site_type_symbol
  _atom_site_label
  _atom_site_symmetry_multiplicity
  _atom_site_fract_x
  _atom_site_fract_y
  _atom_site_fract_z
  _atom_site_occupancy
  Hg  Hg1       1.0  0.22028  0.73601  0.19155  1.0000
  Hg  Hg2       1.0  0.77972  0.23601  0.30845  1.0000
  Hg  Hg3       1.0  0.77973  0.26399  0.80844  1.0000
  Hg  Hg4       1.0  0.22026  0.76398  0.69155  1.0000
  H   H1        1.0  0.62970  0.62708  0.10788  1.0000
  H   H2        1.0  0.37031  0.12707  0.39212  1.0000
  H   H3        1.0  0.37032  0.37294  0.89213  1.0000
  H   H4        1.0  0.62969  0.87293  0.60788  1.0000
  H   H5        1.0  0.81216  0.61597  0.98522  1.0000
  H   H6        1.0  0.18783  0.11597  0.51478  1.0000
  H   H7        1.0  0.18785  0.38404  0.01478  1.0000
  H   H8        1.0  0.81216  0.88404  0.48522  1.0000
  H   H9        1.0  0.67536  0.74845  0.86105  1.0000
  H   H10       1.0  0.32462  0.24844  0.63895  1.0000
  H   H11       1.0  0.32465  0.25156  0.13895  1.0000
  H   H12       1.0  0.67536  0.75156  0.36105  1.0000
  H   H13       1.0  0.36397  0.89014  0.86649  1.0000
  H   H14       1.0  0.63602  0.39013  0.63350  1.0000
  H   H15       1.0  0.63603  0.10986  0.13350  1.0000
  H   H16       1.0  0.36397  0.60988  0.36650  1.0000
  C   C1        1.0  0.57560  0.68438  0.05318  1.0000
  C   C2        1.0  0.42440  0.18438  0.44682  1.0000
  C   C3        1.0  0.42441  0.31562  0.94682  1.0000
  C   C4        1.0  0.57560  0.81561  0.55319  1.0000
  C   C5        1.0  0.67712  0.67842  0.98452  1.0000
  C   C6        1.0  0.32287  0.17842  0.51548  1.0000
  C   C7        1.0  0.32290  0.32158  0.01548  1.0000
  C   C8        1.0  0.67711  0.82157  0.48452  1.0000
  C   C9        1.0  0.60118  0.75145  0.91582  1.0000
  C   C10       1.0  0.39881  0.25145  0.58418  1.0000
  C   C11       1.0  0.39883  0.24854  0.08418  1.0000
  C   C12       1.0  0.60118  0.74855  0.41582  1.0000
  C   C13       1.0  0.42767  0.82929  0.91825  1.0000
  C   C14       1.0  0.57233  0.32929  0.58174  1.0000
  C   C15       1.0  0.57235  0.17069  0.08175  1.0000
  C   C16       1.0  0.42766  0.67071  0.41825  1.0000
  C   C17       1.0  0.33591  0.83040  0.98958  1.0000
  C   C18       1.0  0.66409  0.33040  0.51042  1.0000
  C   C19       1.0  0.66409  0.16959  0.01042  1.0000
  C   C20       1.0  0.33591  0.66961  0.48958  1.0000
  C   C21       1.0  0.15600  0.91836  0.99502  1.0000
  C   C22       1.0  0.84400  0.41835  0.50498  1.0000
  C   C23       1.0  0.84401  0.08165  0.00499  1.0000
  C   C24       1.0  0.15599  0.58165  0.49501  1.0000
  C   C25       1.0  0.37237  0.92951  0.24206  1.0000
  C   C26       1.0  0.62762  0.42950  0.25794  1.0000
  C   C27       1.0  0.62763  0.07050  0.75793  1.0000
  C   C28       1.0  0.37238  0.57050  0.74206  1.0000
  C   C29       1.0  0.05176  0.53924  0.15621  1.0000
  C   C30       1.0  0.94824  0.03926  0.34379  1.0000
  C   C31       1.0  0.94826  0.46075  0.84380  1.0000
  C   C32       1.0  0.05172  0.96074  0.65622  1.0000
  N   N1        1.0  0.40829  0.75767  0.05600  1.0000
  N   N2        1.0  0.59171  0.25767  0.44400  1.0000
  N   N3        1.0  0.59172  0.24233  0.94400  1.0000
  N   N4        1.0  0.40828  0.74234  0.55600  1.0000
  N   N5        1.0  0.07418  0.92465  0.06546  1.0000
  N   N6        1.0  0.92583  0.42466  0.43454  1.0000
  N   N7        1.0  0.92583  0.07535  0.93454  1.0000
  N   N8        1.0  0.07417  0.57534  0.56546  1.0000
  N   N9        1.0  0.91666  0.00667  0.07094  1.0000
  N   N10       1.0  0.08334  0.50668  0.42907  1.0000
  N   N11       1.0  0.08334  0.99333  0.92906  1.0000
  N   N12       1.0  0.91666  0.49332  0.57094  1.0000
  N   N13       1.0  0.46861  0.03575  0.26848  1.0000
  N   N14       1.0  0.53139  0.53576  0.23152  1.0000
  N   N15       1.0  0.53138  0.96426  0.73152  1.0000
  N   N16       1.0  0.46862  0.46425  0.76848  1.0000
  N   N17       1.0  0.96271  0.42681  0.13062  1.0000
  N   N18       1.0  0.03730  0.92682  0.36939  1.0000
  N   N19       1.0  0.03731  0.57317  0.86939  1.0000
  N   N20       1.0  0.96267  0.07316  0.63061  1.0000
