data_image0
_chemical_formula_structural       Zn2H16C24N12Cl4
_chemical_formula_sum              "Zn2 H16 C24 N12 Cl4"
_cell_length_a       8.25537
_cell_length_b       11.0503
_cell_length_c       9.27613
_cell_angle_alpha    94.7685
_cell_angle_beta     98.316
_cell_angle_gamma    97.8935

_space_group_name_H-M_alt    "P 1"
_space_group_IT_number       1

loop_
  _space_group_symop_operation_xyz
  'x, y, z'

loop_
  _atom_site_type_symbol
  _atom_site_label
  _atom_site_symmetry_multiplicity
  _atom_site_fract_x
  _atom_site_fract_y
  _atom_site_fract_z
  _atom_site_occupancy
  Zn  Zn1       1.0  0.66753  0.76006  0.80197  1.0000
  Zn  Zn2       1.0  0.33248  0.23994  0.19802  1.0000
  H   H1        1.0  0.00542  0.88428  0.96399  1.0000
  H   H2        1.0  0.99457  0.11573  0.03602  1.0000
  H   H3        1.0  0.24492  0.82617  0.12885  1.0000
  H   H4        1.0  0.75508  0.17383  0.87114  1.0000
  H   H5        1.0  0.20599  0.62146  0.23408  1.0000
  H   H6        1.0  0.79401  0.37853  0.76591  1.0000
  H   H7        1.0  0.92390  0.49742  0.18958  1.0000
  H   H8        1.0  0.07609  0.50258  0.81042  1.0000
  H   H9        1.0  0.40667  0.60108  0.56842  1.0000
  H   H10       1.0  0.59336  0.39893  0.43157  1.0000
  H   H11       1.0  0.10799  0.59111  0.46613  1.0000
  H   H12       1.0  0.89202  0.40889  0.53387  1.0000
  H   H13       1.0  0.95424  0.76078  0.55179  1.0000
  H   H14       1.0  0.04575  0.23921  0.44821  1.0000
  H   H15       1.0  0.10549  0.92547  0.74136  1.0000
  H   H16       1.0  0.89450  0.07451  0.25864  1.0000
  C   C1        1.0  0.99363  0.79948  0.01647  1.0000
  C   C2        1.0  0.00635  0.20052  0.98353  1.0000
  C   C3        1.0  0.12711  0.76510  0.10629  1.0000
  C   C4        1.0  0.87290  0.23490  0.89370  1.0000
  C   C5        1.0  0.10455  0.65425  0.16701  1.0000
  C   C6        1.0  0.89544  0.34575  0.83298  1.0000
  C   C7        1.0  0.94756  0.58359  0.14169  1.0000
  C   C8        1.0  0.05244  0.41641  0.85830  1.0000
  C   C9        1.0  0.82004  0.62517  0.05227  1.0000
  C   C10       1.0  0.17995  0.37483  0.94772  1.0000
  C   C11       1.0  0.65058  0.55705  0.02429  1.0000
  C   C12       1.0  0.34942  0.44295  0.97571  1.0000
  C   C13       1.0  0.33488  0.67033  0.60509  1.0000
  C   C14       1.0  0.66513  0.32968  0.39490  1.0000
  C   C15       1.0  0.16829  0.66705  0.54681  1.0000
  C   C16       1.0  0.83172  0.33295  0.45319  1.0000
  C   C17       1.0  0.08439  0.76026  0.59373  1.0000
  C   C18       1.0  0.91562  0.23973  0.40627  1.0000
  C   C19       1.0  0.16830  0.85225  0.70111  1.0000
  C   C20       1.0  0.83169  0.14774  0.29889  1.0000
  C   C21       1.0  0.33204  0.84546  0.75962  1.0000
  C   C22       1.0  0.66797  0.15455  0.24039  1.0000
  C   C23       1.0  0.42070  0.92980  0.88589  1.0000
  C   C24       1.0  0.57929  0.07021  0.11411  1.0000
  N   N1        1.0  0.84445  0.73033  0.98775  1.0000
  N   N2        1.0  0.15554  0.26968  0.01226  1.0000
  N   N3        1.0  0.53247  0.60840  0.94516  1.0000
  N   N4        1.0  0.46753  0.39161  0.05484  1.0000
  N   N5        1.0  0.37916  0.55135  0.92004  1.0000
  N   N6        1.0  0.62083  0.44865  0.07996  1.0000
  N   N7        1.0  0.41491  0.75732  0.70985  1.0000
  N   N8        1.0  0.58510  0.24269  0.29016  1.0000
  N   N9        1.0  0.56300  0.89960  0.95571  1.0000
  N   N10       1.0  0.43697  0.10041  0.04430  1.0000
  N   N11       1.0  0.64455  0.97027  0.07156  1.0000
  N   N12       1.0  0.35544  0.02973  0.92844  1.0000
  Cl  Cl1       1.0  0.72086  0.58661  0.66605  1.0000
  Cl  Cl2       1.0  0.27916  0.41339  0.33395  1.0000
  Cl  Cl3       1.0  0.78675  0.93864  0.72434  1.0000
  Cl  Cl4       1.0  0.21327  0.06136  0.27566  1.0000
