data_image0
_chemical_formula_structural       Zn4H40C64N8O16
_chemical_formula_sum              "Zn4 H40 C64 N8 O16"
_cell_length_a       8.3138
_cell_length_b       11.1788
_cell_length_c       14.7819
_cell_angle_alpha    90
_cell_angle_beta     90.0003
_cell_angle_gamma    90

_space_group_name_H-M_alt    "P 1"
_space_group_IT_number       1

loop_
  _space_group_symop_operation_xyz
  'x, y, z'

loop_
  _atom_site_type_symbol
  _atom_site_label
  _atom_site_symmetry_multiplicity
  _atom_site_fract_x
  _atom_site_fract_y
  _atom_site_fract_z
  _atom_site_occupancy
  Zn  Zn1       1.0  0.10597  0.15074  0.98541  1.0000
  Zn  Zn2       1.0  0.39403  0.65074  0.51459  1.0000
  Zn  Zn3       1.0  0.89403  0.84926  0.01459  1.0000
  Zn  Zn4       1.0  0.60597  0.34926  0.48541  1.0000
  H   H1        1.0  0.67192  0.90662  0.32925  1.0000
  H   H2        1.0  0.82808  0.40662  0.17075  1.0000
  H   H3        1.0  0.32808  0.09338  0.67075  1.0000
  H   H4        1.0  0.17192  0.59338  0.82925  1.0000
  H   H5        1.0  0.21316  0.79428  0.22851  1.0000
  H   H6        1.0  0.28684  0.29428  0.27149  1.0000
  H   H7        1.0  0.78684  0.20572  0.77149  1.0000
  H   H8        1.0  0.71317  0.70572  0.72851  1.0000
  H   H9        1.0  0.48698  0.05553  0.08047  1.0000
  H   H10       1.0  0.01302  0.55553  0.41953  1.0000
  H   H11       1.0  0.51302  0.94447  0.91953  1.0000
  H   H12       1.0  0.98698  0.44447  0.58047  1.0000
  H   H13       1.0  0.85194  0.01505  0.17870  1.0000
  H   H14       1.0  0.64806  0.51505  0.32130  1.0000
  H   H15       1.0  0.14806  0.98495  0.82130  1.0000
  H   H16       1.0  0.35194  0.48494  0.67870  1.0000
  H   H17       1.0  0.73166  0.13395  0.14140  1.0000
  H   H18       1.0  0.76834  0.63395  0.35860  1.0000
  H   H19       1.0  0.26834  0.86605  0.85860  1.0000
  H   H20       1.0  0.23166  0.36605  0.64140  1.0000
  H   H21       1.0  0.55959  0.23082  0.29608  1.0000
  H   H22       1.0  0.94041  0.73082  0.20392  1.0000
  H   H23       1.0  0.44041  0.76918  0.70392  1.0000
  H   H24       1.0  0.05959  0.26918  0.79608  1.0000
  H   H25       1.0  0.07632  0.99570  0.26563  1.0000
  H   H26       1.0  0.42368  0.49570  0.23437  1.0000
  H   H27       1.0  0.92368  0.00430  0.73437  1.0000
  H   H28       1.0  0.57632  0.50430  0.76563  1.0000
  H   H29       1.0  0.28163  0.01384  0.38724  1.0000
  H   H30       1.0  0.21837  0.51384  0.11276  1.0000
  H   H31       1.0  0.71837  0.98616  0.61276  1.0000
  H   H32       1.0  0.78163  0.48616  0.88724  1.0000
  H   H33       1.0  0.23490  0.14069  0.52155  1.0000
  H   H34       1.0  0.26510  0.64069  0.97845  1.0000
  H   H35       1.0  0.76510  0.85931  0.47845  1.0000
  H   H36       1.0  0.73490  0.35931  0.02155  1.0000
  H   H37       1.0  0.97345  0.24960  0.54231  1.0000
  H   H38       1.0  0.52655  0.74960  0.95769  1.0000
  H   H39       1.0  0.02655  0.75040  0.45769  1.0000
  H   H40       1.0  0.47345  0.25040  0.04231  1.0000
  C   C1        1.0  0.59731  0.98887  0.20293  1.0000
  C   C2        1.0  0.90269  0.48887  0.29707  1.0000
  C   C3        1.0  0.40269  0.01113  0.79707  1.0000
  C   C4        1.0  0.09731  0.51113  0.70293  1.0000
  C   C5        1.0  0.57961  0.91149  0.27686  1.0000
  C   C6        1.0  0.92039  0.41149  0.22314  1.0000
  C   C7        1.0  0.42039  0.08851  0.72314  1.0000
  C   C8        1.0  0.07961  0.58851  0.77686  1.0000
  C   C9        1.0  0.44128  0.84136  0.28572  1.0000
  C   C10       1.0  0.05872  0.34136  0.21428  1.0000
  C   C11       1.0  0.55872  0.15864  0.71428  1.0000
  C   C12       1.0  0.94128  0.65864  0.78572  1.0000
  C   C13       1.0  0.32056  0.84853  0.22031  1.0000
  C   C14       1.0  0.17944  0.34853  0.27968  1.0000
  C   C15       1.0  0.67944  0.15147  0.77968  1.0000
  C   C16       1.0  0.82057  0.65148  0.72031  1.0000
  C   C17       1.0  0.33670  0.92540  0.14674  1.0000
  C   C18       1.0  0.16330  0.42539  0.35326  1.0000
  C   C19       1.0  0.66331  0.07460  0.85326  1.0000
  C   C20       1.0  0.83670  0.57461  0.64674  1.0000
  C   C21       1.0  0.47596  0.99514  0.13789  1.0000
  C   C22       1.0  0.02404  0.49514  0.36211  1.0000
  C   C23       1.0  0.52404  0.00486  0.86211  1.0000
  C   C24       1.0  0.97596  0.50486  0.63789  1.0000
  C   C25       1.0  0.74443  0.06758  0.19554  1.0000
  C   C26       1.0  0.75557  0.56758  0.30446  1.0000
  C   C27       1.0  0.25557  0.93242  0.80446  1.0000
  C   C28       1.0  0.24443  0.43242  0.69554  1.0000
  C   C29       1.0  0.67529  0.20476  0.32375  1.0000
  C   C30       1.0  0.82471  0.70476  0.17625  1.0000
  C   C31       1.0  0.32471  0.79524  0.67625  1.0000
  C   C32       1.0  0.17529  0.29524  0.82375  1.0000
  C   C33       1.0  0.88316  0.18791  0.41316  1.0000
  C   C34       1.0  0.61684  0.68791  0.08684  1.0000
  C   C35       1.0  0.11684  0.81209  0.58684  1.0000
  C   C36       1.0  0.38316  0.31209  0.91316  1.0000
  C   C37       1.0  0.91215  0.11558  0.33613  1.0000
  C   C38       1.0  0.58785  0.61558  0.16387  1.0000
  C   C39       1.0  0.08785  0.88442  0.66387  1.0000
  C   C40       1.0  0.41215  0.38442  0.83613  1.0000
  C   C41       1.0  0.05432  0.05083  0.32508  1.0000
  C   C42       1.0  0.44568  0.55083  0.17492  1.0000
  C   C43       1.0  0.94568  0.94917  0.67492  1.0000
  C   C44       1.0  0.55432  0.44917  0.82508  1.0000
  C   C45       1.0  0.16815  0.06186  0.39363  1.0000
  C   C46       1.0  0.33185  0.56186  0.10637  1.0000
  C   C47       1.0  0.83185  0.93814  0.60637  1.0000
  C   C48       1.0  0.66815  0.43813  0.89363  1.0000
  C   C49       1.0  0.14049  0.13323  0.47072  1.0000
  C   C50       1.0  0.35951  0.63323  0.02928  1.0000
  C   C51       1.0  0.85951  0.86677  0.52928  1.0000
  C   C52       1.0  0.64049  0.36677  0.97072  1.0000
  C   C53       1.0  0.99765  0.19630  0.48221  1.0000
  C   C54       1.0  0.50235  0.69630  0.01779  1.0000
  C   C55       1.0  0.00236  0.80370  0.51779  1.0000
  C   C56       1.0  0.49765  0.30370  0.98221  1.0000
  C   C57       1.0  0.41312  0.76268  0.36562  1.0000
  C   C58       1.0  0.08688  0.26268  0.13438  1.0000
  C   C59       1.0  0.58688  0.23732  0.63438  1.0000
  C   C60       1.0  0.91312  0.73732  0.86562  1.0000
  C   C61       1.0  0.20027  0.93869  0.08225  1.0000
  C   C62       1.0  0.29972  0.43869  0.41775  1.0000
  C   C63       1.0  0.79972  0.06131  0.91775  1.0000
  C   C64       1.0  0.70027  0.56131  0.58225  1.0000
  N   N1        1.0  0.77757  0.12885  0.28115  1.0000
  N   N2        1.0  0.72243  0.62885  0.21885  1.0000
  N   N3        1.0  0.22243  0.87115  0.71885  1.0000
  N   N4        1.0  0.27757  0.37115  0.78115  1.0000
  N   N5        1.0  0.73332  0.24237  0.40274  1.0000
  N   N6        1.0  0.76668  0.74237  0.09726  1.0000
  N   N7        1.0  0.26668  0.75763  0.59726  1.0000
  N   N8        1.0  0.23332  0.25763  0.90274  1.0000
  O   O1        1.0  0.52781  0.74791  0.42380  1.0000
  O   O2        1.0  0.97219  0.24791  0.07619  1.0000
  O   O3        1.0  0.47219  0.25209  0.57619  1.0000
  O   O4        1.0  0.02781  0.75209  0.92381  1.0000
  O   O5        1.0  0.27749  0.71370  0.37606  1.0000
  O   O6        1.0  0.22251  0.21370  0.12394  1.0000
  O   O7        1.0  0.72251  0.28630  0.62394  1.0000
  O   O8        1.0  0.77750  0.78630  0.87606  1.0000
  O   O9        1.0  0.06624  0.89161  0.10568  1.0000
  O   O10       1.0  0.43376  0.39161  0.39432  1.0000
  O   O11       1.0  0.93376  0.10839  0.89432  1.0000
  O   O12       1.0  0.56624  0.60839  0.60568  1.0000
  O   O13       1.0  0.22224  0.99702  0.00908  1.0000
  O   O14       1.0  0.27776  0.49702  0.49092  1.0000
  O   O15       1.0  0.77776  0.00298  0.99092  1.0000
  O   O16       1.0  0.72224  0.50298  0.50908  1.0000
