data_image0
_chemical_formula_structural       Cd4H40C64N8O16
_chemical_formula_sum              "Cd4 H40 C64 N8 O16"
_cell_length_a       8.36684
_cell_length_b       11.4912
_cell_length_c       15.287
_cell_angle_alpha    90
_cell_angle_beta     90.0007
_cell_angle_gamma    90

_space_group_name_H-M_alt    "P 1"
_space_group_IT_number       1

loop_
  _space_group_symop_operation_xyz
  'x, y, z'

loop_
  _atom_site_type_symbol
  _atom_site_label
  _atom_site_symmetry_multiplicity
  _atom_site_fract_x
  _atom_site_fract_y
  _atom_site_fract_z
  _atom_site_occupancy
  Cd  Cd1       1.0  0.89722  0.14982  0.48820  1.0000
  Cd  Cd2       1.0  0.60278  0.64982  0.01180  1.0000
  Cd  Cd3       1.0  0.10278  0.85018  0.51180  1.0000
  Cd  Cd4       1.0  0.39722  0.35018  0.98820  1.0000
  H   H1        1.0  0.50959  0.05184  0.58340  1.0000
  H   H2        1.0  0.99042  0.55184  0.91660  1.0000
  H   H3        1.0  0.49042  0.94816  0.41660  1.0000
  H   H4        1.0  0.00958  0.44816  0.08340  1.0000
  H   H5        1.0  0.77048  0.79673  0.73225  1.0000
  H   H6        1.0  0.72952  0.29673  0.76775  1.0000
  H   H7        1.0  0.22952  0.20327  0.26775  1.0000
  H   H8        1.0  0.27048  0.70327  0.23225  1.0000
  H   H9        1.0  0.31544  0.91534  0.82431  1.0000
  H   H10       1.0  0.18456  0.41534  0.67569  1.0000
  H   H11       1.0  0.68456  0.08466  0.17569  1.0000
  H   H12       1.0  0.81544  0.58465  0.32431  1.0000
  H   H13       1.0  0.26560  0.13447  0.64134  1.0000
  H   H14       1.0  0.23440  0.63448  0.85866  1.0000
  H   H15       1.0  0.73440  0.86553  0.35866  1.0000
  H   H16       1.0  0.76560  0.36553  0.14134  1.0000
  H   H17       1.0  0.14339  0.01925  0.67677  1.0000
  H   H18       1.0  0.35661  0.51925  0.82323  1.0000
  H   H19       1.0  0.85661  0.98075  0.32323  1.0000
  H   H20       1.0  0.64339  0.48075  0.17677  1.0000
  H   H21       1.0  0.43120  0.23068  0.79058  1.0000
  H   H22       1.0  0.06880  0.73068  0.70942  1.0000
  H   H23       1.0  0.56880  0.76932  0.20942  1.0000
  H   H24       1.0  0.93120  0.26932  0.29058  1.0000
  H   H25       1.0  0.92094  0.99626  0.76272  1.0000
  H   H26       1.0  0.57906  0.49626  0.73728  1.0000
  H   H27       1.0  0.07906  0.00374  0.23728  1.0000
  H   H28       1.0  0.42094  0.50374  0.26272  1.0000
  H   H29       1.0  0.72087  0.00977  0.88271  1.0000
  H   H30       1.0  0.77913  0.50977  0.61729  1.0000
  H   H31       1.0  0.27913  0.99023  0.11729  1.0000
  H   H32       1.0  0.22087  0.49023  0.38271  1.0000
  H   H33       1.0  0.76857  0.13175  0.01336  1.0000
  H   H34       1.0  0.73143  0.63175  0.48664  1.0000
  H   H35       1.0  0.23143  0.86825  0.98664  1.0000
  H   H36       1.0  0.26857  0.36825  0.51336  1.0000
  H   H37       1.0  0.02456  0.24222  0.03096  1.0000
  H   H38       1.0  0.47545  0.74222  0.46904  1.0000
  H   H39       1.0  0.97544  0.75778  0.96904  1.0000
  H   H40       1.0  0.52456  0.25778  0.53096  1.0000
  C   C1        1.0  0.39514  0.99203  0.70211  1.0000
  C   C2        1.0  0.10486  0.49203  0.79789  1.0000
  C   C3        1.0  0.60486  0.00797  0.29789  1.0000
  C   C4        1.0  0.89514  0.50797  0.20211  1.0000
  C   C5        1.0  0.51771  0.99473  0.64014  1.0000
  C   C6        1.0  0.98229  0.49473  0.85986  1.0000
  C   C7        1.0  0.48229  0.00527  0.35986  1.0000
  C   C8        1.0  0.01771  0.50527  0.14014  1.0000
  C   C9        1.0  0.65379  0.92498  0.65116  1.0000
  C   C10       1.0  0.84621  0.42498  0.84884  1.0000
  C   C11       1.0  0.34621  0.07502  0.34884  1.0000
  C   C12       1.0  0.15378  0.57502  0.15115  1.0000
  C   C13       1.0  0.66559  0.85115  0.72325  1.0000
  C   C14       1.0  0.83441  0.35114  0.77675  1.0000
  C   C15       1.0  0.33441  0.14886  0.27675  1.0000
  C   C16       1.0  0.16559  0.64886  0.22325  1.0000
  C   C17       1.0  0.54296  0.84719  0.78502  1.0000
  C   C18       1.0  0.95704  0.34719  0.71498  1.0000
  C   C19       1.0  0.45704  0.15281  0.21498  1.0000
  C   C20       1.0  0.04296  0.65281  0.28502  1.0000
  C   C21       1.0  0.40851  0.91788  0.77438  1.0000
  C   C22       1.0  0.09149  0.41788  0.72562  1.0000
  C   C23       1.0  0.59149  0.08212  0.22562  1.0000
  C   C24       1.0  0.90851  0.58212  0.27438  1.0000
  C   C25       1.0  0.25039  0.06993  0.69351  1.0000
  C   C26       1.0  0.24961  0.56993  0.80649  1.0000
  C   C27       1.0  0.74961  0.93007  0.30649  1.0000
  C   C28       1.0  0.75039  0.43007  0.19351  1.0000
  C   C29       1.0  0.31703  0.20387  0.81765  1.0000
  C   C30       1.0  0.18297  0.70386  0.68235  1.0000
  C   C31       1.0  0.68297  0.79614  0.18235  1.0000
  C   C32       1.0  0.81703  0.29614  0.31765  1.0000
  C   C33       1.0  0.11301  0.18359  0.90505  1.0000
  C   C34       1.0  0.38700  0.68359  0.59495  1.0000
  C   C35       1.0  0.88700  0.81641  0.09495  1.0000
  C   C36       1.0  0.61300  0.31641  0.40505  1.0000
  C   C37       1.0  0.08388  0.11392  0.83021  1.0000
  C   C38       1.0  0.41611  0.61391  0.66979  1.0000
  C   C39       1.0  0.91611  0.88608  0.16979  1.0000
  C   C40       1.0  0.58388  0.38608  0.33021  1.0000
  C   C41       1.0  0.94372  0.04924  0.82048  1.0000
  C   C42       1.0  0.55628  0.54924  0.67952  1.0000
  C   C43       1.0  0.05628  0.95076  0.17952  1.0000
  C   C44       1.0  0.44372  0.45076  0.32048  1.0000
  C   C45       1.0  0.83282  0.05766  0.88814  1.0000
  C   C46       1.0  0.66718  0.55766  0.61186  1.0000
  C   C47       1.0  0.16718  0.94233  0.11186  1.0000
  C   C48       1.0  0.33282  0.44234  0.38814  1.0000
  C   C49       1.0  0.86059  0.12650  0.96304  1.0000
  C   C50       1.0  0.63942  0.62650  0.53696  1.0000
  C   C51       1.0  0.13941  0.87350  0.03696  1.0000
  C   C52       1.0  0.36058  0.37350  0.46304  1.0000
  C   C53       1.0  0.00124  0.18977  0.97293  1.0000
  C   C54       1.0  0.49876  0.68976  0.52707  1.0000
  C   C55       1.0  0.99876  0.81023  0.02707  1.0000
  C   C56       1.0  0.50124  0.31023  0.47293  1.0000
  C   C57       1.0  0.79110  0.93317  0.58935  1.0000
  C   C58       1.0  0.70890  0.43317  0.91065  1.0000
  C   C59       1.0  0.20890  0.06683  0.41065  1.0000
  C   C60       1.0  0.29110  0.56683  0.08935  1.0000
  C   C61       1.0  0.56013  0.77128  0.86363  1.0000
  C   C62       1.0  0.93988  0.27128  0.63637  1.0000
  C   C63       1.0  0.43988  0.22872  0.13637  1.0000
  C   C64       1.0  0.06012  0.72872  0.36362  1.0000
  N   N1        1.0  0.26001  0.23841  0.89455  1.0000
  N   N2        1.0  0.23999  0.73841  0.60545  1.0000
  N   N3        1.0  0.73999  0.76159  0.10545  1.0000
  N   N4        1.0  0.76001  0.26159  0.39455  1.0000
  N   N5        1.0  0.21607  0.12947  0.77616  1.0000
  N   N6        1.0  0.28393  0.62947  0.72384  1.0000
  N   N7        1.0  0.78393  0.87053  0.22384  1.0000
  N   N8        1.0  0.71607  0.37053  0.27616  1.0000
  O   O1        1.0  0.77039  0.98005  0.51455  1.0000
  O   O2        1.0  0.72961  0.48005  0.98545  1.0000
  O   O3        1.0  0.22961  0.01995  0.48545  1.0000
  O   O4        1.0  0.27039  0.51995  0.01455  1.0000
  O   O5        1.0  0.92498  0.89265  0.61642  1.0000
  O   O6        1.0  0.57503  0.39265  0.88358  1.0000
  O   O7        1.0  0.07503  0.10735  0.38358  1.0000
  O   O8        1.0  0.42497  0.60734  0.11642  1.0000
  O   O9        1.0  0.68872  0.71281  0.87336  1.0000
  O   O10       1.0  0.81128  0.21281  0.62664  1.0000
  O   O11       1.0  0.31128  0.28719  0.12664  1.0000
  O   O12       1.0  0.18872  0.78719  0.37336  1.0000
  O   O13       1.0  0.44668  0.76835  0.91983  1.0000
  O   O14       1.0  0.05332  0.26835  0.58017  1.0000
  O   O15       1.0  0.55332  0.23165  0.08017  1.0000
  O   O16       1.0  0.94668  0.73165  0.41983  1.0000
