data_image0
_chemical_formula_structural       Cd2H40C46N8O10
_chemical_formula_sum              "Cd2 H40 C46 N8 O10"
_cell_length_a       8.62379
_cell_length_b       10.8212
_cell_length_c       12.5194
_cell_angle_alpha    90.6081
_cell_angle_beta     105.232
_cell_angle_gamma    95.5893

_space_group_name_H-M_alt    "P 1"
_space_group_IT_number       1

loop_
  _space_group_symop_operation_xyz
  'x, y, z'

loop_
  _atom_site_type_symbol
  _atom_site_label
  _atom_site_symmetry_multiplicity
  _atom_site_fract_x
  _atom_site_fract_y
  _atom_site_fract_z
  _atom_site_occupancy
  Cd  Cd1       1.0  0.86016  0.40121  0.21175  1.0000
  Cd  Cd2       1.0  0.13984  0.59879  0.78824  1.0000
  H   H1        1.0  0.06647  0.29755  0.03317  1.0000
  H   H2        1.0  0.93353  0.70245  0.96683  1.0000
  H   H3        1.0  0.60116  0.17181  0.06048  1.0000
  H   H4        1.0  0.39883  0.82818  0.93952  1.0000
  H   H5        1.0  0.66783  0.03150  0.89303  1.0000
  H   H6        1.0  0.33216  0.96850  0.10696  1.0000
  H   H7        1.0  0.12197  0.28716  0.86734  1.0000
  H   H8        1.0  0.87803  0.71283  0.13266  1.0000
  H   H9        1.0  0.26838  0.21508  0.74221  1.0000
  H   H10       1.0  0.73161  0.78492  0.25779  1.0000
  H   H11       1.0  0.99105  0.85398  0.70852  1.0000
  H   H12       1.0  0.00894  0.14603  0.29147  1.0000
  H   H13       1.0  0.84940  0.92418  0.84156  1.0000
  H   H14       1.0  0.15059  0.07582  0.15844  1.0000
  H   H15       1.0  0.52508  0.96681  0.71656  1.0000
  H   H16       1.0  0.47492  0.03319  0.28344  1.0000
  H   H17       1.0  0.73903  0.08304  0.64505  1.0000
  H   H18       1.0  0.26097  0.91696  0.35495  1.0000
  H   H19       1.0  0.37106  0.27778  0.42717  1.0000
  H   H20       1.0  0.62894  0.72223  0.57284  1.0000
  H   H21       1.0  0.16290  0.15854  0.49725  1.0000
  H   H22       1.0  0.83711  0.84146  0.50275  1.0000
  H   H23       1.0  0.89533  0.27305  0.63920  1.0000
  H   H24       1.0  0.10469  0.72695  0.36080  1.0000
  H   H25       1.0  0.05415  0.37457  0.48874  1.0000
  H   H26       1.0  0.94586  0.62543  0.51125  1.0000
  H   H27       1.0  0.56789  0.27022  0.31863  1.0000
  H   H28       1.0  0.43211  0.72980  0.68137  1.0000
  H   H29       1.0  0.45196  0.45460  0.32523  1.0000
  H   H30       1.0  0.54804  0.54540  0.67478  1.0000
  H   H31       1.0  0.38426  0.57014  0.39639  1.0000
  H   H32       1.0  0.61573  0.42986  0.60361  1.0000
  H   H33       1.0  0.51951  0.67774  0.27032  1.0000
  H   H34       1.0  0.48049  0.32226  0.72968  1.0000
  H   H35       1.0  0.30927  0.68618  0.21644  1.0000
  H   H36       1.0  0.69073  0.31382  0.78356  1.0000
  H   H37       1.0  0.29849  0.50149  0.08631  1.0000
  H   H38       1.0  0.70151  0.49850  0.91370  1.0000
  H   H39       1.0  0.42594  0.63291  0.06460  1.0000
  H   H40       1.0  0.57407  0.36709  0.93540  1.0000
  C   C1        1.0  0.94837  0.24559  0.01839  1.0000
  C   C2        1.0  0.05162  0.75441  0.98161  1.0000
  C   C3        1.0  0.70867  0.17460  0.03083  1.0000
  C   C4        1.0  0.29132  0.82540  0.96917  1.0000
  C   C5        1.0  0.74008  0.10542  0.94802  1.0000
  C   C6        1.0  0.25992  0.89458  0.05197  1.0000
  C   C7        1.0  0.97544  0.11032  0.86426  1.0000
  C   C8        1.0  0.02456  0.88968  0.13574  1.0000
  C   C9        1.0  0.09347  0.19117  0.83572  1.0000
  C   C10       1.0  0.90653  0.80883  0.16428  1.0000
  C   C11       1.0  0.17638  0.15049  0.76258  1.0000
  C   C12       1.0  0.82361  0.84951  0.23742  1.0000
  C   C13       1.0  0.13846  0.02958  0.71639  1.0000
  C   C14       1.0  0.86154  0.97042  0.28361  1.0000
  C   C15       1.0  0.01875  0.94874  0.74348  1.0000
  C   C16       1.0  0.98124  0.05126  0.25652  1.0000
  C   C17       1.0  0.93875  0.98900  0.81826  1.0000
  C   C18       1.0  0.06124  0.01100  0.18174  1.0000
  C   C19       1.0  0.33323  0.05713  0.61156  1.0000
  C   C20       1.0  0.66677  0.94287  0.38844  1.0000
  C   C21       1.0  0.49454  0.03695  0.65487  1.0000
  C   C22       1.0  0.50546  0.96305  0.34513  1.0000
  C   C23       1.0  0.61359  0.10223  0.61513  1.0000
  C   C24       1.0  0.38641  0.89777  0.38487  1.0000
  C   C25       1.0  0.57022  0.18875  0.53347  1.0000
  C   C26       1.0  0.42979  0.81125  0.46653  1.0000
  C   C27       1.0  0.40857  0.21079  0.49120  1.0000
  C   C28       1.0  0.59143  0.78922  0.50881  1.0000
  C   C29       1.0  0.28962  0.14396  0.53036  1.0000
  C   C30       1.0  0.71039  0.85605  0.46964  1.0000
  C   C31       1.0  0.85332  0.28413  0.55076  1.0000
  C   C32       1.0  0.14668  0.71587  0.44924  1.0000
  C   C33       1.0  0.92956  0.33639  0.47638  1.0000
  C   C34       1.0  0.07045  0.66361  0.52362  1.0000
  C   C35       1.0  0.67841  0.28518  0.38500  1.0000
  C   C36       1.0  0.32160  0.71483  0.61500  1.0000
  C   C37       1.0  0.19560  0.46405  0.27906  1.0000
  C   C38       1.0  0.80440  0.53595  0.72094  1.0000
  C   C39       1.0  0.36788  0.52633  0.31390  1.0000
  C   C40       1.0  0.63212  0.47368  0.68610  1.0000
  C   C41       1.0  0.40364  0.62248  0.23286  1.0000
  C   C42       1.0  0.59637  0.37752  0.76714  1.0000
  C   C43       1.0  0.41064  0.56127  0.12324  1.0000
  C   C44       1.0  0.58936  0.43873  0.87677  1.0000
  C   C45       1.0  0.55414  0.48603  0.14425  1.0000
  C   C46       1.0  0.44587  0.51397  0.85576  1.0000
  N   N1        1.0  0.81931  0.33626  0.37379  1.0000
  N   N2        1.0  0.18069  0.66374  0.62622  1.0000
  N   N3        1.0  0.69347  0.25192  0.49178  1.0000
  N   N4        1.0  0.30654  0.74809  0.50822  1.0000
  N   N5        1.0  0.83949  0.26105  0.07383  1.0000
  N   N6        1.0  0.16050  0.73895  0.92617  1.0000
  N   N7        1.0  0.89252  0.15162  0.94022  1.0000
  N   N8        1.0  0.10747  0.84838  0.05977  1.0000
  O   O1        1.0  0.16418  0.35382  0.30602  1.0000
  O   O2        1.0  0.83582  0.64618  0.69397  1.0000
  O   O3        1.0  0.08652  0.52997  0.22492  1.0000
  O   O4        1.0  0.91348  0.47003  0.77508  1.0000
  O   O5        1.0  0.53670  0.36869  0.14727  1.0000
  O   O6        1.0  0.46330  0.63131  0.85274  1.0000
  O   O7        1.0  0.69368  0.55030  0.16433  1.0000
  O   O8        1.0  0.30633  0.44969  0.83568  1.0000
  O   O9        1.0  0.21565  0.98118  0.64445  1.0000
  O   O10       1.0  0.78435  0.01882  0.35555  1.0000
