data_image0
_chemical_formula_structural       Tl4H16C24S4N4O20
_chemical_formula_sum              "Tl4 H16 C24 S4 N4 O20"
_cell_length_a       7.74011
_cell_length_b       8.24402
_cell_length_c       14.5963
_cell_angle_alpha    90.0002
_cell_angle_beta     106.377
_cell_angle_gamma    89.9997

_space_group_name_H-M_alt    "P 1"
_space_group_IT_number       1

loop_
  _space_group_symop_operation_xyz
  'x, y, z'

loop_
  _atom_site_type_symbol
  _atom_site_label
  _atom_site_symmetry_multiplicity
  _atom_site_fract_x
  _atom_site_fract_y
  _atom_site_fract_z
  _atom_site_occupancy
  Tl  Tl1       1.0  0.90642  0.35618  0.58586  1.0000
  Tl  Tl2       1.0  0.59358  0.85619  0.41414  1.0000
  Tl  Tl3       1.0  0.09358  0.64382  0.41414  1.0000
  Tl  Tl4       1.0  0.40642  0.14382  0.58586  1.0000
  H   H1        1.0  0.61476  0.60861  0.20627  1.0000
  H   H2        1.0  0.88524  0.10859  0.79373  1.0000
  H   H3        1.0  0.38523  0.39139  0.79373  1.0000
  H   H4        1.0  0.11476  0.89141  0.20627  1.0000
  H   H5        1.0  0.55243  0.11256  0.28551  1.0000
  H   H6        1.0  0.94757  0.61255  0.71449  1.0000
  H   H7        1.0  0.44757  0.88744  0.71450  1.0000
  H   H8        1.0  0.05243  0.38745  0.28550  1.0000
  H   H9        1.0  0.67070  0.51339  0.05642  1.0000
  H   H10       1.0  0.82930  0.01338  0.94358  1.0000
  H   H11       1.0  0.32930  0.48661  0.94358  1.0000
  H   H12       1.0  0.17070  0.98662  0.05642  1.0000
  H   H13       1.0  0.67623  0.21834  0.02145  1.0000
  H   H14       1.0  0.82377  0.71833  0.97855  1.0000
  H   H15       1.0  0.32377  0.78166  0.97856  1.0000
  H   H16       1.0  0.17623  0.28167  0.02145  1.0000
  C   C1        1.0  0.58421  0.36478  0.25627  1.0000
  C   C2        1.0  0.91580  0.86477  0.74373  1.0000
  C   C3        1.0  0.41579  0.63523  0.74373  1.0000
  C   C4        1.0  0.08421  0.13523  0.25627  1.0000
  C   C5        1.0  0.61528  0.47889  0.19161  1.0000
  C   C6        1.0  0.88472  0.97887  0.80838  1.0000
  C   C7        1.0  0.38472  0.52111  0.80839  1.0000
  C   C8        1.0  0.11528  0.02112  0.19161  1.0000
  C   C9        1.0  0.57977  0.20024  0.23612  1.0000
  C   C10       1.0  0.92023  0.70022  0.76388  1.0000
  C   C11       1.0  0.42023  0.79976  0.76388  1.0000
  C   C12       1.0  0.07978  0.29978  0.23612  1.0000
  C   C13       1.0  0.64655  0.42549  0.10702  1.0000
  C   C14       1.0  0.85344  0.92548  0.89298  1.0000
  C   C15       1.0  0.35344  0.57451  0.89299  1.0000
  C   C16       1.0  0.14656  0.07452  0.10701  1.0000
  C   C17       1.0  0.61392  0.15023  0.15173  1.0000
  C   C18       1.0  0.88607  0.65022  0.84827  1.0000
  C   C19       1.0  0.38607  0.84977  0.84827  1.0000
  C   C20       1.0  0.11393  0.34978  0.15173  1.0000
  C   C21       1.0  0.64888  0.26030  0.08662  1.0000
  C   C22       1.0  0.85111  0.76029  0.91338  1.0000
  C   C23       1.0  0.35111  0.73970  0.91338  1.0000
  C   C24       1.0  0.14889  0.23972  0.08662  1.0000
  S   S1        1.0  0.55308  0.43120  0.36697  1.0000
  S   S2        1.0  0.94692  0.93118  0.63303  1.0000
  S   S3        1.0  0.44692  0.56881  0.63303  1.0000
  S   S4        1.0  0.05308  0.06882  0.36697  1.0000
  N   N1        1.0  0.61301  0.97618  0.13228  1.0000
  N   N2        1.0  0.88700  0.47616  0.86772  1.0000
  N   N3        1.0  0.38699  0.02382  0.86773  1.0000
  N   N4        1.0  0.11300  0.52384  0.13228  1.0000
  O   O1        1.0  0.53671  0.28494  0.42089  1.0000
  O   O2        1.0  0.96330  0.78493  0.57911  1.0000
  O   O3        1.0  0.46328  0.71506  0.57911  1.0000
  O   O4        1.0  0.03671  0.21507  0.42089  1.0000
  O   O5        1.0  0.39253  0.53570  0.34116  1.0000
  O   O6        1.0  0.10747  0.03569  0.65885  1.0000
  O   O7        1.0  0.60747  0.46430  0.65885  1.0000
  O   O8        1.0  0.89253  0.96430  0.34115  1.0000
  O   O9        1.0  0.71808  0.52640  0.41252  1.0000
  O   O10       1.0  0.78193  0.02638  0.58747  1.0000
  O   O11       1.0  0.28192  0.47360  0.58748  1.0000
  O   O12       1.0  0.21808  0.97361  0.41252  1.0000
  O   O13       1.0  0.68302  0.92824  0.07033  1.0000
  O   O14       1.0  0.81697  0.42823  0.92967  1.0000
  O   O15       1.0  0.31697  0.07176  0.92967  1.0000
  O   O16       1.0  0.18302  0.57177  0.07032  1.0000
  O   O17       1.0  0.54105  0.88432  0.17846  1.0000
  O   O18       1.0  0.95894  0.38430  0.82154  1.0000
  O   O19       1.0  0.45895  0.11568  0.82155  1.0000
  O   O20       1.0  0.04105  0.61570  0.17845  1.0000
