data_image0
_chemical_formula_structural       Zn4H64C40N8Cl8O16
_chemical_formula_sum              "Zn4 H64 C40 N8 Cl8 O16"
_cell_length_a       7.06307
_cell_length_b       10.116
_cell_length_c       18.145
_cell_angle_alpha    90
_cell_angle_beta     90
_cell_angle_gamma    90

_space_group_name_H-M_alt    "P 1"
_space_group_IT_number       1

loop_
  _space_group_symop_operation_xyz
  'x, y, z'

loop_
  _atom_site_type_symbol
  _atom_site_label
  _atom_site_symmetry_multiplicity
  _atom_site_fract_x
  _atom_site_fract_y
  _atom_site_fract_z
  _atom_site_occupancy
  Zn  Zn1       1.0  0.43747  0.44843  0.13113  1.0000
  Zn  Zn2       1.0  0.06253  0.55157  0.63113  1.0000
  Zn  Zn3       1.0  0.56253  0.94843  0.36887  1.0000
  Zn  Zn4       1.0  0.93747  0.05158  0.86887  1.0000
  H   H1        1.0  0.94562  0.39207  0.83792  1.0000
  H   H2        1.0  0.55438  0.60793  0.33792  1.0000
  H   H3        1.0  0.05438  0.89207  0.66208  1.0000
  H   H4        1.0  0.44562  0.10793  0.16208  1.0000
  H   H5        1.0  0.05707  0.54610  0.86040  1.0000
  H   H6        1.0  0.44293  0.45390  0.36040  1.0000
  H   H7        1.0  0.94293  0.04610  0.63960  1.0000
  H   H8        1.0  0.55707  0.95390  0.13960  1.0000
  H   H9        1.0  0.83279  0.67085  0.79704  1.0000
  H   H10       1.0  0.66721  0.32914  0.29704  1.0000
  H   H11       1.0  0.16721  0.17086  0.70296  1.0000
  H   H12       1.0  0.33279  0.82914  0.20296  1.0000
  H   H13       1.0  0.75724  0.51810  0.75607  1.0000
  H   H14       1.0  0.74276  0.48190  0.25607  1.0000
  H   H15       1.0  0.24276  0.01810  0.74393  1.0000
  H   H16       1.0  0.25725  0.98190  0.24393  1.0000
  H   H17       1.0  0.71210  0.29728  0.92531  1.0000
  H   H18       1.0  0.78790  0.70272  0.42531  1.0000
  H   H19       1.0  0.28790  0.79728  0.57469  1.0000
  H   H20       1.0  0.21210  0.20272  0.07469  1.0000
  H   H21       1.0  0.60350  0.40946  0.98777  1.0000
  H   H22       1.0  0.89650  0.59054  0.48777  1.0000
  H   H23       1.0  0.39650  0.90946  0.51223  1.0000
  H   H24       1.0  0.10350  0.09054  0.01223  1.0000
  H   H25       1.0  0.01265  0.32151  0.96360  1.0000
  H   H26       1.0  0.48734  0.67848  0.46360  1.0000
  H   H27       1.0  0.98735  0.82151  0.53640  1.0000
  H   H28       1.0  0.51266  0.17849  0.03640  1.0000
  H   H29       1.0  0.90516  0.40528  0.03945  1.0000
  H   H30       1.0  0.59484  0.59472  0.53945  1.0000
  H   H31       1.0  0.09484  0.90528  0.46055  1.0000
  H   H32       1.0  0.40516  0.09472  0.96055  1.0000
  H   H33       1.0  0.39107  0.45105  0.89109  1.0000
  H   H34       1.0  0.10893  0.54894  0.39109  1.0000
  H   H35       1.0  0.60893  0.95106  0.60891  1.0000
  H   H36       1.0  0.89107  0.04894  0.10891  1.0000
  H   H37       1.0  0.54377  0.38289  0.82302  1.0000
  H   H38       1.0  0.95623  0.61711  0.32302  1.0000
  H   H39       1.0  0.45623  0.88289  0.67698  1.0000
  H   H40       1.0  0.04377  0.11711  0.17698  1.0000
  H   H41       1.0  0.48756  0.66367  0.94509  1.0000
  H   H42       1.0  0.01244  0.33633  0.44509  1.0000
  H   H43       1.0  0.51244  0.16367  0.55491  1.0000
  H   H44       1.0  0.98756  0.83633  0.05491  1.0000
  H   H45       1.0  0.64523  0.76998  0.89432  1.0000
  H   H46       1.0  0.85477  0.23002  0.39432  1.0000
  H   H47       1.0  0.35477  0.26998  0.60568  1.0000
  H   H48       1.0  0.14523  0.73002  0.10568  1.0000
  H   H49       1.0  0.51001  0.74154  0.78046  1.0000
  H   H50       1.0  0.98999  0.25846  0.28046  1.0000
  H   H51       1.0  0.48999  0.24155  0.71954  1.0000
  H   H52       1.0  0.01002  0.75845  0.21954  1.0000
  H   H53       1.0  0.33062  0.67448  0.83643  1.0000
  H   H54       1.0  0.16939  0.32552  0.33643  1.0000
  H   H55       1.0  0.66938  0.17448  0.66357  1.0000
  H   H56       1.0  0.83062  0.82552  0.16357  1.0000
  H   H57       1.0  0.91397  0.68471  0.95238  1.0000
  H   H58       1.0  0.58603  0.31529  0.45238  1.0000
  H   H59       1.0  0.08603  0.18471  0.54762  1.0000
  H   H60       1.0  0.41397  0.81529  0.04762  1.0000
  H   H61       1.0  0.75233  0.61581  0.01861  1.0000
  H   H62       1.0  0.74767  0.38419  0.51861  1.0000
  H   H63       1.0  0.24767  0.11581  0.48139  1.0000
  H   H64       1.0  0.25233  0.88419  0.98139  1.0000
  C   C1        1.0  0.92206  0.49357  0.85705  1.0000
  C   C2        1.0  0.57795  0.50643  0.35705  1.0000
  C   C3        1.0  0.07795  0.99357  0.64295  1.0000
  C   C4        1.0  0.42205  0.00643  0.14295  1.0000
  C   C5        1.0  0.78298  0.57015  0.80802  1.0000
  C   C6        1.0  0.71702  0.42985  0.30802  1.0000
  C   C7        1.0  0.21702  0.07015  0.69198  1.0000
  C   C8        1.0  0.28299  0.92985  0.19198  1.0000
  C   C9        1.0  0.66895  0.40038  0.93331  1.0000
  C   C10       1.0  0.83105  0.59962  0.43331  1.0000
  C   C11       1.0  0.33105  0.90038  0.56669  1.0000
  C   C12       1.0  0.16895  0.09962  0.06669  1.0000
  C   C13       1.0  0.98183  0.41911  0.98714  1.0000
  C   C14       1.0  0.51817  0.58089  0.48714  1.0000
  C   C15       1.0  0.01817  0.91911  0.51286  1.0000
  C   C16       1.0  0.48183  0.08089  0.01286  1.0000
  C   C17       1.0  0.53729  0.44617  0.87169  1.0000
  C   C18       1.0  0.96271  0.55383  0.37169  1.0000
  C   C19       1.0  0.46272  0.94617  0.62831  1.0000
  C   C20       1.0  0.03728  0.05383  0.12831  1.0000
  C   C21       1.0  0.62112  0.66924  0.91434  1.0000
  C   C22       1.0  0.87888  0.33076  0.41434  1.0000
  C   C23       1.0  0.37888  0.16924  0.58566  1.0000
  C   C24       1.0  0.12112  0.83076  0.08566  1.0000
  C   C25       1.0  0.44822  0.64804  0.79969  1.0000
  C   C26       1.0  0.05178  0.35196  0.29969  1.0000
  C   C27       1.0  0.55178  0.14805  0.70031  1.0000
  C   C28       1.0  0.94822  0.85196  0.20031  1.0000
  C   C29       1.0  0.36980  0.56923  0.73436  1.0000
  C   C30       1.0  0.13021  0.43077  0.23436  1.0000
  C   C31       1.0  0.63020  0.06924  0.76564  1.0000
  C   C32       1.0  0.86980  0.93076  0.26564  1.0000
  C   C33       1.0  0.17013  0.48747  0.00275  1.0000
  C   C34       1.0  0.32988  0.51253  0.50275  1.0000
  C   C35       1.0  0.82987  0.98747  0.49725  1.0000
  C   C36       1.0  0.67013  0.01253  0.99725  1.0000
  C   C37       1.0  0.78992  0.62164  0.95998  1.0000
  C   C38       1.0  0.71008  0.37836  0.45998  1.0000
  C   C39       1.0  0.21008  0.12164  0.54002  1.0000
  C   C40       1.0  0.28992  0.87836  0.04002  1.0000
  N   N1        1.0  0.84524  0.48487  0.93470  1.0000
  N   N2        1.0  0.65476  0.51513  0.43470  1.0000
  N   N3        1.0  0.15476  0.98487  0.56530  1.0000
  N   N4        1.0  0.34524  0.01513  0.06530  1.0000
  N   N5        1.0  0.59584  0.58235  0.84709  1.0000
  N   N6        1.0  0.90415  0.41765  0.34709  1.0000
  N   N7        1.0  0.40415  0.08235  0.65291  1.0000
  N   N8        1.0  0.09585  0.91765  0.15291  1.0000
  Cl  Cl1       1.0  0.68803  0.30522  0.12917  1.0000
  Cl  Cl2       1.0  0.81197  0.69477  0.62917  1.0000
  Cl  Cl3       1.0  0.31197  0.80523  0.37083  1.0000
  Cl  Cl4       1.0  0.18803  0.19478  0.87083  1.0000
  Cl  Cl5       1.0  0.55142  0.65097  0.14683  1.0000
  Cl  Cl6       1.0  0.94858  0.34903  0.64683  1.0000
  Cl  Cl7       1.0  0.44859  0.15096  0.35317  1.0000
  Cl  Cl8       1.0  0.05141  0.84903  0.85317  1.0000
  O   O1        1.0  0.22799  0.63270  0.70646  1.0000
  O   O2        1.0  0.27201  0.36730  0.20646  1.0000
  O   O3        1.0  0.77200  0.13271  0.79354  1.0000
  O   O4        1.0  0.72800  0.86730  0.29354  1.0000
  O   O5        1.0  0.43600  0.46147  0.71395  1.0000
  O   O6        1.0  0.06399  0.53853  0.21395  1.0000
  O   O7        1.0  0.56399  0.96147  0.78605  1.0000
  O   O8        1.0  0.93601  0.03853  0.28605  1.0000
  O   O9        1.0  0.27681  0.41160  0.04208  1.0000
  O   O10       1.0  0.22320  0.58840  0.54208  1.0000
  O   O11       1.0  0.72319  0.91160  0.45792  1.0000
  O   O12       1.0  0.77681  0.08840  0.95792  1.0000
  O   O13       1.0  0.20908  0.59966  0.97871  1.0000
  O   O14       1.0  0.29092  0.40034  0.47871  1.0000
  O   O15       1.0  0.79093  0.09965  0.52129  1.0000
  O   O16       1.0  0.70908  0.90034  0.02129  1.0000
