data_image0
_chemical_formula_structural       Gd2CuH18C14S2N2O22
_chemical_formula_sum              "Gd2 Cu1 H18 C14 S2 N2 O22"
_cell_length_a       6.3142
_cell_length_b       9.88392
_cell_length_c       9.94031
_cell_angle_alpha    95.4566
_cell_angle_beta     92.8939
_cell_angle_gamma    98.5284

_space_group_name_H-M_alt    "P 1"
_space_group_IT_number       1

loop_
  _space_group_symop_operation_xyz
  'x, y, z'

loop_
  _atom_site_type_symbol
  _atom_site_label
  _atom_site_symmetry_multiplicity
  _atom_site_fract_x
  _atom_site_fract_y
  _atom_site_fract_z
  _atom_site_occupancy
  Gd  Gd1       1.0  0.06983  0.46580  0.74331  1.0000
  Gd  Gd2       1.0  0.93017  0.53422  0.25669  1.0000
  Cu  Cu1       1.0  0.50000  0.99999  1.00000  1.0000
  H   H1        1.0  0.33379  0.78797  0.78822  1.0000
  H   H2        1.0  0.66624  0.21202  0.21178  1.0000
  H   H3        1.0  0.46841  0.21456  0.80315  1.0000
  H   H4        1.0  0.53158  0.78543  0.19685  1.0000
  H   H5        1.0  0.19074  0.98185  0.43172  1.0000
  H   H6        1.0  0.80924  0.01815  0.56828  1.0000
  H   H7        1.0  0.60695  0.46600  0.64326  1.0000
  H   H8        1.0  0.39304  0.53399  0.35672  1.0000
  H   H9        1.0  0.72006  0.62317  0.64046  1.0000
  H   H10       1.0  0.27992  0.37682  0.35954  1.0000
  H   H11       1.0  0.55722  0.55667  0.82193  1.0000
  H   H12       1.0  0.44277  0.44332  0.17807  1.0000
  H   H13       1.0  0.42906  0.58658  0.95726  1.0000
  H   H14       1.0  0.57098  0.41325  0.04278  1.0000
  H   H15       1.0  0.20096  0.09455  0.09917  1.0000
  H   H16       1.0  0.79911  0.90551  0.90087  1.0000
  H   H17       1.0  0.26712  0.20158  0.99506  1.0000
  H   H18       1.0  0.73288  0.79842  0.00492  1.0000
  C   C1        1.0  0.32769  0.87908  0.73602  1.0000
  C   C2        1.0  0.67233  0.12092  0.26398  1.0000
  C   C3        1.0  0.40078  0.11746  0.74518  1.0000
  C   C4        1.0  0.59922  0.88253  0.25483  1.0000
  C   C5        1.0  0.31543  0.24631  0.54777  1.0000
  C   C6        1.0  0.68457  0.75369  0.45223  1.0000
  C   C7        1.0  0.17002  0.72769  0.52882  1.0000
  C   C8        1.0  0.82997  0.27232  0.47117  1.0000
  C   C9        1.0  0.32147  0.11467  0.61115  1.0000
  C   C10       1.0  0.67853  0.88533  0.38885  1.0000
  C   C11       1.0  0.24868  0.86750  0.60123  1.0000
  C   C12       1.0  0.75132  0.13249  0.39878  1.0000
  C   C13       1.0  0.24771  0.98726  0.53761  1.0000
  C   C14       1.0  0.75228  0.01273  0.46239  1.0000
  S   S1        1.0  0.92274  0.28150  0.96591  1.0000
  S   S2        1.0  0.07725  0.71850  0.03409  1.0000
  N   N1        1.0  0.40221  0.00142  0.80585  1.0000
  N   N2        1.0  0.59780  0.99858  0.19415  1.0000
  O   O1        1.0  0.78982  0.36807  0.89239  1.0000
  O   O2        1.0  0.21013  0.63190  0.10760  1.0000
  O   O3        1.0  0.13574  0.29867  0.90023  1.0000
  O   O4        1.0  0.86427  0.70138  0.09979  1.0000
  O   O5        1.0  0.82878  0.13562  0.95234  1.0000
  O   O6        1.0  0.17128  0.86437  0.04764  1.0000
  O   O7        1.0  0.32636  0.14736  0.06453  1.0000
  O   O8        1.0  0.67368  0.85266  0.93545  1.0000
  O   O9        1.0  0.96165  0.33536  0.11086  1.0000
  O   O10       1.0  0.03829  0.66463  0.88914  1.0000
  O   O11       1.0  0.33693  0.35877  0.62770  1.0000
  O   O12       1.0  0.66307  0.64124  0.37231  1.0000
  O   O13       1.0  0.11704  0.72078  0.40304  1.0000
  O   O14       1.0  0.88295  0.27923  0.59696  1.0000
  O   O15       1.0  0.16203  0.62431  0.59616  1.0000
  O   O16       1.0  0.83795  0.37569  0.40384  1.0000
  O   O17       1.0  0.28872  0.23782  0.42080  1.0000
  O   O18       1.0  0.71128  0.76218  0.57921  1.0000
  O   O19       1.0  0.72401  0.53582  0.68777  1.0000
  O   O20       1.0  0.27598  0.46416  0.31221  1.0000
  O   O21       1.0  0.41496  0.55208  0.86146  1.0000
  O   O22       1.0  0.58501  0.44806  0.13850  1.0000
