data_image0
_chemical_formula_structural       Mg2H32C32N20O12
_chemical_formula_sum              "Mg2 H32 C32 N20 O12"
_cell_length_a       4.59021
_cell_length_b       15.0924
_cell_length_c       16.2836
_cell_angle_alpha    118.287
_cell_angle_beta     98.101
_cell_angle_gamma    90.0214

_space_group_name_H-M_alt    "P 1"
_space_group_IT_number       1

loop_
  _space_group_symop_operation_xyz
  'x, y, z'

loop_
  _atom_site_type_symbol
  _atom_site_label
  _atom_site_symmetry_multiplicity
  _atom_site_fract_x
  _atom_site_fract_y
  _atom_site_fract_z
  _atom_site_occupancy
  Mg  Mg1       1.0  0.50000  0.50000  0.00000  1.0000
  Mg  Mg2       1.0  0.50000  1.00000  0.00000  1.0000
  H   H1        1.0  0.82512  0.37552  0.89672  1.0000
  H   H2        1.0  0.92851  0.12457  0.10332  1.0000
  H   H3        1.0  0.17488  0.62448  0.10328  1.0000
  H   H4        1.0  0.07149  0.87543  0.89668  1.0000
  H   H5        1.0  0.50907  0.33949  0.82641  1.0000
  H   H6        1.0  0.68261  0.16056  0.17359  1.0000
  H   H7        1.0  0.49093  0.66051  0.17359  1.0000
  H   H8        1.0  0.31739  0.83944  0.82641  1.0000
  H   H9        1.0  0.72922  0.45857  0.47599  1.0000
  H   H10       1.0  0.25314  0.04139  0.52400  1.0000
  H   H11       1.0  0.27077  0.54143  0.52401  1.0000
  H   H12       1.0  0.74686  0.95861  0.47600  1.0000
  H   H13       1.0  0.38440  0.37550  0.52969  1.0000
  H   H14       1.0  0.85463  0.12440  0.47033  1.0000
  H   H15       1.0  0.61559  0.62450  0.47031  1.0000
  H   H16       1.0  0.14537  0.87560  0.52967  1.0000
  H   H17       1.0  0.15842  0.19925  0.41351  1.0000
  H   H18       1.0  0.74535  0.30067  0.58647  1.0000
  H   H19       1.0  0.84158  0.80075  0.58649  1.0000
  H   H20       1.0  0.25466  0.69933  0.41353  1.0000
  H   H21       1.0  0.27783  0.11839  0.24993  1.0000
  H   H22       1.0  0.02856  0.38160  0.75002  1.0000
  H   H23       1.0  0.72217  0.88161  0.75007  1.0000
  H   H24       1.0  0.97145  0.61840  0.24998  1.0000
  H   H25       1.0  0.28497  0.30737  0.09271  1.0000
  H   H26       1.0  0.19236  0.19269  0.90737  1.0000
  H   H27       1.0  0.71503  0.69263  0.90729  1.0000
  H   H28       1.0  0.80764  0.80731  0.09263  1.0000
  H   H29       1.0  0.44238  0.43404  0.15410  1.0000
  H   H30       1.0  0.28817  0.06602  0.84599  1.0000
  H   H31       1.0  0.55761  0.56596  0.84590  1.0000
  H   H32       1.0  0.71183  0.93398  0.15401  1.0000
  C   C1        1.0  0.66845  0.33381  0.33390  1.0000
  C   C2        1.0  0.33478  0.16617  0.66608  1.0000
  C   C3        1.0  0.33156  0.66619  0.66610  1.0000
  C   C4        1.0  0.66522  0.83383  0.33392  1.0000
  C   C5        1.0  0.61908  0.38435  0.42759  1.0000
  C   C6        1.0  0.19166  0.11562  0.57239  1.0000
  C   C7        1.0  0.38091  0.61565  0.57241  1.0000
  C   C8        1.0  0.80833  0.88438  0.42761  1.0000
  C   C9        1.0  0.43148  0.33673  0.45745  1.0000
  C   C10       1.0  0.97413  0.16319  0.54255  1.0000
  C   C11       1.0  0.56852  0.66326  0.54255  1.0000
  C   C12       1.0  0.02587  0.83681  0.45745  1.0000
  C   C13       1.0  0.30428  0.23995  0.39355  1.0000
  C   C14       1.0  0.91111  0.25998  0.60643  1.0000
  C   C15       1.0  0.69572  0.76005  0.60645  1.0000
  C   C16       1.0  0.08890  0.74002  0.39357  1.0000
  C   C17       1.0  0.37004  0.19434  0.30185  1.0000
  C   C18       1.0  0.06871  0.30563  0.69811  1.0000
  C   C19       1.0  0.62995  0.80566  0.69815  1.0000
  C   C20       1.0  0.93129  0.69437  0.30189  1.0000
  C   C21       1.0  0.85971  0.38029  0.29794  1.0000
  C   C22       1.0  0.56189  0.11972  0.70208  1.0000
  C   C23       1.0  0.14030  0.61971  0.70206  1.0000
  C   C24       1.0  0.43811  0.88028  0.29791  1.0000
  C   C25       1.0  0.23453  0.38669  0.12920  1.0000
  C   C26       1.0  0.10530  0.11336  0.87088  1.0000
  C   C27       1.0  0.76547  0.61331  0.87080  1.0000
  C   C28       1.0  0.89470  0.88664  0.12912  1.0000
  C   C29       1.0  0.04157  0.41306  0.06008  1.0000
  C   C30       1.0  0.98133  0.08696  0.93997  1.0000
  C   C31       1.0  0.95843  0.58695  0.93992  1.0000
  C   C32       1.0  0.01867  0.91304  0.06003  1.0000
  N   N1        1.0  0.92029  0.33412  0.20938  1.0000
  N   N2        1.0  0.71102  0.16590  0.79066  1.0000
  N   N3        1.0  0.07971  0.66588  0.79062  1.0000
  N   N4        1.0  0.28898  0.83409  0.20934  1.0000
  N   N5        1.0  0.10540  0.40233  0.21069  1.0000
  N   N6        1.0  0.89468  0.09770  0.78938  1.0000
  N   N7        1.0  0.89460  0.59767  0.78931  1.0000
  N   N8        1.0  0.10532  0.90230  0.21062  1.0000
  N   N9        1.0  0.15937  0.48704  0.29396  1.0000
  N   N10       1.0  0.86532  0.01301  0.70610  1.0000
  N   N11       1.0  0.84064  0.51296  0.70604  1.0000
  N   N12       1.0  0.13468  0.98699  0.29390  1.0000
  N   N13       1.0  0.00368  0.47393  0.34998  1.0000
  N   N14       1.0  0.65369  0.02609  0.65006  1.0000
  N   N15       1.0  0.99631  0.52607  0.65002  1.0000
  N   N16       1.0  0.34631  0.97391  0.34994  1.0000
  N   N17       1.0  0.54677  0.24000  0.27224  1.0000
  N   N18       1.0  0.27495  0.25998  0.72772  1.0000
  N   N19       1.0  0.45322  0.76000  0.72776  1.0000
  N   N20       1.0  0.72505  0.74002  0.27228  1.0000
  O   O1        1.0  0.15457  0.39563  0.98700  1.0000
  O   O2        1.0  0.16744  0.10432  0.01303  1.0000
  O   O3        1.0  0.84544  0.60437  0.01301  1.0000
  O   O4        1.0  0.83256  0.89568  0.98697  1.0000
  O   O5        1.0  0.79742  0.44913  0.07893  1.0000
  O   O6        1.0  0.71821  0.05091  0.92110  1.0000
  O   O7        1.0  0.20258  0.55087  0.92107  1.0000
  O   O8        1.0  0.28180  0.94909  0.07889  1.0000
  O   O9        1.0  0.63944  0.39926  0.87840  1.0000
  O   O10       1.0  0.76101  0.10083  0.12161  1.0000
  O   O11       1.0  0.36056  0.60074  0.12160  1.0000
  O   O12       1.0  0.23899  0.89917  0.87839  1.0000
