data_image0
_chemical_formula_structural       Ca2H32C32N20O12
_chemical_formula_sum              "Ca2 H32 C32 N20 O12"
_cell_length_a       4.79448
_cell_length_b       15.2607
_cell_length_c       16.2052
_cell_angle_alpha    116.861
_cell_angle_beta     98.4961
_cell_angle_gamma    89.9928

_space_group_name_H-M_alt    "P 1"
_space_group_IT_number       1

loop_
  _space_group_symop_operation_xyz
  'x, y, z'

loop_
  _atom_site_type_symbol
  _atom_site_label
  _atom_site_symmetry_multiplicity
  _atom_site_fract_x
  _atom_site_fract_y
  _atom_site_fract_z
  _atom_site_occupancy
  Ca  Ca1       1.0  1.00000  0.50000  1.00000  1.0000
  Ca  Ca2       1.0  0.00000  0.00000  1.00000  1.0000
  H   H1        1.0  0.55766  0.36179  0.88681  1.0000
  H   H2        1.0  0.67041  0.13817  0.11308  1.0000
  H   H3        1.0  0.44234  0.63821  0.11319  1.0000
  H   H4        1.0  0.32959  0.86183  0.88692  1.0000
  H   H5        1.0  0.77209  0.33350  0.81204  1.0000
  H   H6        1.0  0.95948  0.16641  0.18789  1.0000
  H   H7        1.0  0.22792  0.66651  0.18796  1.0000
  H   H8        1.0  0.04051  0.83359  0.81211  1.0000
  H   H9        1.0  0.22695  0.43548  0.16639  1.0000
  H   H10       1.0  0.06066  0.06463  0.83364  1.0000
  H   H11       1.0  0.77305  0.56452  0.83361  1.0000
  H   H12       1.0  0.93934  0.93537  0.16636  1.0000
  H   H13       1.0  0.30719  0.31011  0.10898  1.0000
  H   H14       1.0  0.19834  0.18996  0.89107  1.0000
  H   H15       1.0  0.69281  0.68988  0.89102  1.0000
  H   H16       1.0  0.80165  0.81004  0.10893  1.0000
  H   H17       1.0  0.26942  0.45796  0.47902  1.0000
  H   H18       1.0  0.79011  0.04206  0.52068  1.0000
  H   H19       1.0  0.73058  0.54204  0.52098  1.0000
  H   H20       1.0  0.20989  0.95794  0.47932  1.0000
  H   H21       1.0  0.66477  0.37573  0.52934  1.0000
  H   H22       1.0  0.13554  0.12424  0.47048  1.0000
  H   H23       1.0  0.33522  0.62427  0.47066  1.0000
  H   H24       1.0  0.86446  0.87576  0.52952  1.0000
  H   H25       1.0  0.74348  0.20057  0.41723  1.0000
  H   H26       1.0  0.32701  0.29925  0.58273  1.0000
  H   H27       1.0  0.25652  0.79943  0.58277  1.0000
  H   H28       1.0  0.67299  0.70075  0.41727  1.0000
  H   H29       1.0  0.43373  0.11922  0.26092  1.0000
  H   H30       1.0  0.17352  0.38054  0.73910  1.0000
  H   H31       1.0  0.56627  0.88078  0.73908  1.0000
  H   H32       1.0  0.82648  0.61946  0.26090  1.0000
  C   C1        1.0  0.52306  0.40809  0.07081  1.0000
  C   C2        1.0  0.45244  0.09184  0.92910  1.0000
  C   C3        1.0  0.47694  0.59191  0.92919  1.0000
  C   C4        1.0  0.54756  0.90816  0.07089  1.0000
  C   C5        1.0  0.39701  0.38670  0.14248  1.0000
  C   C6        1.0  0.25469  0.11336  0.85753  1.0000
  C   C7        1.0  0.60298  0.61330  0.85752  1.0000
  C   C8        1.0  0.74531  0.88664  0.14247  1.0000
  C   C9        1.0  0.93528  0.37954  0.30789  1.0000
  C   C10       1.0  0.62740  0.12035  0.69195  1.0000
  C   C11       1.0  0.06472  0.62046  0.69211  1.0000
  C   C12       1.0  0.37261  0.87965  0.30805  1.0000
  C   C13       1.0  0.15880  0.33327  0.34249  1.0000
  C   C14       1.0  0.81643  0.16661  0.65735  1.0000
  C   C15       1.0  0.84120  0.66673  0.65751  1.0000
  C   C16       1.0  0.18357  0.83339  0.34265  1.0000
  C   C17       1.0  0.31826  0.38404  0.43222  1.0000
  C   C18       1.0  0.88595  0.11591  0.56756  1.0000
  C   C19       1.0  0.68173  0.61596  0.56778  1.0000
  C   C20       1.0  0.11405  0.88409  0.43244  1.0000
  C   C21       1.0  0.53358  0.33701  0.46026  1.0000
  C   C22       1.0  0.07346  0.16295  0.53958  1.0000
  C   C23       1.0  0.46641  0.66300  0.53974  1.0000
  C   C24       1.0  0.92654  0.83705  0.46042  1.0000
  C   C25       1.0  0.57917  0.24065  0.39857  1.0000
  C   C26       1.0  0.18112  0.25922  0.60135  1.0000
  C   C27       1.0  0.42083  0.75935  0.60143  1.0000
  C   C28       1.0  0.81888  0.74078  0.39865  1.0000
  C   C29       1.0  0.40598  0.19469  0.31098  1.0000
  C   C30       1.0  0.09558  0.30513  0.68898  1.0000
  C   C31       1.0  0.59402  0.80531  0.68902  1.0000
  C   C32       1.0  0.90443  0.69486  0.31102  1.0000
  N   N1        1.0  0.77375  0.33329  0.22290  1.0000
  N   N2        1.0  0.55088  0.16667  0.77697  1.0000
  N   N3        1.0  0.22625  0.66671  0.77710  1.0000
  N   N4        1.0  0.44912  0.83333  0.22304  1.0000
  N   N5        1.0  0.60253  0.40161  0.22346  1.0000
  N   N6        1.0  0.37905  0.09842  0.77648  1.0000
  N   N7        1.0  0.39746  0.59839  0.77654  1.0000
  N   N8        1.0  0.62095  0.90158  0.22352  1.0000
  N   N9        1.0  0.65106  0.48659  0.30276  1.0000
  N   N10       1.0  0.34823  0.01342  0.69720  1.0000
  N   N11       1.0  0.34894  0.51341  0.69724  1.0000
  N   N12       1.0  0.65177  0.98658  0.30280  1.0000
  N   N13       1.0  0.86264  0.47344  0.35708  1.0000
  N   N14       1.0  0.50550  0.02648  0.64281  1.0000
  N   N15       1.0  0.13736  0.52656  0.64291  1.0000
  N   N16       1.0  0.49450  0.97352  0.35719  1.0000
  N   N17       1.0  0.20075  0.23968  0.28317  1.0000
  N   N18       1.0  0.91798  0.26012  0.71673  1.0000
  N   N19       1.0  0.79924  0.76032  0.71683  1.0000
  N   N20       1.0  0.08203  0.73987  0.28327  1.0000
  O   O1        1.0  0.77564  0.44308  0.09067  1.0000
  O   O2        1.0  0.68514  0.05679  0.90916  1.0000
  O   O3        1.0  0.22436  0.55692  0.90933  1.0000
  O   O4        1.0  0.31486  0.94321  0.09083  1.0000
  O   O5        1.0  0.35091  0.38873  0.99573  1.0000
  O   O6        1.0  0.35540  0.11118  0.00420  1.0000
  O   O7        1.0  0.64909  0.61127  0.00427  1.0000
  O   O8        1.0  0.64461  0.88882  0.99580  1.0000
  O   O9        1.0  0.70055  0.38947  0.86578  1.0000
  O   O10       1.0  0.83429  0.11048  0.13412  1.0000
  O   O11       1.0  0.29945  0.61053  0.13422  1.0000
  O   O12       1.0  0.16572  0.88952  0.86588  1.0000
