data_image0
_chemical_formula_structural       CdH12C16N2O4
_chemical_formula_sum              "Cd1 H12 C16 N2 O4"
_cell_length_a       5.06504
_cell_length_b       7.96774
_cell_length_c       9.58482
_cell_angle_alpha    68.0857
_cell_angle_beta     80.8489
_cell_angle_gamma    74.7273

_space_group_name_H-M_alt    "P 1"
_space_group_IT_number       1

loop_
  _space_group_symop_operation_xyz
  'x, y, z'

loop_
  _atom_site_type_symbol
  _atom_site_label
  _atom_site_symmetry_multiplicity
  _atom_site_fract_x
  _atom_site_fract_y
  _atom_site_fract_z
  _atom_site_occupancy
  Cd  Cd1       1.0  0.49999  0.50000  0.50000  1.0000
  H   H1        1.0  0.21993  0.19003  0.47706  1.0000
  H   H2        1.0  0.78007  0.80997  0.52293  1.0000
  H   H3        1.0  0.83590  0.42910  0.20298  1.0000
  H   H4        1.0  0.16410  0.57091  0.79702  1.0000
  H   H5        1.0  0.24382  0.98705  0.32509  1.0000
  H   H6        1.0  0.75619  0.01294  0.67491  1.0000
  H   H7        1.0  0.56352  0.02589  0.09351  1.0000
  H   H8        1.0  0.43648  0.97411  0.90649  1.0000
  H   H9        1.0  0.08619  0.31676  0.98786  1.0000
  H   H10       1.0  0.91381  0.68325  0.01214  1.0000
  H   H11       1.0  0.64648  0.23169  0.85116  1.0000
  H   H12       1.0  0.35351  0.76831  0.14884  1.0000
  C   C1        1.0  0.36422  0.19525  0.37893  1.0000
  C   C2        1.0  0.63578  0.80474  0.62107  1.0000
  C   C3        1.0  0.70643  0.33132  0.22405  1.0000
  C   C4        1.0  0.29357  0.66868  0.77594  1.0000
  C   C5        1.0  0.37173  0.08837  0.29105  1.0000
  C   C6        1.0  0.62828  0.91162  0.70895  1.0000
  C   C7        1.0  0.54906  0.11034  0.16243  1.0000
  C   C8        1.0  0.45095  0.88965  0.83757  1.0000
  C   C9        1.0  0.71893  0.23703  0.12445  1.0000
  C   C10       1.0  0.28108  0.76296  0.87556  1.0000
  C   C11       1.0  0.89891  0.27388  0.98631  1.0000
  C   C12       1.0  0.10109  0.72612  0.01369  1.0000
  C   C13       1.0  0.84037  0.26294  0.85820  1.0000
  C   C14       1.0  0.15963  0.73706  0.14180  1.0000
  C   C15       1.0  0.01418  0.30496  0.71416  1.0000
  C   C16       1.0  0.98581  0.69504  0.28584  1.0000
  N   N1        1.0  0.53050  0.31374  0.34667  1.0000
  N   N2        1.0  0.46950  0.68626  0.65333  1.0000
  O   O1        1.0  0.91200  0.30962  0.59880  1.0000
  O   O2        1.0  0.08799  0.69039  0.40120  1.0000
  O   O3        1.0  0.25253  0.33111  0.71310  1.0000
  O   O4        1.0  0.74746  0.66890  0.28690  1.0000
