data_image0
_chemical_formula_structural       Ag2H50C54N4O4
_chemical_formula_sum              "Ag2 H50 C54 N4 O4"
_cell_length_a       9.59787
_cell_length_b       9.91272
_cell_length_c       12.86
_cell_angle_alpha    81.4829
_cell_angle_beta     77.0782
_cell_angle_gamma    87.969

_space_group_name_H-M_alt    "P 1"
_space_group_IT_number       1

loop_
  _space_group_symop_operation_xyz
  'x, y, z'

loop_
  _atom_site_type_symbol
  _atom_site_label
  _atom_site_symmetry_multiplicity
  _atom_site_fract_x
  _atom_site_fract_y
  _atom_site_fract_z
  _atom_site_occupancy
  Ag  Ag1       1.0  0.54453  0.79539  0.37732  1.0000
  Ag  Ag2       1.0  0.45547  0.20462  0.62268  1.0000
  H   H1        1.0  0.83660  0.83022  0.01858  1.0000
  H   H2        1.0  0.16341  0.16978  0.98142  1.0000
  H   H3        1.0  0.66492  0.83437  0.99214  1.0000
  H   H4        1.0  0.33509  0.16563  0.00786  1.0000
  H   H5        1.0  0.96024  0.33369  0.50410  1.0000
  H   H6        1.0  0.03976  0.66631  0.49590  1.0000
  H   H7        1.0  0.08575  0.19911  0.50398  1.0000
  H   H8        1.0  0.91425  0.80089  0.49602  1.0000
  H   H9        1.0  0.93793  0.08774  0.68260  1.0000
  H   H10       1.0  0.06207  0.91227  0.31740  1.0000
  H   H11       1.0  0.81254  0.21878  0.67924  1.0000
  H   H12       1.0  0.18746  0.78121  0.32076  1.0000
  H   H13       1.0  0.39755  0.67905  0.61204  1.0000
  H   H14       1.0  0.60245  0.32095  0.38796  1.0000
  H   H15       1.0  0.92558  0.16048  0.40368  1.0000
  H   H16       1.0  0.07442  0.83951  0.59632  1.0000
  H   H17       1.0  0.66790  0.98851  0.71204  1.0000
  H   H18       1.0  0.33209  0.01149  0.28797  1.0000
  H   H19       1.0  0.54577  0.84940  0.61454  1.0000
  H   H20       1.0  0.45423  0.15060  0.38546  1.0000
  H   H21       1.0  0.38097  0.56397  0.31824  1.0000
  H   H22       1.0  0.61903  0.43603  0.68176  1.0000
  H   H23       1.0  0.22813  0.49581  0.71248  1.0000
  H   H24       1.0  0.77187  0.50419  0.28752  1.0000
  H   H25       1.0  0.06542  0.70403  0.79132  1.0000
  H   H26       1.0  0.93457  0.29598  0.20868  1.0000
  H   H27       1.0  0.78257  0.02116  0.31763  1.0000
  H   H28       1.0  0.21743  0.97884  0.68237  1.0000
  H   H29       1.0  0.94746  0.30688  0.00484  1.0000
  H   H30       1.0  0.05254  0.69312  0.99517  1.0000
  H   H31       1.0  0.20044  0.38622  0.40473  1.0000
  H   H32       1.0  0.79955  0.61379  0.59527  1.0000
  H   H33       1.0  0.02920  0.45903  0.86219  1.0000
  H   H34       1.0  0.97080  0.54098  0.13781  1.0000
  H   H35       1.0  0.00142  0.37946  0.68318  1.0000
  H   H36       1.0  0.99858  0.62055  0.31682  1.0000
  H   H37       1.0  0.13101  0.25096  0.68012  1.0000
  H   H38       1.0  0.86899  0.74905  0.31988  1.0000
  H   H39       1.0  0.57744  0.50594  0.87485  1.0000
  H   H40       1.0  0.42256  0.49406  0.12515  1.0000
  H   H41       1.0  0.58251  0.04164  0.90312  1.0000
  H   H42       1.0  0.41750  0.95835  0.09687  1.0000
  H   H43       1.0  0.60685  0.28652  0.83781  1.0000
  H   H44       1.0  0.39316  0.71347  0.16218  1.0000
  H   H45       1.0  0.91853  0.06140  0.07279  1.0000
  H   H46       1.0  0.08148  0.93860  0.92721  1.0000
  H   H47       1.0  0.85818  0.85183  0.76103  1.0000
  H   H48       1.0  0.14181  0.14818  0.23896  1.0000
  H   H49       1.0  0.61405  0.75043  0.80273  1.0000
  H   H50       1.0  0.38594  0.24956  0.19727  1.0000
  C   C1        1.0  0.66777  0.84640  0.15558  1.0000
  C   C2        1.0  0.33223  0.15360  0.84441  1.0000
  C   C3        1.0  0.73287  0.88287  0.03435  1.0000
  C   C4        1.0  0.26714  0.11713  0.96565  1.0000
  C   C5        1.0  0.00744  0.25655  0.55710  1.0000
  C   C6        1.0  0.99256  0.74345  0.44290  1.0000
  C   C7        1.0  0.89141  0.16129  0.62631  1.0000
  C   C8        1.0  0.10859  0.83871  0.37369  1.0000
  C   C9        1.0  0.35164  0.61151  0.56902  1.0000
  C   C10       1.0  0.64836  0.38849  0.43098  1.0000
  C   C11       1.0  0.19367  0.42864  0.56743  1.0000
  C   C12       1.0  0.80633  0.57137  0.43257  1.0000
  C   C13       1.0  0.81259  0.08281  0.56648  1.0000
  C   C14       1.0  0.18741  0.91719  0.43353  1.0000
  C   C15       1.0  0.84262  0.09229  0.45393  1.0000
  C   C16       1.0  0.15738  0.90771  0.54607  1.0000
  C   C17       1.0  0.70104  0.99581  0.62461  1.0000
  C   C18       1.0  0.29896  0.00419  0.37540  1.0000
  C   C19       1.0  0.63134  0.91881  0.57011  1.0000
  C   C20       1.0  0.36866  0.08119  0.42989  1.0000
  C   C21       1.0  0.34134  0.54835  0.40545  1.0000
  C   C22       1.0  0.65866  0.45165  0.59455  1.0000
  C   C23       1.0  0.80080  0.46361  0.87307  1.0000
  C   C24       1.0  0.19920  0.53639  0.12693  1.0000
  C   C25       1.0  0.25480  0.51145  0.62472  1.0000
  C   C26       1.0  0.74520  0.48856  0.37528  1.0000
  C   C27       1.0  0.95827  0.66078  0.80876  1.0000
  C   C28       1.0  0.04173  0.33923  0.19124  1.0000
  C   C29       1.0  0.78060  0.31666  0.91519  1.0000
  C   C30       1.0  0.21940  0.68334  0.08481  1.0000
  C   C31       1.0  0.76471  0.01439  0.40523  1.0000
  C   C32       1.0  0.23529  0.98561  0.59477  1.0000
  C   C33       1.0  0.86745  0.24916  0.98169  1.0000
  C   C34       1.0  0.13255  0.75083  0.01831  1.0000
  C   C35       1.0  0.24071  0.44793  0.45500  1.0000
  C   C36       1.0  0.75928  0.55207  0.54500  1.0000
  C   C37       1.0  0.93767  0.52271  0.84950  1.0000
  C   C38       1.0  0.06233  0.47730  0.15050  1.0000
  C   C39       1.0  0.08151  0.32673  0.62727  1.0000
  C   C40       1.0  0.91849  0.67327  0.37273  1.0000
  C   C41       1.0  0.68518  0.54832  0.85467  1.0000
  C   C42       1.0  0.31482  0.45168  0.14533  1.0000
  C   C43       1.0  0.66256  0.09935  0.92652  1.0000
  C   C44       1.0  0.33745  0.90064  0.07348  1.0000
  C   C45       1.0  0.74898  0.03252  0.99280  1.0000
  C   C46       1.0  0.25103  0.96747  0.00720  1.0000
  C   C47       1.0  0.67681  0.23898  0.88917  1.0000
  C   C48       1.0  0.32320  0.76102  0.11083  1.0000
  C   C49       1.0  0.85092  0.11066  0.02028  1.0000
  C   C50       1.0  0.14909  0.88934  0.97972  1.0000
  C   C51       1.0  0.84258  0.74333  0.79083  1.0000
  C   C52       1.0  0.15741  0.25667  0.20917  1.0000
  C   C53       1.0  0.70588  0.68641  0.81409  1.0000
  C   C54       1.0  0.29412  0.31358  0.18591  1.0000
  N   N1        1.0  0.39469  0.63159  0.46056  1.0000
  N   N2        1.0  0.60531  0.36841  0.53944  1.0000
  N   N3        1.0  0.66252  0.92624  0.46203  1.0000
  N   N4        1.0  0.33748  0.07376  0.53797  1.0000
  O   O1        1.0  0.61362  0.94206  0.20863  1.0000
  O   O2        1.0  0.38639  0.05793  0.79137  1.0000
  O   O3        1.0  0.67003  0.72151  0.19534  1.0000
  O   O4        1.0  0.32997  0.27848  0.80466  1.0000
