data_image0
_chemical_formula_structural       Cd2H48C76N8O8
_chemical_formula_sum              "Cd2 H48 C76 N8 O8"
_cell_length_a       10.6411
_cell_length_b       10.7238
_cell_length_c       14.83
_cell_angle_alpha    93.266
_cell_angle_beta     93.2914
_cell_angle_gamma    109.801

_space_group_name_H-M_alt    "P 1"
_space_group_IT_number       1

loop_
  _space_group_symop_operation_xyz
  'x, y, z'

loop_
  _atom_site_type_symbol
  _atom_site_label
  _atom_site_symmetry_multiplicity
  _atom_site_fract_x
  _atom_site_fract_y
  _atom_site_fract_z
  _atom_site_occupancy
  Cd  Cd1       1.0  0.27291  0.72509  0.74917  1.0000
  Cd  Cd2       1.0  0.72709  0.27492  0.25083  1.0000
  H   H1        1.0  0.36260  0.00154  0.88633  1.0000
  H   H2        1.0  0.99598  0.63629  0.61333  1.0000
  H   H3        1.0  0.63740  0.99846  0.11367  1.0000
  H   H4        1.0  0.00399  0.36369  0.38667  1.0000
  H   H5        1.0  0.44432  0.25041  0.88424  1.0000
  H   H6        1.0  0.74507  0.55514  0.61527  1.0000
  H   H7        1.0  0.55568  0.74960  0.11575  1.0000
  H   H8        1.0  0.25491  0.44486  0.38474  1.0000
  H   H9        1.0  0.46489  0.34889  0.73405  1.0000
  H   H10       1.0  0.64575  0.53399  0.76547  1.0000
  H   H11       1.0  0.53509  0.65111  0.26594  1.0000
  H   H12       1.0  0.35424  0.46601  0.23455  1.0000
  H   H13       1.0  0.45355  0.31438  0.56613  1.0000
  H   H14       1.0  0.68056  0.54393  0.93350  1.0000
  H   H15       1.0  0.54643  0.68562  0.43387  1.0000
  H   H16       1.0  0.31945  0.45606  0.06652  1.0000
  H   H17       1.0  0.39445  0.15945  0.42579  1.0000
  H   H18       1.0  0.83700  0.60295  0.07390  1.0000
  H   H19       1.0  0.60554  0.84056  0.57421  1.0000
  H   H20       1.0  0.16303  0.39706  0.92612  1.0000
  H   H21       1.0  0.29946  0.93221  0.35387  1.0000
  H   H22       1.0  0.06565  0.69913  0.14579  1.0000
  H   H23       1.0  0.70053  0.06778  0.64612  1.0000
  H   H24       1.0  0.93437  0.30088  0.85421  1.0000
  H   H25       1.0  0.20302  0.68480  0.37100  1.0000
  H   H26       1.0  0.31495  0.79717  0.12856  1.0000
  H   H27       1.0  0.79698  0.31520  0.62901  1.0000
  H   H28       1.0  0.68508  0.20282  0.87143  1.0000
  H   H29       1.0  0.19017  0.60723  0.52864  1.0000
  H   H30       1.0  0.39290  0.81049  0.97096  1.0000
  H   H31       1.0  0.80982  0.39277  0.47136  1.0000
  H   H32       1.0  0.60712  0.18951  0.02902  1.0000
  H   H33       1.0  0.60006  0.81454  0.97377  1.0000
  H   H34       1.0  0.18121  0.39775  0.52463  1.0000
  H   H35       1.0  0.39995  0.18546  0.02622  1.0000
  H   H36       1.0  0.81877  0.60224  0.47537  1.0000
  H   H37       1.0  0.80740  0.90346  0.07627  1.0000
  H   H38       1.0  0.09358  0.19114  0.42293  1.0000
  H   H39       1.0  0.19260  0.09652  0.92373  1.0000
  H   H40       1.0  0.90641  0.80886  0.57707  1.0000
  H   H41       1.0  0.82377  0.93505  0.74490  1.0000
  H   H42       1.0  0.06495  0.17642  0.75456  1.0000
  H   H43       1.0  0.17623  0.06497  0.25510  1.0000
  H   H44       1.0  0.93503  0.82358  0.24544  1.0000
  H   H45       1.0  0.03468  0.01810  0.84451  1.0000
  H   H46       1.0  0.98338  0.96654  0.65569  1.0000
  H   H47       1.0  0.96533  0.98191  0.15549  1.0000
  H   H48       1.0  0.01661  0.03346  0.34430  1.0000
  C   C1        1.0  0.37305  0.04808  0.82235  1.0000
  C   C2        1.0  0.94889  0.62593  0.67723  1.0000
  C   C3        1.0  0.62695  0.95192  0.17764  1.0000
  C   C4        1.0  0.05109  0.37407  0.32277  1.0000
  C   C5        1.0  0.41989  0.18738  0.82091  1.0000
  C   C6        1.0  0.80854  0.57931  0.67862  1.0000
  C   C7        1.0  0.58011  0.81263  0.17908  1.0000
  C   C8        1.0  0.19143  0.42069  0.32139  1.0000
  C   C9        1.0  0.43222  0.24154  0.73819  1.0000
  C   C10       1.0  0.75396  0.56668  0.76134  1.0000
  C   C11       1.0  0.56777  0.75846  0.26180  1.0000
  C   C12       1.0  0.24604  0.43332  0.23868  1.0000
  C   C13       1.0  0.40001  0.15706  0.65749  1.0000
  C   C14       1.0  0.83907  0.59854  0.84210  1.0000
  C   C15       1.0  0.59999  0.84295  0.34250  1.0000
  C   C16       1.0  0.16093  0.40145  0.15792  1.0000
  C   C17       1.0  0.41501  0.20688  0.56991  1.0000
  C   C18       1.0  0.78892  0.58291  0.92970  1.0000
  C   C19       1.0  0.58499  0.79312  0.43008  1.0000
  C   C20       1.0  0.21109  0.41709  0.07031  1.0000
  C   C21       1.0  0.38154  0.12276  0.49303  1.0000
  C   C22       1.0  0.87374  0.61625  0.00663  1.0000
  C   C23       1.0  0.61846  0.87724  0.50696  1.0000
  C   C24       1.0  0.12628  0.38375  0.99338  1.0000
  C   C25       1.0  0.32813  0.98180  0.49850  1.0000
  C   C26       1.0  0.01570  0.67036  0.00117  1.0000
  C   C27       1.0  0.67187  0.01820  0.50150  1.0000
  C   C28       1.0  0.98432  0.32964  0.99883  1.0000
  C   C29       1.0  0.28786  0.89200  0.42013  1.0000
  C   C30       1.0  0.10617  0.71103  0.07953  1.0000
  C   C31       1.0  0.71212  0.10799  0.57986  1.0000
  C   C32       1.0  0.89386  0.28897  0.92047  1.0000
  C   C33       1.0  0.23625  0.75710  0.42976  1.0000
  C   C34       1.0  0.24205  0.76346  0.06983  1.0000
  C   C35       1.0  0.76373  0.24289  0.57024  1.0000
  C   C36       1.0  0.75798  0.23654  0.93016  1.0000
  C   C37       1.0  0.22690  0.71282  0.51744  1.0000
  C   C38       1.0  0.28653  0.77310  0.98212  1.0000
  C   C39       1.0  0.77309  0.28718  0.48255  1.0000
  C   C40       1.0  0.71348  0.22690  0.01787  1.0000
  C   C41       1.0  0.31258  0.92771  0.58428  1.0000
  C   C42       1.0  0.07011  0.68637  0.91535  1.0000
  C   C43       1.0  0.68743  0.07229  0.41572  1.0000
  C   C44       1.0  0.92990  0.31362  0.08464  1.0000
  C   C45       1.0  0.35063  0.01734  0.66569  1.0000
  C   C46       1.0  0.97981  0.64818  0.83394  1.0000
  C   C47       1.0  0.64937  0.98266  0.33431  1.0000
  C   C48       1.0  0.02019  0.35181  0.16607  1.0000
  C   C49       1.0  0.57089  0.82202  0.79258  1.0000
  C   C50       1.0  0.17496  0.42758  0.70611  1.0000
  C   C51       1.0  0.42912  0.17798  0.20742  1.0000
  C   C52       1.0  0.82504  0.57241  0.29389  1.0000
  C   C53       1.0  0.69874  0.87180  0.85340  1.0000
  C   C54       1.0  0.12617  0.30026  0.64560  1.0000
  C   C55       1.0  0.30127  0.12821  0.14660  1.0000
  C   C56       1.0  0.87382  0.69974  0.35440  1.0000
  C   C57       1.0  0.69629  0.86297  0.94702  1.0000
  C   C58       1.0  0.13415  0.30216  0.55185  1.0000
  C   C59       1.0  0.30371  0.13703  0.05297  1.0000
  C   C60       1.0  0.86585  0.69785  0.44815  1.0000
  C   C61       1.0  0.81324  0.91295  0.00387  1.0000
  C   C62       1.0  0.08492  0.18564  0.49539  1.0000
  C   C63       1.0  0.18677  0.08704  0.99613  1.0000
  C   C64       1.0  0.91508  0.81437  0.50461  1.0000
  C   C65       1.0  0.82241  0.92906  0.81796  1.0000
  C   C66       1.0  0.07048  0.17754  0.68149  1.0000
  C   C67       1.0  0.17760  0.07096  0.18204  1.0000
  C   C68       1.0  0.92951  0.82246  0.31851  1.0000
  C   C69       1.0  0.93994  0.97677  0.87466  1.0000
  C   C70       1.0  0.02356  0.06054  0.62517  1.0000
  C   C71       1.0  0.06007  0.02324  0.12534  1.0000
  C   C72       1.0  0.97643  0.93946  0.37483  1.0000
  C   C73       1.0  0.93812  0.97253  0.96942  1.0000
  C   C74       1.0  0.02701  0.06171  0.53031  1.0000
  C   C75       1.0  0.06189  0.02747  0.03058  1.0000
  C   C76       1.0  0.97297  0.93828  0.46969  1.0000
  N   N1        1.0  0.33769  0.96600  0.74748  1.0000
  N   N2        1.0  0.03150  0.66117  0.75217  1.0000
  N   N3        1.0  0.66231  0.03400  0.25252  1.0000
  N   N4        1.0  0.96850  0.33883  0.24783  1.0000
  N   N5        1.0  0.26339  0.79510  0.59242  1.0000
  N   N6        1.0  0.20364  0.73620  0.90713  1.0000
  N   N7        1.0  0.73661  0.20489  0.40758  1.0000
  N   N8        1.0  0.79636  0.26379  0.09286  1.0000
  O   O1        1.0  0.46693  0.75236  0.83074  1.0000
  O   O2        1.0  0.24304  0.53124  0.66757  1.0000
  O   O3        1.0  0.53308  0.24765  0.16925  1.0000
  O   O4        1.0  0.75695  0.46876  0.33244  1.0000
  O   O5        1.0  0.57217  0.85242  0.71199  1.0000
  O   O6        1.0  0.14527  0.42584  0.78694  1.0000
  O   O7        1.0  0.42784  0.14760  0.28800  1.0000
  O   O8        1.0  0.85475  0.57415  0.21307  1.0000
