data_image0
_chemical_formula_structural       FeCuH30C19N11
_chemical_formula_sum              "Fe1 Cu1 H30 C19 N11"
_cell_length_a       8.19336
_cell_length_b       8.85755
_cell_length_c       9.78222
_cell_angle_alpha    111.963
_cell_angle_beta     94.7999
_cell_angle_gamma    117.826

_space_group_name_H-M_alt    "P 1"
_space_group_IT_number       1

loop_
  _space_group_symop_operation_xyz
  'x, y, z'

loop_
  _atom_site_type_symbol
  _atom_site_label
  _atom_site_symmetry_multiplicity
  _atom_site_fract_x
  _atom_site_fract_y
  _atom_site_fract_z
  _atom_site_occupancy
  Fe  Fe1       1.0  0.00870  0.25399  0.24864  1.0000
  Cu  Cu1       1.0  0.00581  0.75337  0.75426  1.0000
  H   H1        1.0  0.72747  0.50062  0.51266  1.0000
  H   H2        1.0  0.96103  0.57805  0.91294  1.0000
  H   H3        1.0  0.28624  0.00062  0.99596  1.0000
  H   H4        1.0  0.05618  0.92037  0.59097  1.0000
  H   H5        1.0  0.66848  0.33828  0.23496  1.0000
  H   H6        1.0  0.33126  0.12355  0.29455  1.0000
  H   H7        1.0  0.68752  0.89916  0.29824  1.0000
  H   H8        1.0  0.35149  0.71003  0.31443  1.0000
  H   H9        1.0  0.17748  0.75940  0.25744  1.0000
  H   H10       1.0  0.32034  0.88569  0.45537  1.0000
  H   H11       1.0  0.50124  0.29092  0.59673  1.0000
  H   H12       1.0  0.63002  0.48339  0.79100  1.0000
  H   H13       1.0  0.74894  0.25882  0.74103  1.0000
  H   H14       1.0  0.81748  0.30230  0.58348  1.0000
  H   H15       1.0  0.15142  0.45789  0.69263  1.0000
  H   H16       1.0  0.10849  0.40514  0.85041  1.0000
  H   H17       1.0  0.44379  0.66535  0.93764  1.0000
  H   H18       1.0  0.31445  0.75270  0.03855  1.0000
  H   H19       1.0  0.55955  0.97281  0.94770  1.0000
  H   H20       1.0  0.40378  0.79826  0.75324  1.0000
  H   H21       1.0  0.39819  0.03924  0.72838  1.0000
  H   H22       1.0  0.50580  0.22551  0.92537  1.0000
  H   H23       1.0  0.18766  0.20285  0.91945  1.0000
  H   H24       1.0  0.26229  0.24574  0.76373  1.0000
  H   H25       1.0  0.90547  0.09198  0.64022  1.0000
  H   H26       1.0  0.85644  0.04419  0.79905  1.0000
  H   H27       1.0  0.69325  0.73701  0.45349  1.0000
  H   H28       1.0  0.56936  0.83263  0.55495  1.0000
  H   H29       1.0  0.60310  0.70843  0.74433  1.0000
  H   H30       1.0  0.45257  0.52804  0.54928  1.0000
  C   C1        1.0  0.07338  0.48875  0.41976  1.0000
  C   C2        1.0  0.94350  0.01635  0.08129  1.0000
  C   C3        1.0  0.94039  0.33727  0.11181  1.0000
  C   C4        1.0  0.08174  0.17325  0.38609  1.0000
  C   C5        1.0  0.25919  0.36459  0.23012  1.0000
  C   C6        1.0  0.62486  0.21778  0.25944  1.0000
  C   C7        1.0  0.45613  0.11160  0.28588  1.0000
  C   C8        1.0  0.64052  0.99267  0.29116  1.0000
  C   C9        1.0  0.32158  0.82354  0.33572  1.0000
  C   C10       1.0  0.64557  0.41581  0.67720  1.0000
  C   C11       1.0  0.79336  0.36258  0.69471  1.0000
  C   C12       1.0  0.14247  0.51418  0.81068  1.0000
  C   C13       1.0  0.33229  0.69922  0.92359  1.0000
  C   C14       1.0  0.40812  0.85747  0.87502  1.0000
  C   C15       1.0  0.36824  0.09720  0.83726  1.0000
  C   C16       1.0  0.21612  0.14255  0.81063  1.0000
  C   C17       1.0  0.86919  0.98491  0.68261  1.0000
  C   C18       1.0  0.68023  0.79829  0.56987  1.0000
  C   C19       1.0  0.60258  0.64550  0.62395  1.0000
  N   N1        1.0  0.10374  0.62897  0.52665  1.0000
  N   N2        1.0  0.90772  0.87078  0.97777  1.0000
  N   N3        1.0  0.89476  0.38914  0.02918  1.0000
  N   N4        1.0  0.12804  0.12225  0.46933  1.0000
  N   N5        1.0  0.41468  0.43338  0.21457  1.0000
  N   N6        1.0  0.73856  0.14200  0.26314  1.0000
  N   N7        1.0  0.46932  0.97127  0.30666  1.0000
  N   N8        1.0  0.72259  0.56332  0.62331  1.0000
  N   N9        1.0  0.97897  0.54233  0.80440  1.0000
  N   N10       1.0  0.28946  0.94267  0.88412  1.0000
  N   N11       1.0  0.03428  0.96007  0.69777  1.0000
