data_image0
_chemical_formula_structural       Cd4H40C44N8O20
_chemical_formula_sum              "Cd4 H40 C44 N8 O20"
_cell_length_a       7.1857
_cell_length_b       11.4569
_cell_length_c       16.4778
_cell_angle_alpha    82.4199
_cell_angle_beta     77.0488
_cell_angle_gamma    71.7001

_space_group_name_H-M_alt    "P 1"
_space_group_IT_number       1

loop_
  _space_group_symop_operation_xyz
  'x, y, z'

loop_
  _atom_site_type_symbol
  _atom_site_label
  _atom_site_symmetry_multiplicity
  _atom_site_fract_x
  _atom_site_fract_y
  _atom_site_fract_z
  _atom_site_occupancy
  Cd  Cd1       1.0  0.20721  0.75345  0.77721  1.0000
  Cd  Cd2       1.0  0.74060  0.74281  0.72229  1.0000
  Cd  Cd3       1.0  0.79280  0.24654  0.22278  1.0000
  Cd  Cd4       1.0  0.25940  0.25718  0.27770  1.0000
  H   H1        1.0  0.75048  0.65062  0.05894  1.0000
  H   H2        1.0  0.46226  0.85134  0.43979  1.0000
  H   H3        1.0  0.24952  0.34938  0.94106  1.0000
  H   H4        1.0  0.53772  0.14867  0.56021  1.0000
  H   H5        1.0  0.70185  0.51326  0.04185  1.0000
  H   H6        1.0  0.25724  0.98782  0.45878  1.0000
  H   H7        1.0  0.29815  0.48674  0.95816  1.0000
  H   H8        1.0  0.74274  0.01220  0.54122  1.0000
  H   H9        1.0  0.36608  0.61210  0.10697  1.0000
  H   H10       1.0  0.08703  0.88930  0.39356  1.0000
  H   H11       1.0  0.63391  0.38791  0.89303  1.0000
  H   H12       1.0  0.91296  0.11071  0.60644  1.0000
  H   H13       1.0  0.40468  0.76115  0.08981  1.0000
  H   H14       1.0  0.25920  0.74048  0.40912  1.0000
  H   H15       1.0  0.59532  0.23885  0.91018  1.0000
  H   H16       1.0  0.74079  0.25953  0.59088  1.0000
  H   H17       1.0  0.87792  0.36133  0.76337  1.0000
  H   H18       1.0  0.00552  0.13560  0.73464  1.0000
  H   H19       1.0  0.12209  0.63866  0.23665  1.0000
  H   H20       1.0  0.99447  0.86438  0.26538  1.0000
  H   H21       1.0  0.47323  0.35994  0.76698  1.0000
  H   H22       1.0  0.60195  0.13515  0.73549  1.0000
  H   H23       1.0  0.52679  0.64006  0.23301  1.0000
  H   H24       1.0  0.39805  0.86484  0.26450  1.0000
  H   H25       1.0  0.82456  0.93545  0.04810  1.0000
  H   H26       1.0  0.80956  0.56409  0.45091  1.0000
  H   H27       1.0  0.17544  0.06455  0.95190  1.0000
  H   H28       1.0  0.19042  0.43590  0.54910  1.0000
  H   H29       1.0  0.49021  0.95175  0.85896  1.0000
  H   H30       1.0  0.30164  0.54607  0.64205  1.0000
  H   H31       1.0  0.50979  0.04826  0.14104  1.0000
  H   H32       1.0  0.69833  0.45393  0.35795  1.0000
  H   H33       1.0  0.21246  0.75359  0.97952  1.0000
  H   H34       1.0  0.94902  0.74532  0.52045  1.0000
  H   H35       1.0  0.78755  0.24641  0.02047  1.0000
  H   H36       1.0  0.05097  0.25469  0.47955  1.0000
  H   H37       1.0  0.80408  0.61531  0.89629  1.0000
  H   H38       1.0  0.31707  0.88368  0.60326  1.0000
  H   H39       1.0  0.19593  0.38469  0.10371  1.0000
  H   H40       1.0  0.68292  0.11633  0.39674  1.0000
  C   C1        1.0  0.50193  0.69256  0.91698  1.0000
  C   C2        1.0  0.11441  0.80577  0.58275  1.0000
  C   C3        1.0  0.49808  0.30744  0.08301  1.0000
  C   C4        1.0  0.88559  0.19423  0.41726  1.0000
  C   C5        1.0  0.65914  0.61395  0.02987  1.0000
  C   C6        1.0  0.30480  0.88698  0.46977  1.0000
  C   C7        1.0  0.34086  0.38605  0.97013  1.0000
  C   C8        1.0  0.69518  0.11304  0.53023  1.0000
  C   C9        1.0  0.43249  0.67388  0.06141  1.0000
  C   C10       1.0  0.17037  0.82707  0.43838  1.0000
  C   C11       1.0  0.56750  0.32612  0.93859  1.0000
  C   C12       1.0  0.82962  0.17294  0.56162  1.0000
  C   C13       1.0  0.09270  0.50550  0.78594  1.0000
  C   C14       1.0  0.38745  0.99068  0.71394  1.0000
  C   C15       1.0  0.90732  0.49449  0.21406  1.0000
  C   C16       1.0  0.61256  0.00932  0.28605  1.0000
  C   C17       1.0  0.16845  0.37185  0.76817  1.0000
  C   C18       1.0  0.31093  0.12412  0.73222  1.0000
  C   C19       1.0  0.83156  0.62814  0.23184  1.0000
  C   C20       1.0  0.68908  0.87588  0.26778  1.0000
  C   C21       1.0  0.03564  0.31012  0.75802  1.0000
  C   C22       1.0  0.10626  0.18635  0.74110  1.0000
  C   C23       1.0  0.96437  0.68987  0.24200  1.0000
  C   C24       1.0  0.89375  0.81364  0.25891  1.0000
  C   C25       1.0  0.37298  0.30929  0.75989  1.0000
  C   C26       1.0  0.44395  0.18613  0.74177  1.0000
  C   C27       1.0  0.62704  0.69071  0.24011  1.0000
  C   C28       1.0  0.55606  0.81386  0.25822  1.0000
  C   C29       1.0  0.86257  0.86829  0.89193  1.0000
  C   C30       1.0  0.62525  0.62906  0.60784  1.0000
  C   C31       1.0  0.13743  0.13172  0.10807  1.0000
  C   C32       1.0  0.37475  0.37094  0.39216  1.0000
  C   C33       1.0  0.67566  0.93636  0.94779  1.0000
  C   C34       1.0  0.56102  0.56219  0.55220  1.0000
  C   C35       1.0  0.32434  0.06364  0.05221  1.0000
  C   C36       1.0  0.43896  0.43781  0.44780  1.0000
  C   C37       1.0  0.68197  0.96341  0.02756  1.0000
  C   C38       1.0  0.67372  0.53638  0.47185  1.0000
  C   C39       1.0  0.31803  0.03659  0.97245  1.0000
  C   C40       1.0  0.32626  0.46362  0.52815  1.0000
  C   C41       1.0  0.49274  0.97381  0.92075  1.0000
  C   C42       1.0  0.38775  0.52490  0.57983  1.0000
  C   C43       1.0  0.50726  0.02619  0.07925  1.0000
  C   C44       1.0  0.61222  0.47510  0.42017  1.0000
  N   N1        1.0  0.35235  0.69691  0.98461  1.0000
  N   N2        1.0  0.03663  0.80242  0.51549  1.0000
  N   N3        1.0  0.64766  0.30309  0.01539  1.0000
  N   N4        1.0  0.96336  0.19759  0.48451  1.0000
  N   N5        1.0  0.68077  0.64949  0.94075  1.0000
  N   N6        1.0  0.27374  0.84957  0.55867  1.0000
  N   N7        1.0  0.31924  0.35051  0.05925  1.0000
  N   N8        1.0  0.72625  0.15044  0.44133  1.0000
  O   O1        1.0  0.48035  0.72435  0.84206  1.0000
  O   O2        1.0  0.04996  0.77251  0.65763  1.0000
  O   O3        1.0  0.51967  0.27564  0.15793  1.0000
  O   O4        1.0  0.95004  0.22749  0.34237  1.0000
  O   O5        1.0  0.21567  0.55318  0.80311  1.0000
  O   O6        1.0  0.57592  0.94308  0.69758  1.0000
  O   O7        1.0  0.78435  0.44682  0.19689  1.0000
  O   O8        1.0  0.42409  0.05692  0.30242  1.0000
  O   O9        1.0  0.90927  0.56063  0.78352  1.0000
  O   O10       1.0  0.25726  0.93576  0.71490  1.0000
  O   O11       1.0  0.09075  0.43937  0.21648  1.0000
  O   O12       1.0  0.74277  0.06423  0.28509  1.0000
  O   O13       1.0  0.85430  0.84524  0.81897  1.0000
  O   O14       1.0  0.52057  0.65193  0.68113  1.0000
  O   O15       1.0  0.14571  0.15476  0.18102  1.0000
  O   O16       1.0  0.47943  0.34807  0.31887  1.0000
  O   O17       1.0  0.02771  0.83687  0.91688  1.0000
  O   O18       1.0  0.78506  0.65978  0.58244  1.0000
  O   O19       1.0  0.97229  0.16314  0.08312  1.0000
  O   O20       1.0  0.21493  0.34020  0.41755  1.0000
