data_image0
_chemical_formula_structural       Er4H24C24S4N4O32
_chemical_formula_sum              "Er4 H24 C24 S4 N4 O32"
_cell_length_a       7.51446
_cell_length_b       9.28926
_cell_length_c       14.7053
_cell_angle_alpha    89.9999
_cell_angle_beta     90
_cell_angle_gamma    101.131

_space_group_name_H-M_alt    "P 1"
_space_group_IT_number       1

loop_
  _space_group_symop_operation_xyz
  'x, y, z'

loop_
  _atom_site_type_symbol
  _atom_site_label
  _atom_site_symmetry_multiplicity
  _atom_site_fract_x
  _atom_site_fract_y
  _atom_site_fract_z
  _atom_site_occupancy
  Er  Er1       1.0  0.13855  0.27752  0.04384  1.0000
  Er  Er2       1.0  0.36145  0.72248  0.54384  1.0000
  Er  Er3       1.0  0.86145  0.72248  0.95616  1.0000
  Er  Er4       1.0  0.63855  0.27752  0.45616  1.0000
  H   H1        1.0  0.15139  0.04637  0.44799  1.0000
  H   H2        1.0  0.34861  0.95363  0.94799  1.0000
  H   H3        1.0  0.84861  0.95363  0.55201  1.0000
  H   H4        1.0  0.65139  0.04637  0.05201  1.0000
  H   H5        1.0  0.10427  0.12233  0.28829  1.0000
  H   H6        1.0  0.39572  0.87767  0.78830  1.0000
  H   H7        1.0  0.89573  0.87767  0.71171  1.0000
  H   H8        1.0  0.60427  0.12233  0.21171  1.0000
  H   H9        1.0  0.91674  0.66526  0.22180  1.0000
  H   H10       1.0  0.58326  0.33474  0.72180  1.0000
  H   H11       1.0  0.08326  0.33474  0.77820  1.0000
  H   H12       1.0  0.41674  0.66525  0.27820  1.0000
  H   H13       1.0  0.96166  0.60676  0.38731  1.0000
  H   H14       1.0  0.53834  0.39323  0.88731  1.0000
  H   H15       1.0  0.03834  0.39323  0.61269  1.0000
  H   H16       1.0  0.46166  0.60677  0.11269  1.0000
  H   H17       1.0  0.29151  0.36168  0.22345  1.0000
  H   H18       1.0  0.20849  0.63831  0.72345  1.0000
  H   H19       1.0  0.70849  0.63832  0.77655  1.0000
  H   H20       1.0  0.79151  0.36168  0.27655  1.0000
  H   H21       1.0  0.46778  0.34944  0.16259  1.0000
  H   H22       1.0  0.03222  0.65056  0.66259  1.0000
  H   H23       1.0  0.53222  0.65056  0.83741  1.0000
  H   H24       1.0  0.96778  0.34944  0.33741  1.0000
  C   C1        1.0  0.09495  0.96825  0.39564  1.0000
  C   C2        1.0  0.40505  0.03175  0.89564  1.0000
  C   C3        1.0  0.90505  0.03175  0.60436  1.0000
  C   C4        1.0  0.59495  0.96825  0.10436  1.0000
  C   C5        1.0  0.06987  0.00703  0.30667  1.0000
  C   C6        1.0  0.43013  0.99297  0.80667  1.0000
  C   C7        1.0  0.93013  0.99297  0.69333  1.0000
  C   C8        1.0  0.56987  0.00703  0.19333  1.0000
  C   C9        1.0  0.00853  0.89906  0.24173  1.0000
  C   C10       1.0  0.49146  0.10094  0.74173  1.0000
  C   C11       1.0  0.99147  0.10094  0.75827  1.0000
  C   C12       1.0  0.50853  0.89906  0.25827  1.0000
  C   C13       1.0  0.96478  0.75265  0.27019  1.0000
  C   C14       1.0  0.53522  0.24735  0.77020  1.0000
  C   C15       1.0  0.03522  0.24735  0.72981  1.0000
  C   C16       1.0  0.46478  0.75265  0.22980  1.0000
  C   C17       1.0  0.98904  0.71742  0.36009  1.0000
  C   C18       1.0  0.51096  0.28258  0.86009  1.0000
  C   C19       1.0  0.01096  0.28258  0.63991  1.0000
  C   C20       1.0  0.48904  0.71742  0.13991  1.0000
  C   C21       1.0  0.99729  0.94060  0.14383  1.0000
  C   C22       1.0  0.50271  0.05940  0.64384  1.0000
  C   C23       1.0  0.00271  0.05940  0.85616  1.0000
  C   C24       1.0  0.49729  0.94059  0.35616  1.0000
  S   S1        1.0  0.81828  0.40161  0.09370  1.0000
  S   S2        1.0  0.68172  0.59839  0.59370  1.0000
  S   S3        1.0  0.18172  0.59839  0.90630  1.0000
  S   S4        1.0  0.31828  0.40161  0.40630  1.0000
  N   N1        1.0  0.05901  0.82462  0.42040  1.0000
  N   N2        1.0  0.44099  0.17538  0.92040  1.0000
  N   N3        1.0  0.94099  0.17538  0.57960  1.0000
  N   N4        1.0  0.55901  0.82462  0.07960  1.0000
  O   O1        1.0  0.04761  0.07548  0.12376  1.0000
  O   O2        1.0  0.45239  0.92451  0.62377  1.0000
  O   O3        1.0  0.95239  0.92452  0.87624  1.0000
  O   O4        1.0  0.54761  0.07548  0.37624  1.0000
  O   O5        1.0  0.93977  0.83953  0.08752  1.0000
  O   O6        1.0  0.56023  0.16047  0.58752  1.0000
  O   O7        1.0  0.06023  0.16047  0.91248  1.0000
  O   O8        1.0  0.43977  0.83953  0.41248  1.0000
  O   O9        1.0  0.09650  0.78875  0.50421  1.0000
  O   O10       1.0  0.40350  0.21126  0.00421  1.0000
  O   O11       1.0  0.90349  0.21125  0.49579  1.0000
  O   O12       1.0  0.59651  0.78875  0.99579  1.0000
  O   O13       1.0  0.00767  0.44541  0.12968  1.0000
  O   O14       1.0  0.49233  0.55459  0.62968  1.0000
  O   O15       1.0  0.99233  0.55459  0.87032  1.0000
  O   O16       1.0  0.50768  0.44541  0.37032  1.0000
  O   O17       1.0  0.82541  0.27811  0.02927  1.0000
  O   O18       1.0  0.67459  0.72189  0.52927  1.0000
  O   O19       1.0  0.17459  0.72188  0.97073  1.0000
  O   O20       1.0  0.32541  0.27811  0.47073  1.0000
  O   O21       1.0  0.76038  0.52520  0.04520  1.0000
  O   O22       1.0  0.73961  0.47480  0.54520  1.0000
  O   O23       1.0  0.23962  0.47480  0.95480  1.0000
  O   O24       1.0  0.26038  0.52520  0.45480  1.0000
  O   O25       1.0  0.69154  0.35613  0.17042  1.0000
  O   O26       1.0  0.80846  0.64387  0.67042  1.0000
  O   O27       1.0  0.30846  0.64387  0.82958  1.0000
  O   O28       1.0  0.19154  0.35613  0.32958  1.0000
  O   O29       1.0  0.33606  0.35328  0.16039  1.0000
  O   O30       1.0  0.16393  0.64672  0.66039  1.0000
  O   O31       1.0  0.66393  0.64672  0.83961  1.0000
  O   O32       1.0  0.83607  0.35328  0.33961  1.0000
