data_image0
_chemical_formula_structural       Tb4H24C24S4N4O32
_chemical_formula_sum              "Tb4 H24 C24 S4 N4 O32"
_cell_length_a       6.44013
_cell_length_b       7.6702
_cell_length_c       20.1533
_cell_angle_alpha    89.9995
_cell_angle_beta     90.0001
_cell_angle_gamma    104.85

_space_group_name_H-M_alt    "P 1"
_space_group_IT_number       1

loop_
  _space_group_symop_operation_xyz
  'x, y, z'

loop_
  _atom_site_type_symbol
  _atom_site_label
  _atom_site_symmetry_multiplicity
  _atom_site_fract_x
  _atom_site_fract_y
  _atom_site_fract_z
  _atom_site_occupancy
  Tb  Tb1       1.0  0.68116  0.14460  0.42780  1.0000
  Tb  Tb2       1.0  0.81885  0.85540  0.92780  1.0000
  Tb  Tb3       1.0  0.31885  0.85540  0.57220  1.0000
  Tb  Tb4       1.0  0.18115  0.14459  0.07220  1.0000
  H   H1        1.0  0.43901  0.51977  0.33212  1.0000
  H   H2        1.0  0.06101  0.48023  0.83212  1.0000
  H   H3        1.0  0.56099  0.48024  0.66788  1.0000
  H   H4        1.0  0.93898  0.51977  0.16788  1.0000
  H   H5        1.0  0.35426  0.30894  0.23431  1.0000
  H   H6        1.0  0.14576  0.69105  0.73430  1.0000
  H   H7        1.0  0.64575  0.69107  0.76570  1.0000
  H   H8        1.0  0.85424  0.30895  0.26570  1.0000
  H   H9        1.0  0.58522  0.96346  0.19241  1.0000
  H   H10       1.0  0.91476  0.03653  0.69241  1.0000
  H   H11       1.0  0.41478  0.03654  0.80759  1.0000
  H   H12       1.0  0.08523  0.96347  0.30759  1.0000
  H   H13       1.0  0.48870  0.73321  0.09994  1.0000
  H   H14       1.0  0.01130  0.26678  0.59994  1.0000
  H   H15       1.0  0.51131  0.26679  0.90006  1.0000
  H   H16       1.0  0.98870  0.73322  0.40006  1.0000
  H   H17       1.0  0.74038  0.47802  0.51311  1.0000
  H   H18       1.0  0.75962  0.52198  0.01311  1.0000
  H   H19       1.0  0.25962  0.52198  0.48689  1.0000
  H   H20       1.0  0.24038  0.47802  0.98689  1.0000
  H   H21       1.0  0.60840  0.30601  0.55632  1.0000
  H   H22       1.0  0.89161  0.69399  0.05632  1.0000
  H   H23       1.0  0.39161  0.69400  0.44368  1.0000
  H   H24       1.0  0.10840  0.30600  0.94368  1.0000
  C   C1        1.0  0.57059  0.89413  0.32463  1.0000
  C   C2        1.0  0.92941  0.10585  0.82463  1.0000
  C   C3        1.0  0.42941  0.10587  0.67537  1.0000
  C   C4        1.0  0.07059  0.89415  0.17536  1.0000
  C   C5        1.0  0.51917  0.76027  0.26969  1.0000
  C   C6        1.0  0.98084  0.23973  0.76968  1.0000
  C   C7        1.0  0.48083  0.23973  0.73031  1.0000
  C   C8        1.0  0.01916  0.76027  0.23032  1.0000
  C   C9        1.0  0.45390  0.57473  0.28195  1.0000
  C   C10       1.0  0.04612  0.42527  0.78195  1.0000
  C   C11       1.0  0.54610  0.42527  0.71804  1.0000
  C   C12       1.0  0.95388  0.57473  0.21804  1.0000
  C   C13       1.0  0.40679  0.45496  0.22939  1.0000
  C   C14       1.0  0.09323  0.54503  0.72939  1.0000
  C   C15       1.0  0.59321  0.54504  0.77061  1.0000
  C   C16       1.0  0.90677  0.45497  0.27061  1.0000
  C   C17       1.0  0.53612  0.82022  0.20385  1.0000
  C   C18       1.0  0.96387  0.17977  0.70385  1.0000
  C   C19       1.0  0.46388  0.17977  0.79615  1.0000
  C   C20       1.0  0.03613  0.82023  0.29615  1.0000
  C   C21       1.0  0.48586  0.69840  0.15231  1.0000
  C   C22       1.0  0.01413  0.30160  0.65231  1.0000
  C   C23       1.0  0.51414  0.30160  0.84769  1.0000
  C   C24       1.0  0.98587  0.69840  0.34769  1.0000
  S   S1        1.0  0.21556  0.17274  0.44539  1.0000
  S   S2        1.0  0.28444  0.82726  0.94539  1.0000
  S   S3        1.0  0.78444  0.82726  0.55461  1.0000
  S   S4        1.0  0.71556  0.17274  0.05461  1.0000
  N   N1        1.0  0.42173  0.51817  0.16578  1.0000
  N   N2        1.0  0.07827  0.48181  0.66578  1.0000
  N   N3        1.0  0.57826  0.48183  0.83423  1.0000
  N   N4        1.0  0.92173  0.51819  0.33422  1.0000
  O   O1        1.0  0.54483  0.84034  0.38504  1.0000
  O   O2        1.0  0.95518  0.15967  0.88504  1.0000
  O   O3        1.0  0.45517  0.15966  0.61496  1.0000
  O   O4        1.0  0.04482  0.84033  0.11495  1.0000
  O   O5        1.0  0.64145  0.06111  0.31119  1.0000
  O   O6        1.0  0.85854  0.93887  0.81119  1.0000
  O   O7        1.0  0.35855  0.93889  0.68881  1.0000
  O   O8        1.0  0.14145  0.06113  0.18881  1.0000
  O   O9        1.0  0.37571  0.40667  0.11572  1.0000
  O   O10       1.0  0.12430  0.59331  0.61571  1.0000
  O   O11       1.0  0.62429  0.59333  0.88429  1.0000
  O   O12       1.0  0.87571  0.40669  0.38428  1.0000
  O   O13       1.0  0.17283  0.29893  0.49483  1.0000
  O   O14       1.0  0.32718  0.70106  0.99483  1.0000
  O   O15       1.0  0.82717  0.70106  0.50517  1.0000
  O   O16       1.0  0.67282  0.29893  0.00517  1.0000
  O   O17       1.0  0.01143  0.07322  0.41341  1.0000
  O   O18       1.0  0.48858  0.92678  0.91341  1.0000
  O   O19       1.0  0.98858  0.92677  0.58659  1.0000
  O   O20       1.0  0.51142  0.07323  0.08659  1.0000
  O   O21       1.0  0.37778  0.26036  0.39460  1.0000
  O   O22       1.0  0.12223  0.73963  0.89460  1.0000
  O   O23       1.0  0.62223  0.73963  0.60540  1.0000
  O   O24       1.0  0.87777  0.26037  0.10540  1.0000
  O   O25       1.0  0.31905  0.03578  0.47732  1.0000
  O   O26       1.0  0.18096  0.96422  0.97732  1.0000
  O   O27       1.0  0.68096  0.96423  0.52268  1.0000
  O   O28       1.0  0.81904  0.03578  0.02268  1.0000
  O   O29       1.0  0.69376  0.34380  0.51568  1.0000
  O   O30       1.0  0.80624  0.65620  0.01568  1.0000
  O   O31       1.0  0.30624  0.65620  0.48432  1.0000
  O   O32       1.0  0.19376  0.34380  0.98432  1.0000
