data_image0
_chemical_formula_structural       Tm4H24C24S4N4O32
_chemical_formula_sum              "Tm4 H24 C24 S4 N4 O32"
_cell_length_a       7.49831
_cell_length_b       9.2806
_cell_length_c       14.6638
_cell_angle_alpha    89.9999
_cell_angle_beta     90
_cell_angle_gamma    101.166

_space_group_name_H-M_alt    "P 1"
_space_group_IT_number       1

loop_
  _space_group_symop_operation_xyz
  'x, y, z'

loop_
  _atom_site_type_symbol
  _atom_site_label
  _atom_site_symmetry_multiplicity
  _atom_site_fract_x
  _atom_site_fract_y
  _atom_site_fract_z
  _atom_site_occupancy
  Tm  Tm1       1.0  0.13695  0.27726  0.04373  1.0000
  Tm  Tm2       1.0  0.36305  0.72274  0.54373  1.0000
  Tm  Tm3       1.0  0.86305  0.72274  0.95627  1.0000
  Tm  Tm4       1.0  0.63695  0.27726  0.45627  1.0000
  H   H1        1.0  0.15131  0.04647  0.44868  1.0000
  H   H2        1.0  0.34869  0.95353  0.94868  1.0000
  H   H3        1.0  0.84869  0.95353  0.55133  1.0000
  H   H4        1.0  0.65131  0.04647  0.05132  1.0000
  H   H5        1.0  0.10414  0.12273  0.28863  1.0000
  H   H6        1.0  0.39586  0.87728  0.78863  1.0000
  H   H7        1.0  0.89587  0.87728  0.71137  1.0000
  H   H8        1.0  0.60414  0.12272  0.21137  1.0000
  H   H9        1.0  0.91844  0.66483  0.22138  1.0000
  H   H10       1.0  0.58156  0.33518  0.72138  1.0000
  H   H11       1.0  0.08155  0.33518  0.77862  1.0000
  H   H12       1.0  0.41844  0.66482  0.27862  1.0000
  H   H13       1.0  0.96285  0.60591  0.38732  1.0000
  H   H14       1.0  0.53715  0.39410  0.88733  1.0000
  H   H15       1.0  0.03715  0.39410  0.61267  1.0000
  H   H16       1.0  0.46285  0.60590  0.11268  1.0000
  H   H17       1.0  0.28916  0.36201  0.22275  1.0000
  H   H18       1.0  0.21084  0.63799  0.72275  1.0000
  H   H19       1.0  0.71083  0.63799  0.77725  1.0000
  H   H20       1.0  0.78916  0.36201  0.27725  1.0000
  H   H21       1.0  0.46574  0.34923  0.16218  1.0000
  H   H22       1.0  0.03426  0.65077  0.66218  1.0000
  H   H23       1.0  0.53426  0.65077  0.83782  1.0000
  H   H24       1.0  0.96574  0.34923  0.33782  1.0000
  C   C1        1.0  0.09513  0.96817  0.39612  1.0000
  C   C2        1.0  0.40487  0.03183  0.89612  1.0000
  C   C3        1.0  0.90488  0.03182  0.60389  1.0000
  C   C4        1.0  0.59513  0.96817  0.10389  1.0000
  C   C5        1.0  0.06995  0.00720  0.30692  1.0000
  C   C6        1.0  0.43006  0.99280  0.80692  1.0000
  C   C7        1.0  0.93005  0.99280  0.69308  1.0000
  C   C8        1.0  0.56995  0.00721  0.19308  1.0000
  C   C9        1.0  0.00900  0.89916  0.24169  1.0000
  C   C10       1.0  0.49099  0.10084  0.74169  1.0000
  C   C11       1.0  0.99099  0.10084  0.75831  1.0000
  C   C12       1.0  0.50901  0.89916  0.25831  1.0000
  C   C13       1.0  0.96596  0.75241  0.27002  1.0000
  C   C14       1.0  0.53404  0.24760  0.77002  1.0000
  C   C15       1.0  0.03404  0.24760  0.72999  1.0000
  C   C16       1.0  0.46597  0.75241  0.22998  1.0000
  C   C17       1.0  0.99004  0.71687  0.36014  1.0000
  C   C18       1.0  0.50996  0.28314  0.86014  1.0000
  C   C19       1.0  0.00995  0.28313  0.63985  1.0000
  C   C20       1.0  0.49005  0.71686  0.13986  1.0000
  C   C21       1.0  0.99765  0.94111  0.14358  1.0000
  C   C22       1.0  0.50237  0.05890  0.64358  1.0000
  C   C23       1.0  0.00237  0.05891  0.85642  1.0000
  C   C24       1.0  0.49765  0.94111  0.35642  1.0000
  S   S1        1.0  0.81826  0.40158  0.09375  1.0000
  S   S2        1.0  0.68174  0.59842  0.59375  1.0000
  S   S3        1.0  0.18174  0.59842  0.90625  1.0000
  S   S4        1.0  0.31826  0.40157  0.40625  1.0000
  N   N1        1.0  0.05983  0.82425  0.42071  1.0000
  N   N2        1.0  0.44017  0.17576  0.92071  1.0000
  N   N3        1.0  0.94017  0.17575  0.57929  1.0000
  N   N4        1.0  0.55983  0.82425  0.07929  1.0000
  O   O1        1.0  0.04685  0.07628  0.12364  1.0000
  O   O2        1.0  0.45315  0.92370  0.62364  1.0000
  O   O3        1.0  0.95315  0.92370  0.87636  1.0000
  O   O4        1.0  0.54685  0.07628  0.37636  1.0000
  O   O5        1.0  0.94099  0.83994  0.08697  1.0000
  O   O6        1.0  0.55899  0.16003  0.58698  1.0000
  O   O7        1.0  0.05899  0.16004  0.91302  1.0000
  O   O8        1.0  0.44099  0.83994  0.41303  1.0000
  O   O9        1.0  0.09810  0.78818  0.50464  1.0000
  O   O10       1.0  0.40190  0.21182  0.00464  1.0000
  O   O11       1.0  0.90190  0.21182  0.49536  1.0000
  O   O12       1.0  0.59810  0.78818  0.99536  1.0000
  O   O13       1.0  0.00771  0.44349  0.13053  1.0000
  O   O14       1.0  0.49229  0.55651  0.63054  1.0000
  O   O15       1.0  0.99229  0.55651  0.86946  1.0000
  O   O16       1.0  0.50771  0.44349  0.36947  1.0000
  O   O17       1.0  0.82519  0.27854  0.02871  1.0000
  O   O18       1.0  0.67481  0.72146  0.52870  1.0000
  O   O19       1.0  0.17481  0.72146  0.97129  1.0000
  O   O20       1.0  0.32519  0.27854  0.47129  1.0000
  O   O21       1.0  0.76312  0.52656  0.04520  1.0000
  O   O22       1.0  0.73688  0.47344  0.54521  1.0000
  O   O23       1.0  0.23688  0.47344  0.95480  1.0000
  O   O24       1.0  0.26311  0.52656  0.45480  1.0000
  O   O25       1.0  0.68977  0.35638  0.17009  1.0000
  O   O26       1.0  0.81023  0.64363  0.67009  1.0000
  O   O27       1.0  0.31023  0.64362  0.82991  1.0000
  O   O28       1.0  0.18977  0.35638  0.32991  1.0000
  O   O29       1.0  0.33383  0.35298  0.15965  1.0000
  O   O30       1.0  0.16617  0.64702  0.65965  1.0000
  O   O31       1.0  0.66616  0.64702  0.84035  1.0000
  O   O32       1.0  0.83383  0.35298  0.34035  1.0000
