data_image0
_chemical_formula_structural       Lu4H24C24S4N4O32
_chemical_formula_sum              "Lu4 H24 C24 S4 N4 O32"
_cell_length_a       7.48114
_cell_length_b       9.24415
_cell_length_c       14.5886
_cell_angle_alpha    90.0001
_cell_angle_beta     90
_cell_angle_gamma    100.9

_space_group_name_H-M_alt    "P 1"
_space_group_IT_number       1

loop_
  _space_group_symop_operation_xyz
  'x, y, z'

loop_
  _atom_site_type_symbol
  _atom_site_label
  _atom_site_symmetry_multiplicity
  _atom_site_fract_x
  _atom_site_fract_y
  _atom_site_fract_z
  _atom_site_occupancy
  Lu  Lu1       1.0  0.13576  0.27711  0.04369  1.0000
  Lu  Lu2       1.0  0.36424  0.72289  0.54369  1.0000
  Lu  Lu3       1.0  0.86424  0.72289  0.95631  1.0000
  Lu  Lu4       1.0  0.63576  0.27711  0.45631  1.0000
  H   H1        1.0  0.15368  0.04723  0.44929  1.0000
  H   H2        1.0  0.34632  0.95277  0.94928  1.0000
  H   H3        1.0  0.84632  0.95277  0.55071  1.0000
  H   H4        1.0  0.65368  0.04723  0.05072  1.0000
  H   H5        1.0  0.10302  0.12433  0.28861  1.0000
  H   H6        1.0  0.39698  0.87567  0.78861  1.0000
  H   H7        1.0  0.89697  0.87567  0.71139  1.0000
  H   H8        1.0  0.60302  0.12433  0.21139  1.0000
  H   H9        1.0  0.91921  0.66518  0.22073  1.0000
  H   H10       1.0  0.58079  0.33482  0.72073  1.0000
  H   H11       1.0  0.08079  0.33482  0.77927  1.0000
  H   H12       1.0  0.41921  0.66518  0.27927  1.0000
  H   H13       1.0  0.96621  0.60568  0.38748  1.0000
  H   H14       1.0  0.53379  0.39432  0.88748  1.0000
  H   H15       1.0  0.03378  0.39432  0.61252  1.0000
  H   H16       1.0  0.46621  0.60568  0.11252  1.0000
  H   H17       1.0  0.28692  0.36101  0.22276  1.0000
  H   H18       1.0  0.21308  0.63899  0.72276  1.0000
  H   H19       1.0  0.71308  0.63899  0.77724  1.0000
  H   H20       1.0  0.78692  0.36101  0.27724  1.0000
  H   H21       1.0  0.46263  0.34740  0.16106  1.0000
  H   H22       1.0  0.03737  0.65260  0.66106  1.0000
  H   H23       1.0  0.53737  0.65260  0.83894  1.0000
  H   H24       1.0  0.96263  0.34740  0.33894  1.0000
  C   C1        1.0  0.09709  0.96895  0.39643  1.0000
  C   C2        1.0  0.40291  0.03105  0.89643  1.0000
  C   C3        1.0  0.90291  0.03105  0.60357  1.0000
  C   C4        1.0  0.59709  0.96895  0.10357  1.0000
  C   C5        1.0  0.07035  0.00843  0.30698  1.0000
  C   C6        1.0  0.42965  0.99157  0.80697  1.0000
  C   C7        1.0  0.92965  0.99157  0.69302  1.0000
  C   C8        1.0  0.57035  0.00843  0.19303  1.0000
  C   C9        1.0  0.00952  0.90020  0.24139  1.0000
  C   C10       1.0  0.49048  0.09980  0.74139  1.0000
  C   C11       1.0  0.99047  0.09980  0.75861  1.0000
  C   C12       1.0  0.50953  0.90020  0.25861  1.0000
  C   C13       1.0  0.96745  0.75283  0.26957  1.0000
  C   C14       1.0  0.53255  0.24718  0.76957  1.0000
  C   C15       1.0  0.03255  0.24717  0.73043  1.0000
  C   C16       1.0  0.46745  0.75283  0.23043  1.0000
  C   C17       1.0  0.99292  0.71690  0.36000  1.0000
  C   C18       1.0  0.50708  0.28310  0.86000  1.0000
  C   C19       1.0  0.00707  0.28310  0.64000  1.0000
  C   C20       1.0  0.49292  0.71690  0.14000  1.0000
  C   C21       1.0  0.99773  0.94248  0.14282  1.0000
  C   C22       1.0  0.50227  0.05752  0.64281  1.0000
  C   C23       1.0  0.00227  0.05752  0.85718  1.0000
  C   C24       1.0  0.49773  0.94248  0.35718  1.0000
  S   S1        1.0  0.81898  0.40253  0.09302  1.0000
  S   S2        1.0  0.68102  0.59747  0.59301  1.0000
  S   S3        1.0  0.18102  0.59747  0.90699  1.0000
  S   S4        1.0  0.31898  0.40253  0.40698  1.0000
  N   N1        1.0  0.06270  0.82445  0.42089  1.0000
  N   N2        1.0  0.43730  0.17555  0.92089  1.0000
  N   N3        1.0  0.93730  0.17555  0.57911  1.0000
  N   N4        1.0  0.56270  0.82445  0.07911  1.0000
  O   O1        1.0  0.04628  0.07817  0.12298  1.0000
  O   O2        1.0  0.45373  0.92183  0.62298  1.0000
  O   O3        1.0  0.95372  0.92183  0.87702  1.0000
  O   O4        1.0  0.54628  0.07817  0.37702  1.0000
  O   O5        1.0  0.94177  0.84121  0.08577  1.0000
  O   O6        1.0  0.55822  0.15880  0.58577  1.0000
  O   O7        1.0  0.05822  0.15879  0.91423  1.0000
  O   O8        1.0  0.44178  0.84121  0.41423  1.0000
  O   O9        1.0  0.10126  0.78792  0.50519  1.0000
  O   O10       1.0  0.39874  0.21208  0.00519  1.0000
  O   O11       1.0  0.89874  0.21208  0.49481  1.0000
  O   O12       1.0  0.60126  0.78792  0.99481  1.0000
  O   O13       1.0  0.00846  0.44299  0.13043  1.0000
  O   O14       1.0  0.49154  0.55701  0.63043  1.0000
  O   O15       1.0  0.99154  0.55701  0.86957  1.0000
  O   O16       1.0  0.50845  0.44299  0.36957  1.0000
  O   O17       1.0  0.82666  0.27953  0.02731  1.0000
  O   O18       1.0  0.67334  0.72047  0.52731  1.0000
  O   O19       1.0  0.17334  0.72047  0.97269  1.0000
  O   O20       1.0  0.32666  0.27953  0.47269  1.0000
  O   O21       1.0  0.76474  0.52864  0.04424  1.0000
  O   O22       1.0  0.73526  0.47135  0.54424  1.0000
  O   O23       1.0  0.23526  0.47135  0.95576  1.0000
  O   O24       1.0  0.26475  0.52864  0.45576  1.0000
  O   O25       1.0  0.68917  0.35747  0.16927  1.0000
  O   O26       1.0  0.81083  0.64253  0.66927  1.0000
  O   O27       1.0  0.31082  0.64253  0.83073  1.0000
  O   O28       1.0  0.18917  0.35747  0.33073  1.0000
  O   O29       1.0  0.33074  0.35185  0.15917  1.0000
  O   O30       1.0  0.16926  0.64815  0.65917  1.0000
  O   O31       1.0  0.66926  0.64815  0.84083  1.0000
  O   O32       1.0  0.83074  0.35185  0.34083  1.0000
