data_image0
_chemical_formula_structural       Dy4H24C24S4N4O32
_chemical_formula_sum              "Dy4 H24 C24 S4 N4 O32"
_cell_length_a       7.53611
_cell_length_b       9.32646
_cell_length_c       14.7551
_cell_angle_alpha    89.9999
_cell_angle_beta     90
_cell_angle_gamma    101.371

_space_group_name_H-M_alt    "P 1"
_space_group_IT_number       1

loop_
  _space_group_symop_operation_xyz
  'x, y, z'

loop_
  _atom_site_type_symbol
  _atom_site_label
  _atom_site_symmetry_multiplicity
  _atom_site_fract_x
  _atom_site_fract_y
  _atom_site_fract_z
  _atom_site_occupancy
  Dy  Dy1       1.0  0.13747  0.27792  0.04403  1.0000
  Dy  Dy2       1.0  0.36253  0.72208  0.54403  1.0000
  Dy  Dy3       1.0  0.86253  0.72208  0.95598  1.0000
  Dy  Dy4       1.0  0.63747  0.27793  0.45597  1.0000
  H   H1        1.0  0.14881  0.04604  0.44825  1.0000
  H   H2        1.0  0.35118  0.95396  0.94824  1.0000
  H   H3        1.0  0.85120  0.95396  0.55175  1.0000
  H   H4        1.0  0.64881  0.04604  0.05176  1.0000
  H   H5        1.0  0.10325  0.12095  0.28885  1.0000
  H   H6        1.0  0.39676  0.87905  0.78885  1.0000
  H   H7        1.0  0.89676  0.87905  0.71115  1.0000
  H   H8        1.0  0.60324  0.12095  0.21115  1.0000
  H   H9        1.0  0.91742  0.66426  0.22292  1.0000
  H   H10       1.0  0.58257  0.33575  0.72292  1.0000
  H   H11       1.0  0.08257  0.33574  0.77708  1.0000
  H   H12       1.0  0.41742  0.66426  0.27708  1.0000
  H   H13       1.0  0.96028  0.60696  0.38814  1.0000
  H   H14       1.0  0.53970  0.39304  0.88814  1.0000
  H   H15       1.0  0.03971  0.39304  0.61186  1.0000
  H   H16       1.0  0.46029  0.60696  0.11186  1.0000
  H   H17       1.0  0.29030  0.36371  0.22410  1.0000
  H   H18       1.0  0.20970  0.63628  0.72410  1.0000
  H   H19       1.0  0.70970  0.63629  0.77590  1.0000
  H   H20       1.0  0.79030  0.36372  0.27590  1.0000
  H   H21       1.0  0.46693  0.35186  0.16436  1.0000
  H   H22       1.0  0.03308  0.64813  0.66436  1.0000
  H   H23       1.0  0.53308  0.64814  0.83564  1.0000
  H   H24       1.0  0.96693  0.35187  0.33564  1.0000
  C   C1        1.0  0.09344  0.96760  0.39613  1.0000
  C   C2        1.0  0.40656  0.03240  0.89613  1.0000
  C   C3        1.0  0.90655  0.03240  0.60387  1.0000
  C   C4        1.0  0.59344  0.96760  0.10387  1.0000
  C   C5        1.0  0.06878  0.00598  0.30736  1.0000
  C   C6        1.0  0.43122  0.99402  0.80736  1.0000
  C   C7        1.0  0.93122  0.99402  0.69264  1.0000
  C   C8        1.0  0.56878  0.00598  0.19264  1.0000
  C   C9        1.0  0.00809  0.89794  0.24269  1.0000
  C   C10       1.0  0.49190  0.10206  0.74269  1.0000
  C   C11       1.0  0.99191  0.10206  0.75731  1.0000
  C   C12       1.0  0.50809  0.89795  0.25731  1.0000
  C   C13       1.0  0.96470  0.75188  0.27107  1.0000
  C   C14       1.0  0.53530  0.24812  0.77107  1.0000
  C   C15       1.0  0.03531  0.24812  0.72893  1.0000
  C   C16       1.0  0.46470  0.75188  0.22893  1.0000
  C   C17       1.0  0.98822  0.71717  0.36078  1.0000
  C   C18       1.0  0.51177  0.28283  0.86078  1.0000
  C   C19       1.0  0.01177  0.28283  0.63922  1.0000
  C   C20       1.0  0.48823  0.71717  0.13922  1.0000
  C   C21       1.0  0.99709  0.93904  0.14507  1.0000
  C   C22       1.0  0.50290  0.06096  0.64507  1.0000
  C   C23       1.0  0.00291  0.06095  0.85493  1.0000
  C   C24       1.0  0.49709  0.93905  0.35493  1.0000
  S   S1        1.0  0.81544  0.40079  0.09423  1.0000
  S   S2        1.0  0.68457  0.59921  0.59424  1.0000
  S   S3        1.0  0.18457  0.59921  0.90577  1.0000
  S   S4        1.0  0.31544  0.40080  0.40576  1.0000
  N   N1        1.0  0.05799  0.82433  0.42087  1.0000
  N   N2        1.0  0.44201  0.17567  0.92087  1.0000
  N   N3        1.0  0.94200  0.17567  0.57913  1.0000
  N   N4        1.0  0.55799  0.82433  0.07913  1.0000
  O   O1        1.0  0.04650  0.07346  0.12465  1.0000
  O   O2        1.0  0.45349  0.92655  0.62464  1.0000
  O   O3        1.0  0.95349  0.92654  0.87535  1.0000
  O   O4        1.0  0.54650  0.07346  0.37535  1.0000
  O   O5        1.0  0.94037  0.83789  0.08901  1.0000
  O   O6        1.0  0.55962  0.16211  0.58900  1.0000
  O   O7        1.0  0.05962  0.16210  0.91099  1.0000
  O   O8        1.0  0.44037  0.83789  0.41099  1.0000
  O   O9        1.0  0.09568  0.78860  0.50431  1.0000
  O   O10       1.0  0.40433  0.21140  0.00431  1.0000
  O   O11       1.0  0.90432  0.21140  0.49569  1.0000
  O   O12       1.0  0.59569  0.78860  0.99570  1.0000
  O   O13       1.0  0.00463  0.44582  0.12984  1.0000
  O   O14       1.0  0.49538  0.55418  0.62985  1.0000
  O   O15       1.0  0.99538  0.55418  0.87016  1.0000
  O   O16       1.0  0.50463  0.44583  0.37016  1.0000
  O   O17       1.0  0.82212  0.27704  0.03054  1.0000
  O   O18       1.0  0.67789  0.72296  0.53054  1.0000
  O   O19       1.0  0.17789  0.72295  0.96946  1.0000
  O   O20       1.0  0.32211  0.27704  0.46946  1.0000
  O   O21       1.0  0.75743  0.52300  0.04531  1.0000
  O   O22       1.0  0.74257  0.47699  0.54531  1.0000
  O   O23       1.0  0.24257  0.47699  0.95469  1.0000
  O   O24       1.0  0.25744  0.52300  0.45469  1.0000
  O   O25       1.0  0.68947  0.35583  0.17099  1.0000
  O   O26       1.0  0.81054  0.64416  0.67100  1.0000
  O   O27       1.0  0.31053  0.64416  0.82901  1.0000
  O   O28       1.0  0.18946  0.35584  0.32900  1.0000
  O   O29       1.0  0.33591  0.35629  0.16140  1.0000
  O   O30       1.0  0.16410  0.64372  0.66140  1.0000
  O   O31       1.0  0.66409  0.64371  0.83860  1.0000
  O   O32       1.0  0.83591  0.35629  0.33860  1.0000
