data_image0
_chemical_formula_structural       Yb4H24C24S4N4O32
_chemical_formula_sum              "Yb4 H24 C24 S4 N4 O32"
_cell_length_a       7.48348
_cell_length_b       9.26387
_cell_length_c       14.6322
_cell_angle_alpha    89.9999
_cell_angle_beta     90.0001
_cell_angle_gamma    101.264

_space_group_name_H-M_alt    "P 1"
_space_group_IT_number       1

loop_
  _space_group_symop_operation_xyz
  'x, y, z'

loop_
  _atom_site_type_symbol
  _atom_site_label
  _atom_site_symmetry_multiplicity
  _atom_site_fract_x
  _atom_site_fract_y
  _atom_site_fract_z
  _atom_site_occupancy
  Yb  Yb1       1.0  0.13679  0.27735  0.04370  1.0000
  Yb  Yb2       1.0  0.36320  0.72265  0.54370  1.0000
  Yb  Yb3       1.0  0.86320  0.72265  0.95630  1.0000
  Yb  Yb4       1.0  0.63679  0.27735  0.45630  1.0000
  H   H1        1.0  0.15099  0.04618  0.44922  1.0000
  H   H2        1.0  0.34901  0.95382  0.94922  1.0000
  H   H3        1.0  0.84901  0.95382  0.55078  1.0000
  H   H4        1.0  0.65099  0.04618  0.05078  1.0000
  H   H5        1.0  0.10356  0.12299  0.28890  1.0000
  H   H6        1.0  0.39644  0.87701  0.78890  1.0000
  H   H7        1.0  0.89644  0.87701  0.71110  1.0000
  H   H8        1.0  0.60355  0.12299  0.21110  1.0000
  H   H9        1.0  0.91907  0.66416  0.22090  1.0000
  H   H10       1.0  0.58093  0.33584  0.72091  1.0000
  H   H11       1.0  0.08093  0.33584  0.77910  1.0000
  H   H12       1.0  0.41907  0.66416  0.27910  1.0000
  H   H13       1.0  0.96324  0.60490  0.38718  1.0000
  H   H14       1.0  0.53675  0.39511  0.88718  1.0000
  H   H15       1.0  0.03676  0.39510  0.61282  1.0000
  H   H16       1.0  0.46324  0.60490  0.11282  1.0000
  H   H17       1.0  0.28839  0.36242  0.22240  1.0000
  H   H18       1.0  0.21160  0.63758  0.72240  1.0000
  H   H19       1.0  0.71160  0.63758  0.77760  1.0000
  H   H20       1.0  0.78839  0.36242  0.27760  1.0000
  H   H21       1.0  0.46534  0.34902  0.16168  1.0000
  H   H22       1.0  0.03465  0.65098  0.66168  1.0000
  H   H23       1.0  0.53465  0.65098  0.83832  1.0000
  H   H24       1.0  0.96534  0.34902  0.33832  1.0000
  C   C1        1.0  0.09495  0.96784  0.39643  1.0000
  C   C2        1.0  0.40505  0.03216  0.89644  1.0000
  C   C3        1.0  0.90505  0.03216  0.60356  1.0000
  C   C4        1.0  0.59495  0.96784  0.10357  1.0000
  C   C5        1.0  0.06956  0.00718  0.30712  1.0000
  C   C6        1.0  0.43045  0.99282  0.80712  1.0000
  C   C7        1.0  0.93045  0.99282  0.69288  1.0000
  C   C8        1.0  0.56955  0.00718  0.19288  1.0000
  C   C9        1.0  0.00903  0.89903  0.24158  1.0000
  C   C10       1.0  0.49098  0.10097  0.74158  1.0000
  C   C11       1.0  0.99098  0.10097  0.75842  1.0000
  C   C12       1.0  0.50902  0.89903  0.25842  1.0000
  C   C13       1.0  0.96627  0.75184  0.26976  1.0000
  C   C14       1.0  0.53374  0.24816  0.76976  1.0000
  C   C15       1.0  0.03374  0.24816  0.73024  1.0000
  C   C16       1.0  0.46627  0.75184  0.23024  1.0000
  C   C17       1.0  0.99055  0.71607  0.36003  1.0000
  C   C18       1.0  0.50945  0.28393  0.86003  1.0000
  C   C19       1.0  0.00945  0.28393  0.63997  1.0000
  C   C20       1.0  0.49054  0.71607  0.13997  1.0000
  C   C21       1.0  0.99767  0.94143  0.14331  1.0000
  C   C22       1.0  0.50234  0.05857  0.64332  1.0000
  C   C23       1.0  0.00234  0.05857  0.85668  1.0000
  C   C24       1.0  0.49767  0.94143  0.35669  1.0000
  S   S1        1.0  0.81904  0.40187  0.09361  1.0000
  S   S2        1.0  0.68096  0.59813  0.59361  1.0000
  S   S3        1.0  0.18096  0.59813  0.90639  1.0000
  S   S4        1.0  0.31904  0.40187  0.40639  1.0000
  N   N1        1.0  0.06024  0.82353  0.42086  1.0000
  N   N2        1.0  0.43976  0.17647  0.92087  1.0000
  N   N3        1.0  0.93976  0.17646  0.57913  1.0000
  N   N4        1.0  0.56024  0.82354  0.07913  1.0000
  O   O1        1.0  0.04668  0.07711  0.12364  1.0000
  O   O2        1.0  0.45332  0.92289  0.62364  1.0000
  O   O3        1.0  0.95332  0.92289  0.87636  1.0000
  O   O4        1.0  0.54668  0.07711  0.37636  1.0000
  O   O5        1.0  0.94133  0.84026  0.08635  1.0000
  O   O6        1.0  0.55867  0.15974  0.58635  1.0000
  O   O7        1.0  0.05867  0.15974  0.91365  1.0000
  O   O8        1.0  0.44133  0.84026  0.41365  1.0000
  O   O9        1.0  0.09883  0.78728  0.50490  1.0000
  O   O10       1.0  0.40117  0.21272  0.00490  1.0000
  O   O11       1.0  0.90116  0.21272  0.49510  1.0000
  O   O12       1.0  0.59883  0.78728  0.99510  1.0000
  O   O13       1.0  0.00890  0.44322  0.13061  1.0000
  O   O14       1.0  0.49110  0.55678  0.63060  1.0000
  O   O15       1.0  0.99110  0.55678  0.86939  1.0000
  O   O16       1.0  0.50890  0.44322  0.36940  1.0000
  O   O17       1.0  0.82556  0.27867  0.02835  1.0000
  O   O18       1.0  0.67444  0.72133  0.52835  1.0000
  O   O19       1.0  0.17443  0.72133  0.97165  1.0000
  O   O20       1.0  0.32556  0.27867  0.47165  1.0000
  O   O21       1.0  0.76434  0.52734  0.04507  1.0000
  O   O22       1.0  0.73567  0.47266  0.54508  1.0000
  O   O23       1.0  0.23566  0.47266  0.95492  1.0000
  O   O24       1.0  0.26434  0.52734  0.45492  1.0000
  O   O25       1.0  0.68993  0.35665  0.17001  1.0000
  O   O26       1.0  0.81007  0.64336  0.67001  1.0000
  O   O27       1.0  0.31006  0.64336  0.82999  1.0000
  O   O28       1.0  0.18993  0.35664  0.32999  1.0000
  O   O29       1.0  0.33328  0.35325  0.15919  1.0000
  O   O30       1.0  0.16672  0.64674  0.65919  1.0000
  O   O31       1.0  0.66672  0.64674  0.84081  1.0000
  O   O32       1.0  0.83328  0.35326  0.34081  1.0000
