data_image0
_chemical_formula_structural       Zn2H24C18N8O6
_chemical_formula_sum              "Zn2 H24 C18 N8 O6"
_cell_length_a       9.21064
_cell_length_b       9.61636
_cell_length_c       9.65998
_cell_angle_alpha    122.593
_cell_angle_beta     90.0005
_cell_angle_gamma    89.9993

_space_group_name_H-M_alt    "P 1"
_space_group_IT_number       1

loop_
  _space_group_symop_operation_xyz
  'x, y, z'

loop_
  _atom_site_type_symbol
  _atom_site_label
  _atom_site_symmetry_multiplicity
  _atom_site_fract_x
  _atom_site_fract_y
  _atom_site_fract_z
  _atom_site_occupancy
  Zn  Zn1       1.0  0.56697  0.40565  0.27397  1.0000
  Zn  Zn2       1.0  0.06697  0.59435  0.72602  1.0000
  H   H1        1.0  0.25383  0.53664  0.42683  1.0000
  H   H2        1.0  0.75383  0.46338  0.57317  1.0000
  H   H3        1.0  0.43614  0.30921  0.79378  1.0000
  H   H4        1.0  0.93615  0.69077  0.20621  1.0000
  H   H5        1.0  0.24525  0.34785  0.81248  1.0000
  H   H6        1.0  0.74526  0.65214  0.18750  1.0000
  H   H7        1.0  0.59988  0.58043  0.93270  1.0000
  H   H8        1.0  0.09988  0.41957  0.06729  1.0000
  H   H9        1.0  0.57379  0.30595  0.54657  1.0000
  H   H10       1.0  0.07380  0.69406  0.45344  1.0000
  H   H11       1.0  0.61994  0.08501  0.26440  1.0000
  H   H12       1.0  0.11997  0.91498  0.73562  1.0000
  H   H13       1.0  0.78034  0.09798  0.16819  1.0000
  H   H14       1.0  0.28036  0.90203  0.83184  1.0000
  H   H15       1.0  0.28168  0.64303  0.00076  1.0000
  H   H16       1.0  0.78167  0.35697  0.99922  1.0000
  H   H17       1.0  0.68065  0.84944  0.89665  1.0000
  H   H18       1.0  0.18063  0.15055  0.10337  1.0000
  H   H19       1.0  0.73928  0.80484  0.04182  1.0000
  H   H20       1.0  0.23927  0.19516  0.95821  1.0000
  H   H21       1.0  0.64089  0.14104  0.99526  1.0000
  H   H22       1.0  0.14089  0.85896  0.00476  1.0000
  H   H23       1.0  0.48612  0.10541  0.06157  1.0000
  H   H24       1.0  0.98612  0.89459  0.93844  1.0000
  C   C1        1.0  0.30994  0.49016  0.49258  1.0000
  C   C2        1.0  0.80995  0.50985  0.50742  1.0000
  C   C3        1.0  0.35169  0.39679  0.80742  1.0000
  C   C4        1.0  0.85169  0.60322  0.19257  1.0000
  C   C5        1.0  0.47347  0.36823  0.55286  1.0000
  C   C6        1.0  0.97347  0.63179  0.44712  1.0000
  C   C7        1.0  0.36140  0.41506  0.66405  1.0000
  C   C8        1.0  0.86140  0.58494  0.33594  1.0000
  C   C9        1.0  0.66691  0.05742  0.14767  1.0000
  C   C10       1.0  0.16688  0.94259  0.85235  1.0000
  C   C11       1.0  0.38446  0.52211  0.10859  1.0000
  C   C12       1.0  0.88446  0.47787  0.89139  1.0000
  C   C13       1.0  0.37513  0.56193  0.97435  1.0000
  C   C14       1.0  0.87513  0.43805  0.02564  1.0000
  C   C15       1.0  0.65673  0.87278  0.01930  1.0000
  C   C16       1.0  0.15673  0.12723  0.98073  1.0000
  C   C17       1.0  0.50628  0.80506  0.01715  1.0000
  C   C18       1.0  0.00627  0.19494  0.98286  1.0000
  N   N1        1.0  0.58794  0.15675  0.09620  1.0000
  N   N2        1.0  0.08793  0.84324  0.90379  1.0000
  N   N3        1.0  0.50396  0.64631  0.97191  1.0000
  N   N4        1.0  0.00396  0.35368  0.02807  1.0000
  N   N5        1.0  0.44033  0.41610  0.44485  1.0000
  N   N6        1.0  0.94032  0.58391  0.55514  1.0000
  N   N7        1.0  0.25786  0.49311  0.62467  1.0000
  N   N8        1.0  0.75786  0.50690  0.37532  1.0000
  O   O1        1.0  0.51424  0.49638  0.13998  1.0000
  O   O2        1.0  0.01423  0.50361  0.85999  1.0000
  O   O3        1.0  0.27017  0.50915  0.17089  1.0000
  O   O4        1.0  0.77017  0.49084  0.82910  1.0000
  O   O5        1.0  0.39586  0.89556  0.05805  1.0000
  O   O6        1.0  0.89585  0.10445  0.94197  1.0000
