data_image0
_chemical_formula_structural       Zn2H24C18N8O6
_chemical_formula_sum              "Zn2 H24 C18 N8 O6"
_cell_length_a       9.16513
_cell_length_b       9.24779
_cell_length_c       9.66857
_cell_angle_alpha    89.9997
_cell_angle_beta     118.216
_cell_angle_gamma    89.9997

_space_group_name_H-M_alt    "P 1"
_space_group_IT_number       1

loop_
  _space_group_symop_operation_xyz
  'x, y, z'

loop_
  _atom_site_type_symbol
  _atom_site_label
  _atom_site_symmetry_multiplicity
  _atom_site_fract_x
  _atom_site_fract_y
  _atom_site_fract_z
  _atom_site_occupancy
  Zn  Zn1       1.0  0.08961  0.55714  0.86422  1.0000
  Zn  Zn2       1.0  0.91039  0.05714  0.13578  1.0000
  H   H1        1.0  0.38904  0.48052  0.93352  1.0000
  H   H2        1.0  0.61096  0.98052  0.06648  1.0000
  H   H3        1.0  0.35526  0.64596  0.85377  1.0000
  H   H4        1.0  0.64474  0.14596  0.14622  1.0000
  H   H5        1.0  0.96937  0.24208  0.89274  1.0000
  H   H6        1.0  0.03062  0.74207  0.10726  1.0000
  H   H7        1.0  0.19068  0.42824  0.47968  1.0000
  H   H8        1.0  0.80932  0.92825  0.52032  1.0000
  H   H9        1.0  0.15572  0.23782  0.46248  1.0000
  H   H10       1.0  0.84427  0.73783  0.53752  1.0000
  H   H11       1.0  0.91334  0.58791  0.35354  1.0000
  H   H12       1.0  0.08666  0.08790  0.64647  1.0000
  H   H13       1.0  0.18691  0.56678  0.23461  1.0000
  H   H14       1.0  0.81309  0.06679  0.76539  1.0000
  H   H15       1.0  0.85866  0.26931  0.36139  1.0000
  H   H16       1.0  0.14134  0.76931  0.63861  1.0000
  H   H17       1.0  0.68643  0.72064  0.23900  1.0000
  H   H18       1.0  0.31357  0.22063  0.76099  1.0000
  H   H19       1.0  0.64960  0.66722  0.05104  1.0000
  H   H20       1.0  0.35039  0.16722  0.94896  1.0000
  H   H21       1.0  0.40579  0.58615  0.17128  1.0000
  H   H22       1.0  0.59422  0.08615  0.82872  1.0000
  H   H23       1.0  0.39467  0.75718  0.08194  1.0000
  H   H24       1.0  0.60533  0.25718  0.91805  1.0000
  C   C1        1.0  0.01286  0.29936  0.00310  1.0000
  C   C2        1.0  0.98714  0.79936  0.99690  1.0000
  C   C3        1.0  0.10392  0.34288  0.40853  1.0000
  C   C4        1.0  0.89608  0.84289  0.59147  1.0000
  C   C5        1.0  0.12799  0.46540  0.18094  1.0000
  C   C6        1.0  0.87201  0.96540  0.81906  1.0000
  C   C7        1.0  0.93817  0.36391  0.41332  1.0000
  C   C8        1.0  0.06182  0.86391  0.58668  1.0000
  C   C9        1.0  0.97901  0.37438  0.58684  1.0000
  C   C10       1.0  0.02099  0.87438  0.41316  1.0000
  C   C11       1.0  0.69310  0.48979  0.21086  1.0000
  C   C12       1.0  0.30691  0.98979  0.78914  1.0000
  C   C13       1.0  0.08484  0.35236  0.24719  1.0000
  C   C14       1.0  0.91516  0.85237  0.75281  1.0000
  C   C15       1.0  0.62245  0.63913  0.14736  1.0000
  C   C16       1.0  0.37755  0.13913  0.85264  1.0000
  C   C17       1.0  0.43614  0.64487  0.08945  1.0000
  C   C18       1.0  0.56387  0.14487  0.91054  1.0000
  N   N1        1.0  0.33906  0.58028  0.93127  1.0000
  N   N2        1.0  0.66094  0.08028  0.06873  1.0000
  N   N3        1.0  0.01076  0.24737  0.13249  1.0000
  N   N4        1.0  0.98924  0.74737  0.86751  1.0000
  N   N5        1.0  0.85048  0.49060  0.32641  1.0000
  N   N6        1.0  0.14953  0.99060  0.67359  1.0000
  N   N7        1.0  0.08206  0.43135  0.02655  1.0000
  N   N8        1.0  0.91793  0.93135  0.97345  1.0000
  O   O1        1.0  0.99463  0.50427  0.64061  1.0000
  O   O2        1.0  0.00537  0.00427  0.35940  1.0000
  O   O3        1.0  0.00188  0.26077  0.66481  1.0000
  O   O4        1.0  0.99812  0.76077  0.33519  1.0000
  O   O5        1.0  0.60597  0.37824  0.15848  1.0000
  O   O6        1.0  0.39403  0.87824  0.84151  1.0000
