data_image0
_chemical_formula_structural       Zn4H48C36N16O12
_chemical_formula_sum              "Zn4 H48 C36 N16 O12"
_cell_length_a       8.94811
_cell_length_b       10.8767
_cell_length_c       14.585
_cell_angle_alpha    96.5847
_cell_angle_beta     90
_cell_angle_gamma    90

_space_group_name_H-M_alt    "P 1"
_space_group_IT_number       1

loop_
  _space_group_symop_operation_xyz
  'x, y, z'

loop_
  _atom_site_type_symbol
  _atom_site_label
  _atom_site_symmetry_multiplicity
  _atom_site_fract_x
  _atom_site_fract_y
  _atom_site_fract_z
  _atom_site_occupancy
  Zn  Zn1       1.0  0.25649  0.06229  0.28161  1.0000
  Zn  Zn2       1.0  0.75649  0.93771  0.71839  1.0000
  Zn  Zn3       1.0  0.74764  0.36600  0.18371  1.0000
  Zn  Zn4       1.0  0.24764  0.63400  0.81629  1.0000
  H   H1        1.0  0.12417  0.41949  0.76586  1.0000
  H   H2        1.0  0.62417  0.58051  0.23414  1.0000
  H   H3        1.0  0.13958  0.49759  0.67604  1.0000
  H   H4        1.0  0.63958  0.50241  0.32396  1.0000
  H   H5        1.0  0.57407  0.16812  0.27543  1.0000
  H   H6        1.0  0.07407  0.83188  0.72457  1.0000
  H   H7        1.0  0.23780  0.16409  0.07310  1.0000
  H   H8        1.0  0.73780  0.83591  0.92690  1.0000
  H   H9        1.0  0.57135  0.51159  0.06682  1.0000
  H   H10       1.0  0.07135  0.48841  0.93318  1.0000
  H   H11       1.0  0.35857  0.32026  0.96632  1.0000
  H   H12       1.0  0.85856  0.67974  0.03368  1.0000
  H   H13       1.0  0.55760  0.32188  0.96734  1.0000
  H   H14       1.0  0.05760  0.67812  0.03266  1.0000
  H   H15       1.0  0.26062  0.58954  0.29641  1.0000
  H   H16       1.0  0.76062  0.41046  0.70359  1.0000
  H   H17       1.0  0.14079  0.63185  0.21055  1.0000
  H   H18       1.0  0.64078  0.36815  0.78945  1.0000
  H   H19       1.0  0.12500  0.86482  0.19697  1.0000
  H   H20       1.0  0.62500  0.13518  0.80304  1.0000
  H   H21       1.0  0.30326  0.86642  0.16934  1.0000
  H   H22       1.0  0.80326  0.13358  0.83066  1.0000
  H   H23       1.0  0.18615  0.79916  0.34638  1.0000
  H   H24       1.0  0.68615  0.20084  0.65362  1.0000
  H   H25       1.0  0.37723  0.80293  0.31287  1.0000
  H   H26       1.0  0.87723  0.19708  0.68714  1.0000
  H   H27       1.0  0.24902  0.72322  0.61458  1.0000
  H   H28       1.0  0.74902  0.27678  0.38542  1.0000
  H   H29       1.0  0.24136  0.48951  0.09995  1.0000
  H   H30       1.0  0.74136  0.51049  0.90005  1.0000
  H   H31       1.0  0.61480  0.03525  0.54780  1.0000
  H   H32       1.0  0.11480  0.96475  0.45220  1.0000
  H   H33       1.0  0.29357  0.04608  0.60062  1.0000
  H   H34       1.0  0.79357  0.95392  0.39938  1.0000
  H   H35       1.0  0.38122  0.36508  0.75948  1.0000
  H   H36       1.0  0.88122  0.63492  0.24052  1.0000
  H   H37       1.0  0.40579  0.44916  0.66371  1.0000
  H   H38       1.0  0.90579  0.55084  0.33629  1.0000
  H   H39       1.0  0.56505  0.77271  0.82938  1.0000
  H   H40       1.0  0.06505  0.22729  0.17062  1.0000
  H   H41       1.0  0.19916  0.22280  0.66860  1.0000
  H   H42       1.0  0.69916  0.77720  0.33140  1.0000
  H   H43       1.0  0.21110  0.31540  0.57624  1.0000
  H   H44       1.0  0.71110  0.68460  0.42375  1.0000
  H   H45       1.0  0.37618  0.83923  0.49410  1.0000
  H   H46       1.0  0.87618  0.16077  0.50590  1.0000
  H   H47       1.0  0.57290  0.82329  0.49522  1.0000
  H   H48       1.0  0.07289  0.17671  0.50478  1.0000
  C   C1        1.0  0.51201  0.19179  0.21584  1.0000
  C   C2        1.0  0.01201  0.80822  0.78416  1.0000
  C   C3        1.0  0.34012  0.18924  0.11056  1.0000
  C   C4        1.0  0.84012  0.81076  0.88944  1.0000
  C   C5        1.0  0.45134  0.26891  0.08908  1.0000
  C   C6        1.0  0.95134  0.73109  0.91092  1.0000
  C   C7        1.0  0.44157  0.54828  0.94992  1.0000
  C   C8        1.0  0.94157  0.45172  0.05008  1.0000
  C   C9        1.0  0.46114  0.48554  0.03816  1.0000
  C   C10       1.0  0.96114  0.51446  0.96184  1.0000
  C   C11       1.0  0.45737  0.34390  0.00985  1.0000
  C   C12       1.0  0.95737  0.65610  0.99015  1.0000
  C   C13       1.0  0.25086  0.65210  0.24230  1.0000
  C   C14       1.0  0.75086  0.34790  0.75770  1.0000
  C   C15       1.0  0.26298  0.78484  0.28763  1.0000
  C   C16       1.0  0.76298  0.21516  0.71237  1.0000
  C   C17       1.0  0.46273  0.82772  0.62552  1.0000
  C   C18       1.0  0.96273  0.17228  0.37448  1.0000
  C   C19       1.0  0.34857  0.75507  0.65281  1.0000
  C   C20       1.0  0.84857  0.24493  0.34719  1.0000
  C   C21       1.0  0.48281  0.02638  0.42399  1.0000
  C   C22       1.0  0.98281  0.97362  0.57601  1.0000
  C   C23       1.0  0.50021  0.00901  0.52708  1.0000
  C   C24       1.0  0.00021  0.99099  0.47292  1.0000
  C   C25       1.0  0.37520  0.61934  0.17255  1.0000
  C   C26       1.0  0.87520  0.38066  0.82745  1.0000
  C   C27       1.0  0.32518  0.39415  0.69843  1.0000
  C   C28       1.0  0.82518  0.60585  0.30157  1.0000
  C   C29       1.0  0.50892  0.78254  0.76479  1.0000
  C   C30       1.0  0.00892  0.21746  0.23521  1.0000
  C   C31       1.0  0.27457  0.28193  0.63341  1.0000
  C   C32       1.0  0.77457  0.71807  0.36659  1.0000
  C   C33       1.0  0.47812  0.86982  0.53246  1.0000
  C   C34       1.0  0.97812  0.13018  0.46754  1.0000
  C   C35       1.0  0.40512  0.20879  0.58871  1.0000
  C   C36       1.0  0.90512  0.79121  0.41129  1.0000
  N   N1        1.0  0.19716  0.47323  0.73195  1.0000
  N   N2        1.0  0.69716  0.52677  0.26805  1.0000
  N   N3        1.0  0.37886  0.72661  0.74069  1.0000
  N   N4        1.0  0.87886  0.27339  0.25931  1.0000
  N   N5        1.0  0.37897  0.14091  0.19089  1.0000
  N   N6        1.0  0.87897  0.85909  0.80911  1.0000
  N   N7        1.0  0.56003  0.26995  0.15692  1.0000
  N   N8        1.0  0.06004  0.73005  0.84308  1.0000
  N   N9        1.0  0.23019  0.87867  0.22377  1.0000
  N   N10       1.0  0.73019  0.12133  0.77623  1.0000
  N   N11       1.0  0.56445  0.84553  0.69778  1.0000
  N   N12       1.0  0.06445  0.15447  0.30223  1.0000
  N   N13       1.0  0.34907  0.52469  0.10720  1.0000
  N   N14       1.0  0.84907  0.47531  0.89280  1.0000
  N   N15       1.0  0.39483  0.08402  0.58485  1.0000
  N   N16       1.0  0.89483  0.91598  0.41514  1.0000
  O   O1        1.0  0.30733  0.58501  0.93592  1.0000
  O   O2        1.0  0.80733  0.41499  0.06408  1.0000
  O   O3        1.0  0.54933  0.55479  0.89593  1.0000
  O   O4        1.0  0.04933  0.44521  0.10407  1.0000
  O   O5        1.0  0.34889  0.05659  0.40195  1.0000
  O   O6        1.0  0.84889  0.94341  0.59804  1.0000
  O   O7        1.0  0.49737  0.67704  0.17989  1.0000
  O   O8        1.0  0.99737  0.32296  0.82011  1.0000
  O   O9        1.0  0.59032  0.00295  0.37011  1.0000
  O   O10       1.0  0.09031  0.99705  0.62989  1.0000
  O   O11       1.0  0.51413  0.26191  0.55728  1.0000
  O   O12       1.0  0.01413  0.73809  0.44272  1.0000
