data_image0
_chemical_formula_structural       H24Pb2C40N4O8
_chemical_formula_sum              "H24 Pb2 C40 N4 O8"
_cell_length_a       7.51467
_cell_length_b       9.82764
_cell_length_c       13.1605
_cell_angle_alpha    69.3684
_cell_angle_beta     80.7482
_cell_angle_gamma    72.0003

_space_group_name_H-M_alt    "P 1"
_space_group_IT_number       1

loop_
  _space_group_symop_operation_xyz
  'x, y, z'

loop_
  _atom_site_type_symbol
  _atom_site_label
  _atom_site_symmetry_multiplicity
  _atom_site_fract_x
  _atom_site_fract_y
  _atom_site_fract_z
  _atom_site_occupancy
  H   H1        1.0  0.81643  0.72926  0.17610  1.0000
  H   H2        1.0  0.18361  0.27073  0.82390  1.0000
  H   H3        1.0  0.61404  0.36853  0.17557  1.0000
  H   H4        1.0  0.38585  0.63154  0.82443  1.0000
  H   H5        1.0  0.39539  0.96697  0.32836  1.0000
  H   H6        1.0  0.60470  0.03296  0.67167  1.0000
  H   H7        1.0  0.15167  0.23968  0.01803  1.0000
  H   H8        1.0  0.84829  0.76041  0.98191  1.0000
  H   H9        1.0  0.58797  0.60209  0.30355  1.0000
  H   H10       1.0  0.41207  0.39790  0.69645  1.0000
  H   H11       1.0  0.48025  0.06812  0.04736  1.0000
  H   H12       1.0  0.51965  0.93197  0.95256  1.0000
  H   H13       1.0  0.06531  0.47791  0.06466  1.0000
  H   H14       1.0  0.93460  0.52212  0.93535  1.0000
  H   H15       1.0  0.58884  0.56362  0.50485  1.0000
  H   H16       1.0  0.41122  0.43636  0.49516  1.0000
  H   H17       1.0  0.94020  0.69252  0.71148  1.0000
  H   H18       1.0  0.05987  0.30743  0.28853  1.0000
  H   H19       1.0  0.41651  0.93813  0.52400  1.0000
  H   H20       1.0  0.58355  0.06179  0.47604  1.0000
  H   H21       1.0  0.19734  0.81916  0.66570  1.0000
  H   H22       1.0  0.80267  0.18077  0.33433  1.0000
  H   H23       1.0  0.71782  0.59718  0.65178  1.0000
  H   H24       1.0  0.28225  0.40276  0.34822  1.0000
  Pb  Pb1       1.0  0.14375  0.89692  0.15169  1.0000
  Pb  Pb2       1.0  0.85625  0.10309  0.84835  1.0000
  C   C1        1.0  0.51313  0.33971  0.14159  1.0000
  C   C2        1.0  0.48678  0.66033  0.85841  1.0000
  C   C3        1.0  0.76117  0.10520  0.13040  1.0000
  C   C4        1.0  0.23879  0.89485  0.86959  1.0000
  C   C5        1.0  0.56584  0.20695  0.11397  1.0000
  C   C6        1.0  0.43412  0.79308  0.88603  1.0000
  C   C7        1.0  0.06687  0.79336  0.43681  1.0000
  C   C8        1.0  0.93316  0.20661  0.56320  1.0000
  C   C9        1.0  0.93580  0.74000  0.40194  1.0000
  C   C10       1.0  0.06423  0.25998  0.59806  1.0000
  C   C11       1.0  0.33380  0.43816  0.12134  1.0000
  C   C12       1.0  0.66611  0.56189  0.87865  1.0000
  C   C13       1.0  0.20475  0.40022  0.07772  1.0000
  C   C14       1.0  0.79517  0.59982  0.92227  1.0000
  C   C15       1.0  0.81196  0.71009  0.26301  1.0000
  C   C16       1.0  0.18806  0.28990  0.73698  1.0000
  C   C17       1.0  0.43602  0.17163  0.06874  1.0000
  C   C18       1.0  0.56393  0.82844  0.93122  1.0000
  C   C19       1.0  0.81134  0.66899  0.48119  1.0000
  C   C20       1.0  0.18869  0.33100  0.51881  1.0000
  C   C21       1.0  0.06687  0.77435  0.54920  1.0000
  C   C22       1.0  0.93317  0.22561  0.45081  1.0000
  C   C23       1.0  0.19608  0.82829  0.58050  1.0000
  C   C24       1.0  0.80393  0.17166  0.41951  1.0000
  C   C25       1.0  0.30431  0.91181  0.39250  1.0000
  C   C26       1.0  0.69578  0.08810  0.60752  1.0000
  C   C27       1.0  0.25450  0.26690  0.05196  1.0000
  C   C28       1.0  0.74544  0.73315  0.94802  1.0000
  C   C29       1.0  0.68485  0.63782  0.33552  1.0000
  C   C30       1.0  0.31520  0.36217  0.66449  1.0000
  C   C31       1.0  0.31521  0.89646  0.50178  1.0000
  C   C32       1.0  0.68484  0.10347  0.49825  1.0000
  C   C33       1.0  0.68538  0.61758  0.44483  1.0000
  C   C34       1.0  0.31466  0.38239  0.55517  1.0000
  C   C35       1.0  0.93795  0.70391  0.62615  1.0000
  C   C36       1.0  0.06207  0.29605  0.37386  1.0000
  C   C37       1.0  0.81492  0.65267  0.59337  1.0000
  C   C38       1.0  0.18509  0.34731  0.40663  1.0000
  C   C39       1.0  0.27794  0.58633  0.14281  1.0000
  C   C40       1.0  0.72201  0.41372  0.85718  1.0000
  N   N1        1.0  0.93312  0.75922  0.29490  1.0000
  N   N2        1.0  0.06693  0.24076  0.70510  1.0000
  N   N3        1.0  0.18462  0.86148  0.36101  1.0000
  N   N4        1.0  0.81544  0.13848  0.63901  1.0000
  O   O1        1.0  0.81829  0.00549  0.08103  1.0000
  O   O2        1.0  0.18172  0.99456  0.91896  1.0000
  O   O3        1.0  0.86256  0.11888  0.19240  1.0000
  O   O4        1.0  0.13739  0.88117  0.80760  1.0000
  O   O5        1.0  0.13594  0.68708  0.09401  1.0000
  O   O6        1.0  0.86403  0.31298  0.90596  1.0000
  O   O7        1.0  0.36975  0.60672  0.20670  1.0000
  O   O8        1.0  0.63020  0.39331  0.79329  1.0000
