data_image0
_chemical_formula_structural       Zn4H32C32Cl8O4
_chemical_formula_sum              "Zn4 H32 C32 Cl8 O4"
_cell_length_a       6.3547
_cell_length_b       7.16311
_cell_length_c       20.8436
_cell_angle_alpha    90.0002
_cell_angle_beta     89.9998
_cell_angle_gamma    90.0008

_space_group_name_H-M_alt    "P 1"
_space_group_IT_number       1

loop_
  _space_group_symop_operation_xyz
  'x, y, z'

loop_
  _atom_site_type_symbol
  _atom_site_label
  _atom_site_symmetry_multiplicity
  _atom_site_fract_x
  _atom_site_fract_y
  _atom_site_fract_z
  _atom_site_occupancy
  Zn  Zn1       1.0  0.33236  0.37262  0.74279  1.0000
  Zn  Zn2       1.0  0.83237  0.62739  0.25721  1.0000
  Zn  Zn3       1.0  0.33238  0.87261  0.75721  1.0000
  Zn  Zn4       1.0  0.83238  0.12738  0.24279  1.0000
  H   H1        1.0  0.79614  0.38528  0.52577  1.0000
  H   H2        1.0  0.29612  0.61475  0.47424  1.0000
  H   H3        1.0  0.79615  0.88523  0.97422  1.0000
  H   H4        1.0  0.29613  0.11472  0.02576  1.0000
  H   H5        1.0  0.81497  0.28317  0.41174  1.0000
  H   H6        1.0  0.31499  0.71687  0.58827  1.0000
  H   H7        1.0  0.81494  0.78313  0.08826  1.0000
  H   H8        1.0  0.31496  0.21686  0.91173  1.0000
  H   H9        1.0  0.13924  0.13429  0.37017  1.0000
  H   H10       1.0  0.63926  0.86576  0.62983  1.0000
  H   H11       1.0  0.13922  0.63421  0.12983  1.0000
  H   H12       1.0  0.63925  0.36571  0.87016  1.0000
  H   H13       1.0  0.44666  0.08533  0.44139  1.0000
  H   H14       1.0  0.94665  0.91473  0.55860  1.0000
  H   H15       1.0  0.44662  0.58525  0.05860  1.0000
  H   H16       1.0  0.94667  0.41466  0.94139  1.0000
  H   H17       1.0  0.42903  0.18545  0.55625  1.0000
  H   H18       1.0  0.92904  0.81457  0.44375  1.0000
  H   H19       1.0  0.42903  0.68541  0.94374  1.0000
  H   H20       1.0  0.92906  0.31450  0.05624  1.0000
  H   H21       1.0  0.77944  0.29420  0.63652  1.0000
  H   H22       1.0  0.27944  0.70581  0.36348  1.0000
  H   H23       1.0  0.77944  0.79418  0.86347  1.0000
  H   H24       1.0  0.27947  0.20581  0.13652  1.0000
  H   H25       1.0  0.84657  0.53195  0.62583  1.0000
  H   H26       1.0  0.34656  0.46807  0.37416  1.0000
  H   H27       1.0  0.84660  0.03191  0.87416  1.0000
  H   H28       1.0  0.34656  0.96807  0.12584  1.0000
  H   H29       1.0  0.91785  0.41750  0.69829  1.0000
  H   H30       1.0  0.41785  0.58256  0.30170  1.0000
  H   H31       1.0  0.91783  0.91745  0.80171  1.0000
  H   H32       1.0  0.41786  0.08255  0.19830  1.0000
  C   C1        1.0  0.10480  0.34594  0.61661  1.0000
  C   C2        1.0  0.60480  0.65408  0.38339  1.0000
  C   C3        1.0  0.10480  0.84594  0.88339  1.0000
  C   C4        1.0  0.60481  0.15403  0.11661  1.0000
  C   C5        1.0  0.11284  0.29196  0.54847  1.0000
  C   C6        1.0  0.61282  0.70804  0.45153  1.0000
  C   C7        1.0  0.11286  0.79199  0.95154  1.0000
  C   C8        1.0  0.61285  0.20802  0.04847  1.0000
  C   C9        1.0  0.93903  0.31974  0.50761  1.0000
  C   C10       1.0  0.43901  0.68028  0.49240  1.0000
  C   C11       1.0  0.93903  0.81973  0.99240  1.0000
  C   C12       1.0  0.43902  0.18027  0.00760  1.0000
  C   C13       1.0  0.94916  0.26412  0.44364  1.0000
  C   C14       1.0  0.44912  0.73596  0.55636  1.0000
  C   C15       1.0  0.94911  0.76404  0.05636  1.0000
  C   C16       1.0  0.44917  0.23590  0.94364  1.0000
  C   C17       1.0  0.13165  0.17911  0.42011  1.0000
  C   C18       1.0  0.63163  0.82091  0.57989  1.0000
  C   C19       1.0  0.13163  0.67909  0.07989  1.0000
  C   C20       1.0  0.63165  0.32089  0.92011  1.0000
  C   C21       1.0  0.30528  0.15132  0.46035  1.0000
  C   C22       1.0  0.80529  0.84871  0.53966  1.0000
  C   C23       1.0  0.30528  0.65130  0.03966  1.0000
  C   C24       1.0  0.80527  0.34866  0.96034  1.0000
  C   C25       1.0  0.29652  0.20816  0.52406  1.0000
  C   C26       1.0  0.79652  0.79182  0.47594  1.0000
  C   C27       1.0  0.29655  0.70821  0.97594  1.0000
  C   C28       1.0  0.79655  0.29181  0.02405  1.0000
  C   C29       1.0  0.90115  0.39906  0.64649  1.0000
  C   C30       1.0  0.40117  0.60097  0.35351  1.0000
  C   C31       1.0  0.90115  0.89902  0.85351  1.0000
  C   C32       1.0  0.40117  0.10096  0.14649  1.0000
  Cl  Cl1       1.0  0.07770  0.38123  0.81383  1.0000
  Cl  Cl2       1.0  0.57771  0.61872  0.18617  1.0000
  Cl  Cl3       1.0  0.07769  0.88127  0.68617  1.0000
  Cl  Cl4       1.0  0.57770  0.11872  0.31383  1.0000
  Cl  Cl5       1.0  0.55999  0.62255  0.74762  1.0000
  Cl  Cl6       1.0  0.05999  0.37745  0.25238  1.0000
  Cl  Cl7       1.0  0.55998  0.12257  0.75238  1.0000
  Cl  Cl8       1.0  0.06000  0.87744  0.24762  1.0000
  O   O1        1.0  0.27417  0.34685  0.64787  1.0000
  O   O2        1.0  0.77418  0.65316  0.35213  1.0000
  O   O3        1.0  0.27419  0.84685  0.85213  1.0000
  O   O4        1.0  0.77419  0.15318  0.14787  1.0000
