data_image0
_chemical_formula_structural       Cu4H20C20N12O24
_chemical_formula_sum              "Cu4 H20 C20 N12 O24"
_cell_length_a       6.34185
_cell_length_b       10.9427
_cell_length_c       13.3093
_cell_angle_alpha    101.411
_cell_angle_beta     90.0035
_cell_angle_gamma    106.862

_space_group_name_H-M_alt    "P 1"
_space_group_IT_number       1

loop_
  _space_group_symop_operation_xyz
  'x, y, z'

loop_
  _atom_site_type_symbol
  _atom_site_label
  _atom_site_symmetry_multiplicity
  _atom_site_fract_x
  _atom_site_fract_y
  _atom_site_fract_z
  _atom_site_occupancy
  Cu  Cu1       1.0  0.56486  0.27459  0.15197  1.0000
  Cu  Cu2       1.0  0.28989  0.72527  0.34802  1.0000
  Cu  Cu3       1.0  0.43518  0.72537  0.84801  1.0000
  Cu  Cu4       1.0  0.71015  0.27476  0.65200  1.0000
  H   H1        1.0  0.99469  0.34237  0.84623  1.0000
  H   H2        1.0  0.65145  0.65758  0.65386  1.0000
  H   H3        1.0  0.00530  0.65763  0.15376  1.0000
  H   H4        1.0  0.34858  0.34242  0.34614  1.0000
  H   H5        1.0  0.31997  0.17713  0.76697  1.0000
  H   H6        1.0  0.14255  0.82322  0.73301  1.0000
  H   H7        1.0  0.68004  0.82288  0.23304  1.0000
  H   H8        1.0  0.85746  0.17676  0.26699  1.0000
  H   H9        1.0  0.24871  0.17349  0.95338  1.0000
  H   H10       1.0  0.07482  0.82658  0.54651  1.0000
  H   H11       1.0  0.75128  0.82651  0.04663  1.0000
  H   H12       1.0  0.92518  0.17343  0.45350  1.0000
  H   H13       1.0  0.51961  0.52887  0.23817  1.0000
  H   H14       1.0  0.99027  0.47114  0.26195  1.0000
  H   H15       1.0  0.48040  0.47114  0.76181  1.0000
  H   H16       1.0  0.00974  0.52886  0.73805  1.0000
  H   H17       1.0  0.37314  0.45713  0.13209  1.0000
  H   H18       1.0  0.91559  0.54291  0.36806  1.0000
  H   H19       1.0  0.62689  0.54288  0.86790  1.0000
  H   H20       1.0  0.08443  0.45708  0.63193  1.0000
  C   C1        1.0  0.96344  0.35934  0.05843  1.0000
  C   C2        1.0  0.60379  0.64080  0.44175  1.0000
  C   C3        1.0  0.03655  0.64066  0.94156  1.0000
  C   C4        1.0  0.39619  0.35920  0.55825  1.0000
  C   C5        1.0  0.78748  0.30336  0.97244  1.0000
  C   C6        1.0  0.48343  0.69662  0.52762  1.0000
  C   C7        1.0  0.21252  0.69664  0.02757  1.0000
  C   C8        1.0  0.51656  0.30337  0.47237  1.0000
  C   C9        1.0  0.82795  0.30408  0.86980  1.0000
  C   C10       1.0  0.52310  0.69592  0.63027  1.0000
  C   C11       1.0  0.17205  0.69591  0.13019  1.0000
  C   C12       1.0  0.47693  0.30408  0.36973  1.0000
  C   C13       1.0  0.45415  0.21322  0.82645  1.0000
  C   C14       1.0  0.24057  0.78706  0.67354  1.0000
  C   C15       1.0  0.54586  0.78678  0.17357  1.0000
  C   C16       1.0  0.75946  0.21294  0.32645  1.0000
  C   C17       1.0  0.41433  0.21151  0.92923  1.0000
  C   C18       1.0  0.20236  0.78861  0.57071  1.0000
  C   C19       1.0  0.58565  0.78849  0.07078  1.0000
  C   C20       1.0  0.79762  0.21139  0.42928  1.0000
  N   N1        1.0  0.58105  0.25760  0.00084  1.0000
  N   N2        1.0  0.32294  0.74242  0.49915  1.0000
  N   N3        1.0  0.41894  0.74241  0.99916  1.0000
  N   N4        1.0  0.67704  0.25757  0.50085  1.0000
  N   N5        1.0  0.66014  0.26083  0.79794  1.0000
  N   N6        1.0  0.39880  0.73938  0.70209  1.0000
  N   N7        1.0  0.33985  0.73916  0.20206  1.0000
  N   N8        1.0  0.60125  0.26063  0.29790  1.0000
  N   N9        1.0  0.22233  0.04858  0.13262  1.0000
  N   N10       1.0  0.17321  0.95111  0.36739  1.0000
  N   N11       1.0  0.77766  0.95144  0.86739  1.0000
  N   N12       1.0  0.82675  0.04887  0.63261  1.0000
  O   O1        1.0  0.89300  0.35148  0.14888  1.0000
  O   O2        1.0  0.54135  0.64861  0.35125  1.0000
  O   O3        1.0  0.10700  0.64853  0.85113  1.0000
  O   O4        1.0  0.45861  0.35138  0.64874  1.0000
  O   O5        1.0  0.15773  0.41101  0.03943  1.0000
  O   O6        1.0  0.74651  0.58934  0.46088  1.0000
  O   O7        1.0  0.84230  0.58899  0.96056  1.0000
  O   O8        1.0  0.25349  0.41067  0.53911  1.0000
  O   O9        1.0  0.24414  0.17460  0.14518  1.0000
  O   O10       1.0  0.06908  0.82509  0.35474  1.0000
  O   O11       1.0  0.75587  0.82539  0.85484  1.0000
  O   O12       1.0  0.93093  0.17492  0.64526  1.0000
  O   O13       1.0  0.03239  0.97375  0.13121  1.0000
  O   O14       1.0  0.05801  0.02586  0.36906  1.0000
  O   O15       1.0  0.96762  0.02628  0.86882  1.0000
  O   O16       1.0  0.94196  0.97412  0.63094  1.0000
  O   O17       1.0  0.39208  0.01233  0.12304  1.0000
  O   O18       1.0  0.37926  0.98744  0.37682  1.0000
  O   O19       1.0  0.60787  0.98767  0.87696  1.0000
  O   O20       1.0  0.62069  0.01256  0.62318  1.0000
  O   O21       1.0  0.51194  0.46751  0.17205  1.0000
  O   O22       1.0  0.04393  0.53249  0.32809  1.0000
  O   O23       1.0  0.48809  0.53250  0.82794  1.0000
  O   O24       1.0  0.95609  0.46749  0.67191  1.0000
