data_image0
_chemical_formula_structural       Zn2H44C64N8O8
_chemical_formula_sum              "Zn2 H44 C64 N8 O8"
_cell_length_a       7.61067
_cell_length_b       11.5126
_cell_length_c       15.9969
_cell_angle_alpha    90
_cell_angle_beta     90
_cell_angle_gamma    109.302

_space_group_name_H-M_alt    "P 1"
_space_group_IT_number       1

loop_
  _space_group_symop_operation_xyz
  'x, y, z'

loop_
  _atom_site_type_symbol
  _atom_site_label
  _atom_site_symmetry_multiplicity
  _atom_site_fract_x
  _atom_site_fract_y
  _atom_site_fract_z
  _atom_site_occupancy
  Zn  Zn1       1.0  0.64993  0.00003  0.49998  1.0000
  Zn  Zn2       1.0  0.14993  0.00003  0.00002  1.0000
  H   H1        1.0  0.24109  0.64178  0.47099  1.0000
  H   H2        1.0  0.59930  0.35825  0.52899  1.0000
  H   H3        1.0  0.74109  0.64178  0.02901  1.0000
  H   H4        1.0  0.09931  0.35825  0.97101  1.0000
  H   H5        1.0  0.93932  0.47362  0.45322  1.0000
  H   H6        1.0  0.46564  0.52638  0.54670  1.0000
  H   H7        1.0  0.43932  0.47362  0.04677  1.0000
  H   H8        1.0  0.96564  0.52638  0.95330  1.0000
  H   H9        1.0  0.76526  0.69736  0.27681  1.0000
  H   H10       1.0  0.06799  0.30270  0.72323  1.0000
  H   H11       1.0  0.26526  0.69736  0.22319  1.0000
  H   H12       1.0  0.56799  0.30270  0.77677  1.0000
  H   H13       1.0  0.06922  0.86371  0.29478  1.0000
  H   H14       1.0  0.20549  0.13626  0.70521  1.0000
  H   H15       1.0  0.56922  0.86371  0.20522  1.0000
  H   H16       1.0  0.70549  0.13626  0.79479  1.0000
  H   H17       1.0  0.76068  0.32534  0.36075  1.0000
  H   H18       1.0  0.43544  0.67478  0.63935  1.0000
  H   H19       1.0  0.26068  0.32534  0.13925  1.0000
  H   H20       1.0  0.93544  0.67478  0.86065  1.0000
  H   H21       1.0  0.45151  0.16045  0.36576  1.0000
  H   H22       1.0  0.29115  0.83960  0.63419  1.0000
  H   H23       1.0  0.95151  0.16045  0.13424  1.0000
  H   H24       1.0  0.79115  0.83960  0.86581  1.0000
  H   H25       1.0  0.18231  0.43548  0.35139  1.0000
  H   H26       1.0  0.74678  0.56448  0.64864  1.0000
  H   H27       1.0  0.68231  0.43548  0.14861  1.0000
  H   H28       1.0  0.24678  0.56448  0.85136  1.0000
  H   H29       1.0  0.48960  0.60068  0.35230  1.0000
  H   H30       1.0  0.88899  0.39930  0.64771  1.0000
  H   H31       1.0  0.98960  0.60068  0.14770  1.0000
  H   H32       1.0  0.38899  0.39930  0.85229  1.0000
  H   H33       1.0  0.03117  0.23501  0.48619  1.0000
  H   H34       1.0  0.79603  0.76497  0.51371  1.0000
  H   H35       1.0  0.53117  0.23501  0.01380  1.0000
  H   H36       1.0  0.29603  0.76497  0.98629  1.0000
  H   H37       1.0  0.77528  0.95257  0.31286  1.0000
  H   H38       1.0  0.82268  0.04738  0.68713  1.0000
  H   H39       1.0  0.27528  0.95257  0.18713  1.0000
  H   H40       1.0  0.32268  0.04738  0.81287  1.0000
  H   H41       1.0  0.11595  0.09727  0.24919  1.0000
  H   H42       1.0  0.01869  0.90266  0.75075  1.0000
  H   H43       1.0  0.61595  0.09727  0.25081  1.0000
  H   H44       1.0  0.51869  0.90266  0.74925  1.0000
  C   C1        1.0  0.35341  0.86743  0.39719  1.0000
  C   C2        1.0  0.48590  0.13254  0.60276  1.0000
  C   C3        1.0  0.85341  0.86743  0.10281  1.0000
  C   C4        1.0  0.98590  0.13254  0.89724  1.0000
  C   C5        1.0  0.17501  0.76292  0.38349  1.0000
  C   C6        1.0  0.41180  0.23696  0.61637  1.0000
  C   C7        1.0  0.67501  0.76292  0.11651  1.0000
  C   C8        1.0  0.91180  0.23696  0.88363  1.0000
  C   C9        1.0  0.13765  0.65205  0.42729  1.0000
  C   C10       1.0  0.48548  0.34794  0.57263  1.0000
  C   C11       1.0  0.63765  0.65205  0.07271  1.0000
  C   C12       1.0  0.98547  0.34794  0.92737  1.0000
  C   C13       1.0  0.96837  0.55813  0.41695  1.0000
  C   C14       1.0  0.41022  0.44188  0.58301  1.0000
  C   C15       1.0  0.46837  0.55813  0.08305  1.0000
  C   C16       1.0  0.91022  0.44188  0.91699  1.0000
  C   C17       1.0  0.83035  0.57300  0.36364  1.0000
  C   C18       1.0  0.25730  0.42702  0.63633  1.0000
  C   C19       1.0  0.33035  0.57300  0.13636  1.0000
  C   C20       1.0  0.75730  0.42702  0.86367  1.0000
  C   C21       1.0  0.86901  0.68434  0.31948  1.0000
  C   C22       1.0  0.18470  0.31567  0.68054  1.0000
  C   C23       1.0  0.36901  0.68434  0.18052  1.0000
  C   C24       1.0  0.68470  0.31567  0.81946  1.0000
  C   C25       1.0  0.03970  0.77740  0.32877  1.0000
  C   C26       1.0  0.26227  0.22257  0.67122  1.0000
  C   C27       1.0  0.53970  0.77740  0.17123  1.0000
  C   C28       1.0  0.76227  0.22257  0.82878  1.0000
  C   C29       1.0  0.64774  0.47496  0.35751  1.0000
  C   C30       1.0  0.17282  0.52505  0.64243  1.0000
  C   C31       1.0  0.14774  0.47496  0.14249  1.0000
  C   C32       1.0  0.67282  0.52505  0.85757  1.0000
  C   C33       1.0  0.63431  0.35019  0.35935  1.0000
  C   C34       1.0  0.28423  0.64989  0.64069  1.0000
  C   C35       1.0  0.13432  0.35019  0.14065  1.0000
  C   C36       1.0  0.78423  0.64989  0.85931  1.0000
  C   C37       1.0  0.46216  0.25709  0.36100  1.0000
  C   C38       1.0  0.20511  0.74295  0.63910  1.0000
  C   C39       1.0  0.96216  0.25709  0.13900  1.0000
  C   C40       1.0  0.70511  0.74295  0.86090  1.0000
  C   C41       1.0  0.30114  0.28955  0.35942  1.0000
  C   C42       1.0  0.01157  0.71045  0.64060  1.0000
  C   C43       1.0  0.80114  0.28955  0.14058  1.0000
  C   C44       1.0  0.51157  0.71045  0.85940  1.0000
  C   C45       1.0  0.30988  0.41231  0.35419  1.0000
  C   C46       1.0  0.89756  0.58768  0.64590  1.0000
  C   C47       1.0  0.80988  0.41231  0.14581  1.0000
  C   C48       1.0  0.39756  0.58768  0.85410  1.0000
  C   C49       1.0  0.48288  0.50458  0.35363  1.0000
  C   C50       1.0  0.97829  0.49543  0.64641  1.0000
  C   C51       1.0  0.98288  0.50458  0.14637  1.0000
  C   C52       1.0  0.47829  0.49543  0.85359  1.0000
  C   C53       1.0  0.00329  0.17768  0.43067  1.0000
  C   C54       1.0  0.82541  0.82225  0.56927  1.0000
  C   C55       1.0  0.50329  0.17768  0.06933  1.0000
  C   C56       1.0  0.32541  0.82225  0.93073  1.0000
  C   C57       1.0  0.87859  0.03254  0.33958  1.0000
  C   C58       1.0  0.84608  0.96743  0.66037  1.0000
  C   C59       1.0  0.37859  0.03254  0.16042  1.0000
  C   C60       1.0  0.34608  0.96743  0.83963  1.0000
  C   C61       1.0  0.04686  0.10331  0.30726  1.0000
  C   C62       1.0  0.94363  0.89668  0.69267  1.0000
  C   C63       1.0  0.54686  0.10331  0.19274  1.0000
  C   C64       1.0  0.44363  0.89668  0.80733  1.0000
  N   N1        1.0  0.12374  0.19496  0.36532  1.0000
  N   N2        1.0  0.92881  0.80504  0.63458  1.0000
  N   N3        1.0  0.62374  0.19496  0.13468  1.0000
  N   N4        1.0  0.42881  0.80504  0.86542  1.0000
  N   N5        1.0  0.85366  0.07946  0.41644  1.0000
  N   N6        1.0  0.77399  0.92046  0.58356  1.0000
  N   N7        1.0  0.35366  0.07946  0.08356  1.0000
  N   N8        1.0  0.27399  0.92046  0.91644  1.0000
  O   O1        1.0  0.45190  0.85345  0.46054  1.0000
  O   O2        1.0  0.59876  0.14664  0.53953  1.0000
  O   O3        1.0  0.95190  0.85345  0.03946  1.0000
  O   O4        1.0  0.09876  0.14664  0.96047  1.0000
  O   O5        1.0  0.39580  0.95962  0.35042  1.0000
  O   O6        1.0  0.43640  0.04043  0.64963  1.0000
  O   O7        1.0  0.89580  0.95962  0.14958  1.0000
  O   O8        1.0  0.93640  0.04043  0.85037  1.0000
