data_image0
_chemical_formula_structural       Cd2H32C38N2O8
_chemical_formula_sum              "Cd2 H32 C38 N2 O8"
_cell_length_a       6.08775
_cell_length_b       9.91258
_cell_length_c       15.3398
_cell_angle_alpha    93.96
_cell_angle_beta     102.813
_cell_angle_gamma    107.662

_space_group_name_H-M_alt    "P 1"
_space_group_IT_number       1

loop_
  _space_group_symop_operation_xyz
  'x, y, z'

loop_
  _atom_site_type_symbol
  _atom_site_label
  _atom_site_symmetry_multiplicity
  _atom_site_fract_x
  _atom_site_fract_y
  _atom_site_fract_z
  _atom_site_occupancy
  Cd  Cd1       1.0  0.91676  0.83740  0.57840  1.0000
  Cd  Cd2       1.0  0.08323  0.16258  0.42160  1.0000
  H   H1        1.0  0.29035  0.79069  0.81030  1.0000
  H   H2        1.0  0.70962  0.20931  0.18969  1.0000
  H   H3        1.0  0.94186  0.61182  0.84172  1.0000
  H   H4        1.0  0.05812  0.38818  0.15827  1.0000
  H   H5        1.0  0.86596  0.35233  0.80110  1.0000
  H   H6        1.0  0.13406  0.64766  0.19889  1.0000
  H   H7        1.0  0.12205  0.27065  0.71704  1.0000
  H   H8        1.0  0.87798  0.72936  0.28296  1.0000
  H   H9        1.0  0.45833  0.44936  0.67929  1.0000
  H   H10       1.0  0.54170  0.55065  0.32072  1.0000
  H   H11       1.0  0.70760  0.85951  0.85157  1.0000
  H   H12       1.0  0.29240  0.14051  0.14843  1.0000
  H   H13       1.0  0.42165  0.12092  0.82210  1.0000
  H   H14       1.0  0.57836  0.87911  0.17791  1.0000
  H   H15       1.0  0.64713  0.32140  0.94867  1.0000
  H   H16       1.0  0.35284  0.67866  0.05133  1.0000
  H   H17       1.0  0.43762  0.39604  0.05563  1.0000
  H   H18       1.0  0.56232  0.60402  0.94435  1.0000
  H   H19       1.0  0.00435  0.26597  0.03675  1.0000
  H   H20       1.0  0.99558  0.73405  0.96322  1.0000
  H   H21       1.0  0.78506  0.06576  0.91383  1.0000
  H   H22       1.0  0.21493  0.93425  0.08615  1.0000
  H   H23       1.0  0.28713  0.72985  0.49496  1.0000
  H   H24       1.0  0.71285  0.27008  0.50506  1.0000
  H   H25       1.0  0.68734  0.50175  0.57496  1.0000
  H   H26       1.0  0.31260  0.49817  0.42504  1.0000
  H   H27       1.0  0.49054  0.00226  0.30906  1.0000
  H   H28       1.0  0.50952  0.99776  0.69097  1.0000
  H   H29       1.0  0.27500  0.90646  0.36351  1.0000
  H   H30       1.0  0.72501  0.09354  0.63650  1.0000
  H   H31       1.0  0.39173  0.80974  0.29438  1.0000
  H   H32       1.0  0.60830  0.19027  0.70561  1.0000
  C   C1        1.0  0.25532  0.67673  0.79083  1.0000
  C   C2        1.0  0.74467  0.32327  0.20916  1.0000
  C   C3        1.0  0.06033  0.57616  0.80901  1.0000
  C   C4        1.0  0.93966  0.42384  0.19098  1.0000
  C   C5        1.0  0.01417  0.43018  0.78410  1.0000
  C   C6        1.0  0.98584  0.56982  0.21589  1.0000
  C   C7        1.0  0.15777  0.38435  0.73745  1.0000
  C   C8        1.0  0.84226  0.61566  0.26256  1.0000
  C   C9        1.0  0.34833  0.48468  0.71685  1.0000
  C   C10       1.0  0.65172  0.51533  0.28316  1.0000
  C   C11       1.0  0.40199  0.63154  0.74494  1.0000
  C   C12       1.0  0.59803  0.36848  0.25506  1.0000
  C   C13       1.0  0.60960  0.73522  0.72202  1.0000
  C   C14       1.0  0.39041  0.26478  0.27798  1.0000
  C   C15       1.0  0.75522  0.85452  0.78751  1.0000
  C   C16       1.0  0.24480  0.14549  0.21249  1.0000
  C   C17       1.0  0.96089  0.96266  0.78090  1.0000
  C   C18       1.0  0.03915  0.03735  0.21909  1.0000
  C   C19       1.0  0.09004  0.07848  0.85975  1.0000
  C   C20       1.0  0.90998  0.92153  0.14026  1.0000
  C   C21       1.0  0.33347  0.15258  0.87059  1.0000
  C   C22       1.0  0.66653  0.84746  0.12941  1.0000
  C   C23       1.0  0.45799  0.26520  0.94091  1.0000
  C   C24       1.0  0.54200  0.73484  0.05909  1.0000
  C   C25       1.0  0.34042  0.30739  0.00092  1.0000
  C   C26       1.0  0.65956  0.69265  0.99907  1.0000
  C   C27       1.0  0.09827  0.23451  0.99043  1.0000
  C   C28       1.0  0.90171  0.76551  0.00955  1.0000
  C   C29       1.0  0.97422  0.12033  0.92106  1.0000
  C   C30       1.0  0.02577  0.87969  0.07893  1.0000
  C   C31       1.0  0.15871  0.62713  0.49701  1.0000
  C   C32       1.0  0.84126  0.37280  0.50302  1.0000
  C   C33       1.0  0.82686  0.50015  0.54145  1.0000
  C   C34       1.0  0.17310  0.49979  0.45856  1.0000
  C   C35       1.0  0.43583  0.90747  0.34169  1.0000
  C   C36       1.0  0.56421  0.09253  0.65833  1.0000
  C   C37       1.0  0.62397  0.91008  0.42429  1.0000
  C   C38       1.0  0.37603  0.08989  0.57571  1.0000
  N   N1        1.0  0.98569  0.62646  0.53815  1.0000
  N   N2        1.0  0.01427  0.37346  0.46186  1.0000
  O   O1        1.0  0.64018  0.70412  0.64432  1.0000
  O   O2        1.0  0.35985  0.29589  0.35569  1.0000
  O   O3        1.0  0.05379  0.97395  0.71290  1.0000
  O   O4        1.0  0.94625  0.02606  0.28710  1.0000
  O   O5        1.0  0.63115  0.79007  0.44754  1.0000
  O   O6        1.0  0.36882  0.20989  0.55247  1.0000
  O   O7        1.0  0.76315  0.02983  0.47097  1.0000
  O   O8        1.0  0.23690  0.97012  0.52904  1.0000
