data_image0
_chemical_formula_structural       Cd4H40C36N8O24
_chemical_formula_sum              "Cd4 H40 C36 N8 O24"
_cell_length_a       7.31039
_cell_length_b       7.5202
_cell_length_c       29.3496
_cell_angle_alpha    90
_cell_angle_beta     90
_cell_angle_gamma    94.4044

_space_group_name_H-M_alt    "P 1"
_space_group_IT_number       1

loop_
  _space_group_symop_operation_xyz
  'x, y, z'

loop_
  _atom_site_type_symbol
  _atom_site_label
  _atom_site_symmetry_multiplicity
  _atom_site_fract_x
  _atom_site_fract_y
  _atom_site_fract_z
  _atom_site_occupancy
  Cd  Cd1       1.0  0.79165  0.17390  0.78076  1.0000
  Cd  Cd2       1.0  0.70834  0.32610  0.28076  1.0000
  Cd  Cd3       1.0  0.20834  0.82610  0.21924  1.0000
  Cd  Cd4       1.0  0.29166  0.67390  0.71924  1.0000
  H   H1        1.0  0.31566  0.83711  0.97524  1.0000
  H   H2        1.0  0.18433  0.66289  0.47523  1.0000
  H   H3        1.0  0.68433  0.16289  0.02477  1.0000
  H   H4        1.0  0.81567  0.33710  0.52476  1.0000
  H   H5        1.0  0.11938  0.89254  0.00602  1.0000
  H   H6        1.0  0.38062  0.60746  0.50601  1.0000
  H   H7        1.0  0.88062  0.10747  0.99399  1.0000
  H   H8        1.0  0.61939  0.39253  0.49398  1.0000
  H   H9        1.0  0.06695  0.06382  0.73143  1.0000
  H   H10       1.0  0.43304  0.43619  0.23143  1.0000
  H   H11       1.0  0.93304  0.93619  0.26857  1.0000
  H   H12       1.0  0.56696  0.56382  0.76857  1.0000
  H   H13       1.0  0.07749  0.27842  0.73243  1.0000
  H   H14       1.0  0.42250  0.22158  0.23243  1.0000
  H   H15       1.0  0.92251  0.72158  0.26757  1.0000
  H   H16       1.0  0.57749  0.77842  0.76757  1.0000
  H   H17       1.0  0.54125  0.18757  0.64077  1.0000
  H   H18       1.0  0.95875  0.31243  0.14077  1.0000
  H   H19       1.0  0.45875  0.81243  0.35923  1.0000
  H   H20       1.0  0.04125  0.68757  0.85923  1.0000
  H   H21       1.0  0.75431  0.19703  0.67244  1.0000
  H   H22       1.0  0.74569  0.30297  0.17244  1.0000
  H   H23       1.0  0.24569  0.80297  0.32757  1.0000
  H   H24       1.0  0.25431  0.69703  0.82756  1.0000
  H   H25       1.0  0.36058  0.23500  0.80270  1.0000
  H   H26       1.0  0.13942  0.26500  0.30269  1.0000
  H   H27       1.0  0.63943  0.76500  0.19730  1.0000
  H   H28       1.0  0.86058  0.73500  0.69730  1.0000
  H   H29       1.0  0.12838  0.18821  0.86545  1.0000
  H   H30       1.0  0.37161  0.31180  0.36544  1.0000
  H   H31       1.0  0.87161  0.81180  0.13456  1.0000
  H   H32       1.0  0.62840  0.68820  0.63455  1.0000
  H   H33       1.0  0.55594  0.97830  0.94705  1.0000
  H   H34       1.0  0.94405  0.52169  0.44705  1.0000
  H   H35       1.0  0.44405  0.02170  0.05296  1.0000
  H   H36       1.0  0.05596  0.47829  0.55295  1.0000
  H   H37       1.0  0.76791  0.03624  0.88182  1.0000
  H   H38       1.0  0.73208  0.46375  0.38182  1.0000
  H   H39       1.0  0.23209  0.96375  0.11818  1.0000
  H   H40       1.0  0.26792  0.53624  0.61818  1.0000
  C   C1        1.0  0.54729  0.00732  0.69753  1.0000
  C   C2        1.0  0.95271  0.49268  0.19753  1.0000
  C   C3        1.0  0.45271  0.99268  0.30247  1.0000
  C   C4        1.0  0.04729  0.50732  0.80247  1.0000
  C   C5        1.0  0.60341  0.18544  0.67462  1.0000
  C   C6        1.0  0.89659  0.31456  0.17462  1.0000
  C   C7        1.0  0.39659  0.81456  0.32538  1.0000
  C   C8        1.0  0.10341  0.68544  0.82538  1.0000
  C   C9        1.0  0.54652  0.34497  0.70209  1.0000
  C   C10       1.0  0.95349  0.15504  0.20209  1.0000
  C   C11       1.0  0.45348  0.65504  0.29791  1.0000
  C   C12       1.0  0.04651  0.84497  0.79791  1.0000
  C   C13       1.0  0.39714  0.17775  0.83530  1.0000
  C   C14       1.0  0.10286  0.32224  0.33529  1.0000
  C   C15       1.0  0.60286  0.82224  0.16471  1.0000
  C   C16       1.0  0.89715  0.67775  0.66470  1.0000
  C   C17       1.0  0.26824  0.15125  0.87007  1.0000
  C   C18       1.0  0.23175  0.34875  0.37006  1.0000
  C   C19       1.0  0.73175  0.84875  0.12994  1.0000
  C   C20       1.0  0.76825  0.65124  0.62993  1.0000
  C   C21       1.0  0.32114  0.07390  0.91088  1.0000
  C   C22       1.0  0.17886  0.42611  0.41088  1.0000
  C   C23       1.0  0.67886  0.92611  0.08912  1.0000
  C   C24       1.0  0.82116  0.57389  0.58912  1.0000
  C   C25       1.0  0.50371  0.03248  0.91557  1.0000
  C   C26       1.0  0.99628  0.46751  0.41556  1.0000
  C   C27       1.0  0.49628  0.96752  0.08444  1.0000
  C   C28       1.0  0.00372  0.53247  0.58443  1.0000
  C   C29       1.0  0.62472  0.06623  0.87943  1.0000
  C   C30       1.0  0.87529  0.43377  0.37942  1.0000
  C   C31       1.0  0.37528  0.93377  0.12058  1.0000
  C   C32       1.0  0.12472  0.56623  0.62057  1.0000
  C   C33       1.0  0.18129  0.04258  0.94818  1.0000
  C   C34       1.0  0.31871  0.45742  0.44818  1.0000
  C   C35       1.0  0.81870  0.95743  0.05182  1.0000
  C   C36       1.0  0.68131  0.54257  0.55182  1.0000
  N   N1        1.0  0.57177  0.13535  0.83977  1.0000
  N   N2        1.0  0.92822  0.36464  0.33976  1.0000
  N   N3        1.0  0.42823  0.86464  0.16024  1.0000
  N   N4        1.0  0.07178  0.63536  0.66024  1.0000
  N   N5        1.0  0.21354  0.91884  0.97984  1.0000
  N   N6        1.0  0.28646  0.58116  0.47984  1.0000
  N   N7        1.0  0.78646  0.08117  0.02016  1.0000
  N   N8        1.0  0.71355  0.41883  0.52016  1.0000
  O   O1        1.0  0.04353  0.13118  0.94924  1.0000
  O   O2        1.0  0.45647  0.36883  0.44923  1.0000
  O   O3        1.0  0.95648  0.86883  0.05077  1.0000
  O   O4        1.0  0.54354  0.63117  0.55076  1.0000
  O   O5        1.0  0.61871  0.97270  0.73602  1.0000
  O   O6        1.0  0.88128  0.52731  0.23602  1.0000
  O   O7        1.0  0.38128  0.02731  0.26398  1.0000
  O   O8        1.0  0.11872  0.47269  0.76398  1.0000
  O   O9        1.0  0.61772  0.37399  0.74159  1.0000
  O   O10       1.0  0.88227  0.12601  0.24159  1.0000
  O   O11       1.0  0.38227  0.62601  0.25841  1.0000
  O   O12       1.0  0.11772  0.87399  0.75841  1.0000
  O   O13       1.0  0.43288  0.44152  0.68373  1.0000
  O   O14       1.0  0.06713  0.05849  0.18374  1.0000
  O   O15       1.0  0.56712  0.55848  0.31627  1.0000
  O   O16       1.0  0.93287  0.94151  0.81626  1.0000
  O   O17       1.0  0.43257  0.90126  0.67680  1.0000
  O   O18       1.0  0.06744  0.59874  0.17680  1.0000
  O   O19       1.0  0.56744  0.09874  0.32320  1.0000
  O   O20       1.0  0.93257  0.40126  0.82320  1.0000
  O   O21       1.0  0.00668  0.17069  0.72037  1.0000
  O   O22       1.0  0.49332  0.32931  0.22037  1.0000
  O   O23       1.0  0.99332  0.82931  0.27963  1.0000
  O   O24       1.0  0.50668  0.67069  0.77963  1.0000
