data_image0
_chemical_formula_structural       Cd2H40C36N8O12
_chemical_formula_sum              "Cd2 H40 C36 N8 O12"
_cell_length_a       8.96361
_cell_length_b       9.79473
_cell_length_c       10.9502
_cell_angle_alpha    99.2665
_cell_angle_beta     89.0148
_cell_angle_gamma    102.311

_space_group_name_H-M_alt    "P 1"
_space_group_IT_number       1

loop_
  _space_group_symop_operation_xyz
  'x, y, z'

loop_
  _atom_site_type_symbol
  _atom_site_label
  _atom_site_symmetry_multiplicity
  _atom_site_fract_x
  _atom_site_fract_y
  _atom_site_fract_z
  _atom_site_occupancy
  Cd  Cd1       1.0  0.65304  0.68572  0.06089  1.0000
  Cd  Cd2       1.0  0.34696  0.31428  0.93911  1.0000
  H   H1        1.0  0.14968  0.06072  0.61768  1.0000
  H   H2        1.0  0.85032  0.93928  0.38232  1.0000
  H   H3        1.0  0.15996  0.88915  0.54318  1.0000
  H   H4        1.0  0.84004  0.11085  0.45682  1.0000
  H   H5        1.0  0.16164  0.27558  0.53044  1.0000
  H   H6        1.0  0.83836  0.72442  0.46956  1.0000
  H   H7        1.0  0.17377  0.37660  0.68034  1.0000
  H   H8        1.0  0.82624  0.62340  0.31966  1.0000
  H   H9        1.0  0.40420  0.87588  0.05074  1.0000
  H   H10       1.0  0.59580  0.12412  0.94925  1.0000
  H   H11       1.0  0.26465  0.02987  0.19205  1.0000
  H   H12       1.0  0.73535  0.97013  0.80795  1.0000
  H   H13       1.0  0.40220  0.84440  0.49382  1.0000
  H   H14       1.0  0.59781  0.15560  0.50618  1.0000
  H   H15       1.0  0.54241  0.70401  0.34002  1.0000
  H   H16       1.0  0.45759  0.29599  0.65998  1.0000
  H   H17       1.0  0.84686  0.44305  0.00364  1.0000
  H   H18       1.0  0.15315  0.55695  0.99637  1.0000
  H   H19       1.0  0.97668  0.31633  0.82950  1.0000
  H   H20       1.0  0.02333  0.68366  0.17050  1.0000
  H   H21       1.0  0.80370  0.55509  0.58648  1.0000
  H   H22       1.0  0.19631  0.44491  0.41352  1.0000
  H   H23       1.0  0.69859  0.68456  0.77216  1.0000
  H   H24       1.0  0.30141  0.31544  0.22785  1.0000
  H   H25       1.0  0.03649  0.11393  0.10557  1.0000
  H   H26       1.0  0.96350  0.88607  0.89443  1.0000
  H   H27       1.0  0.98487  0.11524  0.26196  1.0000
  H   H28       1.0  0.01513  0.88476  0.73804  1.0000
  H   H29       1.0  0.82412  0.21652  0.05984  1.0000
  H   H30       1.0  0.17588  0.78348  0.94016  1.0000
  H   H31       1.0  0.91354  0.31606  0.19836  1.0000
  H   H32       1.0  0.08646  0.68394  0.80164  1.0000
  H   H33       1.0  0.60258  0.11772  0.16064  1.0000
  H   H34       1.0  0.39741  0.88227  0.83936  1.0000
  H   H35       1.0  0.69928  0.12840  0.30103  1.0000
  H   H36       1.0  0.30072  0.87161  0.69897  1.0000
  H   H37       1.0  0.71967  0.38544  0.34962  1.0000
  H   H38       1.0  0.28033  0.61456  0.65038  1.0000
  H   H39       1.0  0.52670  0.29561  0.32082  1.0000
  H   H40       1.0  0.47329  0.70439  0.67918  1.0000
  C   C1        1.0  0.40083  0.87295  0.14984  1.0000
  C   C2        1.0  0.59917  0.12705  0.85015  1.0000
  C   C3        1.0  0.32261  0.95800  0.22916  1.0000
  C   C4        1.0  0.67739  0.04200  0.77084  1.0000
  C   C5        1.0  0.32235  0.94973  0.35549  1.0000
  C   C6        1.0  0.67766  0.05027  0.64451  1.0000
  C   C7        1.0  0.39955  0.85518  0.39661  1.0000
  C   C8        1.0  0.60045  0.14483  0.60339  1.0000
  C   C9        1.0  0.47737  0.77605  0.31136  1.0000
  C   C10       1.0  0.52263  0.22395  0.68863  1.0000
  C   C11       1.0  0.25243  0.04924  0.44602  1.0000
  C   C12       1.0  0.74757  0.95076  0.55398  1.0000
  C   C13       1.0  0.84407  0.46749  0.91028  1.0000
  C   C14       1.0  0.15593  0.53250  0.08972  1.0000
  C   C15       1.0  0.91466  0.39653  0.81323  1.0000
  C   C16       1.0  0.08534  0.60347  0.18677  1.0000
  C   C17       1.0  0.90105  0.42791  0.69429  1.0000
  C   C18       1.0  0.09894  0.57209  0.30571  1.0000
  C   C19       1.0  0.81816  0.52965  0.67799  1.0000
  C   C20       1.0  0.18184  0.47034  0.32201  1.0000
  C   C21       1.0  0.75776  0.60019  0.78087  1.0000
  C   C22       1.0  0.24224  0.39981  0.21913  1.0000
  C   C23       1.0  0.96915  0.35132  0.58466  1.0000
  C   C24       1.0  0.03085  0.64868  0.41534  1.0000
  C   C25       1.0  0.84892  0.94967  0.13254  1.0000
  C   C26       1.0  0.15108  0.05033  0.86747  1.0000
  C   C27       1.0  0.93816  0.10092  0.16756  1.0000
  C   C28       1.0  0.06184  0.89908  0.83244  1.0000
  C   C29       1.0  0.84420  0.21237  0.15789  1.0000
  C   C30       1.0  0.15579  0.78763  0.84211  1.0000
  C   C31       1.0  0.69086  0.18628  0.22428  1.0000
  C   C32       1.0  0.30914  0.81371  0.77572  1.0000
  C   C33       1.0  0.63894  0.32239  0.27735  1.0000
  C   C34       1.0  0.36106  0.67761  0.72265  1.0000
  C   C35       1.0  0.62065  0.40996  0.17847  1.0000
  C   C36       1.0  0.37935  0.59004  0.82153  1.0000
  N   N1        1.0  0.47849  0.78485  0.19023  1.0000
  N   N2        1.0  0.52151  0.21515  0.80977  1.0000
  N   N3        1.0  0.18258  0.99666  0.54257  1.0000
  N   N4        1.0  0.81743  0.00334  0.45743  1.0000
  N   N5        1.0  0.76931  0.56899  0.89537  1.0000
  N   N6        1.0  0.23069  0.43101  0.10464  1.0000
  N   N7        1.0  0.11047  0.33369  0.60021  1.0000
  N   N8        1.0  0.88953  0.66631  0.39979  1.0000
  O   O1        1.0  0.26860  0.17552  0.42946  1.0000
  O   O2        1.0  0.73140  0.82448  0.57054  1.0000
  O   O3        1.0  0.89130  0.30660  0.48643  1.0000
  O   O4        1.0  0.10870  0.69341  0.51357  1.0000
  O   O5        1.0  0.85586  0.85959  0.20340  1.0000
  O   O6        1.0  0.14414  0.14041  0.79661  1.0000
  O   O7        1.0  0.76863  0.91667  0.03213  1.0000
  O   O8        1.0  0.23137  0.08332  0.96788  1.0000
  O   O9        1.0  0.54828  0.34926  0.08000  1.0000
  O   O10       1.0  0.45172  0.65074  0.92000  1.0000
  O   O11       1.0  0.68238  0.54314  0.19976  1.0000
  O   O12       1.0  0.31762  0.45686  0.80024  1.0000
