data_image0
_chemical_formula_structural       Cd2H40C36N8O12
_chemical_formula_sum              "Cd2 H40 C36 N8 O12"
_cell_length_a       9.03275
_cell_length_b       9.28155
_cell_length_c       14.4903
_cell_angle_alpha    75.535
_cell_angle_beta     81.0221
_cell_angle_gamma    78.1461

_space_group_name_H-M_alt    "P 1"
_space_group_IT_number       1

loop_
  _space_group_symop_operation_xyz
  'x, y, z'

loop_
  _atom_site_type_symbol
  _atom_site_label
  _atom_site_symmetry_multiplicity
  _atom_site_fract_x
  _atom_site_fract_y
  _atom_site_fract_z
  _atom_site_occupancy
  Cd  Cd1       1.0  0.12053  0.30534  0.02904  1.0000
  Cd  Cd2       1.0  0.87948  0.69465  0.97096  1.0000
  H   H1        1.0  0.63194  0.01168  0.43426  1.0000
  H   H2        1.0  0.36807  0.98833  0.56574  1.0000
  H   H3        1.0  0.59128  0.83053  0.48758  1.0000
  H   H4        1.0  0.40872  0.16948  0.51243  1.0000
  H   H5        1.0  0.64041  0.90310  0.64502  1.0000
  H   H6        1.0  0.35958  0.09690  0.35499  1.0000
  H   H7        1.0  0.62432  0.82726  0.76946  1.0000
  H   H8        1.0  0.37568  0.17273  0.23054  1.0000
  H   H9        1.0  0.87970  0.08626  0.04120  1.0000
  H   H10       1.0  0.12031  0.91372  0.95880  1.0000
  H   H11       1.0  0.74282  0.90207  0.16006  1.0000
  H   H12       1.0  0.25718  0.09792  0.83994  1.0000
  H   H13       1.0  0.88445  0.05917  0.38390  1.0000
  H   H14       1.0  0.11555  0.94085  0.61610  1.0000
  H   H15       1.0  0.02256  0.23470  0.25407  1.0000
  H   H16       1.0  0.97744  0.76531  0.74593  1.0000
  H   H17       1.0  0.21824  0.36669  0.80238  1.0000
  H   H18       1.0  0.78176  0.63330  0.19762  1.0000
  H   H19       1.0  0.35028  0.53662  0.66987  1.0000
  H   H20       1.0  0.64972  0.46337  0.33013  1.0000
  H   H21       1.0  0.48248  0.72469  0.88358  1.0000
  H   H22       1.0  0.51751  0.27532  0.11643  1.0000
  H   H23       1.0  0.33858  0.55107  0.00739  1.0000
  H   H24       1.0  0.66142  0.44893  0.99261  1.0000
  H   H25       1.0  0.44987  0.89586  0.20779  1.0000
  H   H26       1.0  0.55013  0.10413  0.79221  1.0000
  H   H27       1.0  0.53152  0.88000  0.09101  1.0000
  H   H28       1.0  0.46848  0.11999  0.90899  1.0000
  H   H29       1.0  0.31476  0.76036  0.07359  1.0000
  H   H30       1.0  0.68524  0.23964  0.92642  1.0000
  H   H31       1.0  0.42371  0.65270  0.16725  1.0000
  H   H32       1.0  0.57628  0.34730  0.83275  1.0000
  H   H33       1.0  0.22569  0.77039  0.28528  1.0000
  H   H34       1.0  0.77431  0.22961  0.71472  1.0000
  H   H35       1.0  0.11413  0.85779  0.18951  1.0000
  H   H36       1.0  0.88586  0.14221  0.81048  1.0000
  H   H37       1.0  0.20912  0.51508  0.26522  1.0000
  H   H38       1.0  0.79087  0.48492  0.73478  1.0000
  H   H39       1.0  0.02612  0.62360  0.28433  1.0000
  H   H40       1.0  0.97388  0.37639  0.71566  1.0000
  C   C1        1.0  0.87932  0.07637  0.11775  1.0000
  C   C2        1.0  0.12068  0.92362  0.88225  1.0000
  C   C3        1.0  0.80201  0.97378  0.18471  1.0000
  C   C4        1.0  0.19799  0.02622  0.81529  1.0000
  C   C5        1.0  0.80200  0.96553  0.28229  1.0000
  C   C6        1.0  0.19800  0.03448  0.71771  1.0000
  C   C7        1.0  0.88124  0.06115  0.30871  1.0000
  C   C8        1.0  0.11875  0.93886  0.69129  1.0000
  C   C9        1.0  0.95793  0.15891  0.23747  1.0000
  C   C10       1.0  0.04206  0.84110  0.76253  1.0000
  C   C11       1.0  0.72307  0.85151  0.35573  1.0000
  C   C12       1.0  0.27693  0.14848  0.64426  1.0000
  C   C13       1.0  0.27578  0.44864  0.81803  1.0000
  C   C14       1.0  0.72422  0.55135  0.18197  1.0000
  C   C15       1.0  0.35043  0.54348  0.74374  1.0000
  C   C16       1.0  0.64957  0.45652  0.25626  1.0000
  C   C17       1.0  0.42543  0.64666  0.76543  1.0000
  C   C18       1.0  0.57457  0.35334  0.23457  1.0000
  C   C19       1.0  0.42461  0.64823  0.86191  1.0000
  C   C20       1.0  0.57539  0.35178  0.13809  1.0000
  C   C21       1.0  0.34515  0.55064  0.93170  1.0000
  C   C22       1.0  0.65485  0.44936  0.06830  1.0000
  C   C23       1.0  0.49744  0.75338  0.68311  1.0000
  C   C24       1.0  0.50256  0.24663  0.31689  1.0000
  C   C25       1.0  0.33052  0.04250  0.09258  1.0000
  C   C26       1.0  0.66949  0.95749  0.90742  1.0000
  C   C27       1.0  0.42263  0.89185  0.13719  1.0000
  C   C28       1.0  0.57737  0.10814  0.86281  1.0000
  C   C29       1.0  0.34355  0.75796  0.14508  1.0000
  C   C30       1.0  0.65645  0.24204  0.85492  1.0000
  C   C31       1.0  0.19920  0.75883  0.21597  1.0000
  C   C32       1.0  0.80079  0.24116  0.78403  1.0000
  C   C33       1.0  0.13036  0.61579  0.23334  1.0000
  C   C34       1.0  0.86964  0.38421  0.76666  1.0000
  C   C35       1.0  0.08286  0.58747  0.14398  1.0000
  C   C36       1.0  0.91715  0.41253  0.85602  1.0000
  N   N1        1.0  0.95656  0.16671  0.14369  1.0000
  N   N2        1.0  0.04344  0.83329  0.85631  1.0000
  N   N3        1.0  0.65279  0.89871  0.43523  1.0000
  N   N4        1.0  0.34721  0.10130  0.56477  1.0000
  N   N5        1.0  0.27114  0.45330  0.91059  1.0000
  N   N6        1.0  0.72886  0.54670  0.08941  1.0000
  N   N7        1.0  0.59671  0.82890  0.70160  1.0000
  N   N8        1.0  0.40329  0.17110  0.29840  1.0000
  O   O1        1.0  0.72756  0.72370  0.34216  1.0000
  O   O2        1.0  0.27243  0.27632  0.65785  1.0000
  O   O3        1.0  0.46052  0.76971  0.60045  1.0000
  O   O4        1.0  0.53948  0.23030  0.39955  1.0000
  O   O5        1.0  0.32501  0.15847  0.12727  1.0000
  O   O6        1.0  0.67499  0.84152  0.87273  1.0000
  O   O7        1.0  0.26067  0.05221  0.02121  1.0000
  O   O8        1.0  0.73934  0.94778  0.97878  1.0000
  O   O9        1.0  0.02593  0.70202  0.08299  1.0000
  O   O10       1.0  0.97408  0.29797  0.91701  1.0000
  O   O11       1.0  0.09991  0.45045  0.13819  1.0000
  O   O12       1.0  0.90009  0.54955  0.86181  1.0000
