data_image0
_chemical_formula_structural       Zn4H44C56S4N8O16
_chemical_formula_sum              "Zn4 H44 C56 S4 N8 O16"
_cell_length_a       10.9193
_cell_length_b       10.9682
_cell_length_c       14.7442
_cell_angle_alpha    90.6236
_cell_angle_beta     90.6264
_cell_angle_gamma    98.9435

_space_group_name_H-M_alt    "P 1"
_space_group_IT_number       1

loop_
  _space_group_symop_operation_xyz
  'x, y, z'

loop_
  _atom_site_type_symbol
  _atom_site_label
  _atom_site_symmetry_multiplicity
  _atom_site_fract_x
  _atom_site_fract_y
  _atom_site_fract_z
  _atom_site_occupancy
  Zn  Zn1       1.0  0.45487  0.12542  0.50419  1.0000
  Zn  Zn2       1.0  0.87434  0.54433  0.99591  1.0000
  Zn  Zn3       1.0  0.54513  0.87458  0.49581  1.0000
  Zn  Zn4       1.0  0.12566  0.45567  0.00409  1.0000
  H   H1        1.0  0.89001  0.97457  0.68620  1.0000
  H   H2        1.0  0.02639  0.11086  0.81458  1.0000
  H   H3        1.0  0.10999  0.02543  0.31380  1.0000
  H   H4        1.0  0.97361  0.88915  0.18542  1.0000
  H   H5        1.0  0.47197  0.31055  0.66895  1.0000
  H   H6        1.0  0.68869  0.52764  0.83130  1.0000
  H   H7        1.0  0.52803  0.68945  0.33105  1.0000
  H   H8        1.0  0.31131  0.47236  0.16870  1.0000
  H   H9        1.0  0.13118  0.00431  0.68786  1.0000
  H   H10       1.0  0.99496  0.86828  0.81294  1.0000
  H   H11       1.0  0.86883  0.99569  0.31214  1.0000
  H   H12       1.0  0.00504  0.13172  0.18706  1.0000
  H   H13       1.0  0.29866  0.59515  0.42421  1.0000
  H   H14       1.0  0.40429  0.70258  0.07564  1.0000
  H   H15       1.0  0.70134  0.40485  0.57579  1.0000
  H   H16       1.0  0.59571  0.29742  0.92435  1.0000
  H   H17       1.0  0.30074  0.64978  0.53640  1.0000
  H   H18       1.0  0.34940  0.70067  0.96349  1.0000
  H   H19       1.0  0.69926  0.35022  0.46361  1.0000
  H   H20       1.0  0.65060  0.29934  0.03651  1.0000
  H   H21       1.0  0.37876  0.53493  0.66030  1.0000
  H   H22       1.0  0.46428  0.62237  0.83958  1.0000
  H   H23       1.0  0.62124  0.46507  0.33970  1.0000
  H   H24       1.0  0.53572  0.37762  0.16042  1.0000
  H   H25       1.0  0.39106  0.32191  0.33953  1.0000
  H   H26       1.0  0.67822  0.60926  0.16038  1.0000
  H   H27       1.0  0.60894  0.67809  0.66047  1.0000
  H   H28       1.0  0.32178  0.39074  0.83962  1.0000
  H   H29       1.0  0.26960  0.41289  0.35124  1.0000
  H   H30       1.0  0.58675  0.73015  0.14882  1.0000
  H   H31       1.0  0.73040  0.58711  0.64876  1.0000
  H   H32       1.0  0.41325  0.26985  0.85118  1.0000
  H   H33       1.0  0.24426  0.25277  0.37734  1.0000
  H   H34       1.0  0.74758  0.75546  0.12265  1.0000
  H   H35       1.0  0.75574  0.74723  0.62266  1.0000
  H   H36       1.0  0.25241  0.24454  0.87735  1.0000
  H   H37       1.0  0.13227  0.37279  0.58319  1.0000
  H   H38       1.0  0.62768  0.86838  0.91664  1.0000
  H   H39       1.0  0.86773  0.62721  0.41682  1.0000
  H   H40       1.0  0.37233  0.13162  0.08336  1.0000
  H   H41       1.0  0.09500  0.68087  0.41134  1.0000
  H   H42       1.0  0.31854  0.90527  0.08878  1.0000
  H   H43       1.0  0.90500  0.31913  0.58866  1.0000
  H   H44       1.0  0.68146  0.09473  0.91123  1.0000
  C   C1        1.0  0.76575  0.11019  0.69108  1.0000
  C   C2        1.0  0.89001  0.23447  0.80917  1.0000
  C   C3        1.0  0.23425  0.88981  0.30892  1.0000
  C   C4        1.0  0.10999  0.76553  0.19083  1.0000
  C   C5        1.0  0.35207  0.36652  0.47635  1.0000
  C   C6        1.0  0.63323  0.64817  0.02365  1.0000
  C   C7        1.0  0.64793  0.63348  0.52365  1.0000
  C   C8        1.0  0.36677  0.35183  0.97634  1.0000
  C   C9        1.0  0.34716  0.91378  0.62404  1.0000
  C   C10       1.0  0.08591  0.65266  0.87586  1.0000
  C   C11       1.0  0.65284  0.08622  0.37596  1.0000
  C   C12       1.0  0.91408  0.34734  0.12414  1.0000
  C   C13       1.0  0.25457  0.86819  0.69249  1.0000
  C   C14       1.0  0.13151  0.74523  0.80762  1.0000
  C   C15       1.0  0.74543  0.13182  0.30751  1.0000
  C   C16       1.0  0.86849  0.25477  0.19238  1.0000
  C   C17       1.0  0.86911  0.05962  0.71668  1.0000
  C   C18       1.0  0.94103  0.13152  0.78391  1.0000
  C   C19       1.0  0.13089  0.94038  0.28332  1.0000
  C   C20       1.0  0.05897  0.86848  0.21609  1.0000
  C   C21       1.0  0.13021  0.53097  0.49683  1.0000
  C   C22       1.0  0.46895  0.87032  0.00311  1.0000
  C   C23       1.0  0.86978  0.46903  0.50317  1.0000
  C   C24       1.0  0.53105  0.12968  0.99689  1.0000
  C   C25       1.0  0.42746  0.35228  0.61388  1.0000
  C   C26       1.0  0.64705  0.57249  0.88626  1.0000
  C   C27       1.0  0.57254  0.64772  0.38612  1.0000
  C   C28       1.0  0.35296  0.42750  0.11374  1.0000
  C   C29       1.0  0.15159  0.91927  0.71762  1.0000
  C   C30       1.0  0.08020  0.84796  0.78292  1.0000
  C   C31       1.0  0.84841  0.08073  0.28237  1.0000
  C   C32       1.0  0.91980  0.15205  0.21708  1.0000
  C   C33       1.0  0.26957  0.56815  0.49319  1.0000
  C   C34       1.0  0.43142  0.73157  0.00668  1.0000
  C   C35       1.0  0.73043  0.43185  0.50681  1.0000
  C   C36       1.0  0.56858  0.26843  0.99332  1.0000
  C   C37       1.0  0.38306  0.46236  0.61060  1.0000
  C   C38       1.0  0.53708  0.61779  0.88934  1.0000
  C   C39       1.0  0.61694  0.53764  0.38940  1.0000
  C   C40       1.0  0.46292  0.38221  0.11066  1.0000
  C   C41       1.0  0.31187  0.33804  0.38088  1.0000
  C   C42       1.0  0.66194  0.68814  0.11912  1.0000
  C   C43       1.0  0.68813  0.66196  0.61912  1.0000
  C   C44       1.0  0.33806  0.31186  0.88088  1.0000
  C   C45       1.0  0.67113  0.06465  0.62150  1.0000
  C   C46       1.0  0.93545  0.32905  0.87857  1.0000
  C   C47       1.0  0.32888  0.93535  0.37850  1.0000
  C   C48       1.0  0.06455  0.67095  0.12143  1.0000
  C   C49       1.0  0.07497  0.42909  0.54622  1.0000
  C   C50       1.0  0.57117  0.92541  0.95367  1.0000
  C   C51       1.0  0.92503  0.57091  0.45378  1.0000
  C   C52       1.0  0.42883  0.07458  0.04633  1.0000
  C   C53       1.0  0.05373  0.60142  0.45057  1.0000
  C   C54       1.0  0.39826  0.94643  0.04948  1.0000
  C   C55       1.0  0.94626  0.39859  0.54943  1.0000
  C   C56       1.0  0.60174  0.05357  0.95052  1.0000
  S   S1        1.0  0.75554  0.24424  0.74996  1.0000
  S   S2        1.0  0.24446  0.75576  0.25004  1.0000
  S   S3        1.0  0.26508  0.73491  0.74985  1.0000
  S   S4        1.0  0.73493  0.26510  0.25015  1.0000
  N   N1        1.0  0.40806  0.29389  0.53023  1.0000
  N   N2        1.0  0.70561  0.59151  0.96994  1.0000
  N   N3        1.0  0.59194  0.70611  0.46977  1.0000
  N   N4        1.0  0.29439  0.40849  0.03006  1.0000
  N   N5        1.0  0.33682  0.47076  0.52345  1.0000
  N   N6        1.0  0.52893  0.66424  0.97638  1.0000
  N   N7        1.0  0.66318  0.52923  0.47655  1.0000
  N   N8        1.0  0.47107  0.33576  0.02362  1.0000
  O   O1        1.0  0.34729  0.02357  0.59817  1.0000
  O   O2        1.0  0.97559  0.65217  0.90175  1.0000
  O   O3        1.0  0.65271  0.97643  0.40183  1.0000
  O   O4        1.0  0.02441  0.34783  0.09825  1.0000
  O   O5        1.0  0.59951  0.14060  0.59806  1.0000
  O   O6        1.0  0.85904  0.40030  0.90187  1.0000
  O   O7        1.0  0.40049  0.85940  0.40194  1.0000
  O   O8        1.0  0.14096  0.59970  0.09813  1.0000
  O   O9        1.0  0.67061  0.95538  0.59191  1.0000
  O   O10       1.0  0.04525  0.32994  0.90820  1.0000
  O   O11       1.0  0.32939  0.04462  0.40809  1.0000
  O   O12       1.0  0.95476  0.67007  0.09180  1.0000
  O   O13       1.0  0.41745  0.83771  0.59731  1.0000
  O   O14       1.0  0.16244  0.58270  0.90248  1.0000
  O   O15       1.0  0.58255  0.16229  0.40269  1.0000
  O   O16       1.0  0.83757  0.41730  0.09752  1.0000
