data_image0
_chemical_formula_structural       Gd4H32C24O28
_chemical_formula_sum              "Gd4 H32 C24 O28"
_cell_length_a       7.62462
_cell_length_b       8.03907
_cell_length_c       14.1348
_cell_angle_alpha    97.0217
_cell_angle_beta     95.8761
_cell_angle_gamma    103.662

_space_group_name_H-M_alt    "P 1"
_space_group_IT_number       1

loop_
  _space_group_symop_operation_xyz
  'x, y, z'

loop_
  _atom_site_type_symbol
  _atom_site_label
  _atom_site_symmetry_multiplicity
  _atom_site_fract_x
  _atom_site_fract_y
  _atom_site_fract_z
  _atom_site_occupancy
  Gd  Gd1       1.0  0.87196  0.92237  0.70759  1.0000
  Gd  Gd2       1.0  0.12804  0.07763  0.29241  1.0000
  Gd  Gd3       1.0  0.41131  0.00894  0.79923  1.0000
  Gd  Gd4       1.0  0.58869  0.99106  0.20077  1.0000
  H   H1        1.0  0.07536  0.37379  0.64251  1.0000
  H   H2        1.0  0.92464  0.62621  0.35749  1.0000
  H   H3        1.0  0.28751  0.52420  0.69185  1.0000
  H   H4        1.0  0.71249  0.47579  0.30816  1.0000
  H   H5        1.0  0.32200  0.46336  0.12675  1.0000
  H   H6        1.0  0.67800  0.53664  0.87325  1.0000
  H   H7        1.0  0.40286  0.40851  0.01706  1.0000
  H   H8        1.0  0.59714  0.59149  0.98294  1.0000
  H   H9        1.0  0.61475  0.39968  0.65348  1.0000
  H   H10       1.0  0.38525  0.60032  0.34652  1.0000
  H   H11       1.0  0.45257  0.22703  0.58023  1.0000
  H   H12       1.0  0.54743  0.77297  0.41977  1.0000
  H   H13       1.0  0.81061  0.37835  0.50600  1.0000
  H   H14       1.0  0.18939  0.62165  0.49400  1.0000
  H   H15       1.0  0.63888  0.49159  0.50411  1.0000
  H   H16       1.0  0.36112  0.50842  0.49589  1.0000
  H   H17       1.0  0.02359  0.84781  0.51174  1.0000
  H   H18       1.0  0.97640  0.15219  0.48826  1.0000
  H   H19       1.0  0.13817  0.81362  0.60065  1.0000
  H   H20       1.0  0.86183  0.18638  0.39935  1.0000
  H   H21       1.0  0.77389  0.15922  0.91089  1.0000
  H   H22       1.0  0.22611  0.84078  0.08911  1.0000
  H   H23       1.0  0.62935  0.19465  0.98471  1.0000
  H   H24       1.0  0.37065  0.80535  0.01529  1.0000
  H   H25       1.0  0.97326  0.39661  0.80657  1.0000
  H   H26       1.0  0.02674  0.60338  0.19343  1.0000
  H   H27       1.0  0.18953  0.54472  0.85405  1.0000
  H   H28       1.0  0.81047  0.45528  0.14595  1.0000
  H   H29       1.0  0.04040  0.20382  0.07098  1.0000
  H   H30       1.0  0.95960  0.79618  0.92902  1.0000
  H   H31       1.0  0.05766  0.37515  0.00357  1.0000
  H   H32       1.0  0.94234  0.62485  0.99643  1.0000
  C   C1        1.0  0.17561  0.42186  0.70724  1.0000
  C   C2        1.0  0.82439  0.57814  0.29276  1.0000
  C   C3        1.0  0.25530  0.27809  0.73673  1.0000
  C   C4        1.0  0.74469  0.72190  0.26327  1.0000
  C   C5        1.0  0.11319  0.14722  0.93132  1.0000
  C   C6        1.0  0.88681  0.85278  0.06868  1.0000
  C   C7        1.0  0.31972  0.35557  0.07035  1.0000
  C   C8        1.0  0.68028  0.64443  0.92965  1.0000
  C   C9        1.0  0.41208  0.23513  0.11790  1.0000
  C   C10       1.0  0.58792  0.76486  0.88210  1.0000
  C   C11       1.0  0.69899  0.17038  0.63294  1.0000
  C   C12       1.0  0.30101  0.82963  0.36706  1.0000
  C   C13       1.0  0.59872  0.29316  0.59423  1.0000
  C   C14       1.0  0.40128  0.70684  0.40577  1.0000
  C   C15       1.0  0.66361  0.36240  0.50429  1.0000
  C   C16       1.0  0.33639  0.63760  0.49571  1.0000
  C   C17       1.0  0.55912  0.24690  0.41332  1.0000
  C   C18       1.0  0.44088  0.75310  0.58668  1.0000
  C   C19       1.0  0.01288  0.64441  0.76186  1.0000
  C   C20       1.0  0.98712  0.35558  0.23814  1.0000
  C   C21       1.0  0.08651  0.49683  0.79031  1.0000
  C   C22       1.0  0.91349  0.50317  0.20969  1.0000
  C   C23       1.0  0.12390  0.27372  0.02221  1.0000
  C   C24       1.0  0.87610  0.72628  0.97779  1.0000
  O   O1        1.0  0.85034  0.61768  0.72267  1.0000
  O   O2        1.0  0.14966  0.38232  0.27733  1.0000
  O   O3        1.0  0.16842  0.11747  0.70840  1.0000
  O   O4        1.0  0.83158  0.88252  0.29160  1.0000
  O   O5        1.0  0.40669  0.31374  0.78960  1.0000
  O   O6        1.0  0.59332  0.68625  0.21039  1.0000
  O   O7        1.0  0.96675  0.10732  0.87113  1.0000
  O   O8        1.0  0.03325  0.89268  0.12887  1.0000
  O   O9        1.0  0.25068  0.08773  0.92079  1.0000
  O   O10       1.0  0.74932  0.91227  0.07921  1.0000
  O   O11       1.0  0.34522  0.15958  0.18586  1.0000
  O   O12       1.0  0.65478  0.84041  0.81414  1.0000
  O   O13       1.0  0.56202  0.20917  0.09477  1.0000
  O   O14       1.0  0.43798  0.79082  0.90523  1.0000
  O   O15       1.0  0.66107  0.11616  0.71262  1.0000
  O   O16       1.0  0.33892  0.88384  0.28738  1.0000
  O   O17       1.0  0.82194  0.12027  0.59166  1.0000
  O   O18       1.0  0.17807  0.87974  0.40834  1.0000
  O   O19       1.0  0.64715  0.17188  0.35598  1.0000
  O   O20       1.0  0.35285  0.82812  0.64402  1.0000
  O   O21       1.0  0.38908  0.23054  0.39908  1.0000
  O   O22       1.0  0.61092  0.76946  0.60092  1.0000
  O   O23       1.0  0.00958  0.81208  0.57496  1.0000
  O   O24       1.0  0.99041  0.18792  0.42504  1.0000
  O   O25       1.0  0.65141  0.17979  0.91632  1.0000
  O   O26       1.0  0.34859  0.82021  0.08368  1.0000
  O   O27       1.0  0.11605  0.80057  0.77705  1.0000
  O   O28       1.0  0.88395  0.19943  0.22295  1.0000
