data_image0
_chemical_formula_structural       Tb4H32C24O28
_chemical_formula_sum              "Tb4 H32 C24 O28"
_cell_length_a       7.67464
_cell_length_b       10.7067
_cell_length_c       12.678
_cell_angle_alpha    95.3324
_cell_angle_beta     107.606
_cell_angle_gamma    111.017

_space_group_name_H-M_alt    "P 1"
_space_group_IT_number       1

loop_
  _space_group_symop_operation_xyz
  'x, y, z'

loop_
  _atom_site_type_symbol
  _atom_site_label
  _atom_site_symmetry_multiplicity
  _atom_site_fract_x
  _atom_site_fract_y
  _atom_site_fract_z
  _atom_site_occupancy
  Tb  Tb1       1.0  0.25531  0.31017  0.77082  1.0000
  Tb  Tb2       1.0  0.67440  0.18991  0.72926  1.0000
  Tb  Tb3       1.0  0.74469  0.68984  0.22918  1.0000
  Tb  Tb4       1.0  0.32560  0.81009  0.27074  1.0000
  H   H1        1.0  0.68937  0.49741  0.85460  1.0000
  H   H2        1.0  0.83742  0.00266  0.64539  1.0000
  H   H3        1.0  0.31063  0.50259  0.14540  1.0000
  H   H4        1.0  0.16258  0.99734  0.35461  1.0000
  H   H5        1.0  0.58514  0.57965  0.91236  1.0000
  H   H6        1.0  0.59317  0.92040  0.58771  1.0000
  H   H7        1.0  0.41487  0.42035  0.08764  1.0000
  H   H8        1.0  0.40683  0.07960  0.41229  1.0000
  H   H9        1.0  0.64824  0.13516  0.04149  1.0000
  H   H10       1.0  0.97185  0.36481  0.45855  1.0000
  H   H11       1.0  0.35176  0.86484  0.95851  1.0000
  H   H12       1.0  0.02815  0.63519  0.54146  1.0000
  H   H13       1.0  0.62872  0.25733  0.13846  1.0000
  H   H14       1.0  0.73311  0.24265  0.36163  1.0000
  H   H15       1.0  0.37128  0.74267  0.86154  1.0000
  H   H16       1.0  0.26689  0.75735  0.63837  1.0000
  H   H17       1.0  0.92951  0.33322  0.01442  1.0000
  H   H18       1.0  0.08194  0.16673  0.48549  1.0000
  H   H19       1.0  0.07049  0.66678  0.98558  1.0000
  H   H20       1.0  0.91806  0.83327  0.51451  1.0000
  H   H21       1.0  0.98829  0.29666  0.14959  1.0000
  H   H22       1.0  0.04195  0.20323  0.35028  1.0000
  H   H23       1.0  0.01171  0.70334  0.85041  1.0000
  H   H24       1.0  0.95806  0.79677  0.64972  1.0000
  H   H25       1.0  0.52220  0.36419  0.47090  1.0000
  H   H26       1.0  0.18711  0.13580  0.02898  1.0000
  H   H27       1.0  0.47780  0.63581  0.52910  1.0000
  H   H28       1.0  0.81290  0.86420  0.97101  1.0000
  H   H29       1.0  0.69531  0.50150  0.58381  1.0000
  H   H30       1.0  0.10995  0.99840  0.91614  1.0000
  H   H31       1.0  0.30469  0.49850  0.41619  1.0000
  H   H32       1.0  0.89005  0.00160  0.08386  1.0000
  C   C1        1.0  0.52849  0.26711  0.96445  1.0000
  C   C2        1.0  0.79703  0.23293  0.53564  1.0000
  C   C3        1.0  0.47151  0.73289  0.03555  1.0000
  C   C4        1.0  0.20297  0.76707  0.46436  1.0000
  C   C5        1.0  0.67033  0.24274  0.06426  1.0000
  C   C6        1.0  0.86353  0.25724  0.43580  1.0000
  C   C7        1.0  0.32967  0.75726  0.93574  1.0000
  C   C8        1.0  0.13647  0.74276  0.56420  1.0000
  C   C9        1.0  0.89133  0.33514  0.09128  1.0000
  C   C10       1.0  0.96493  0.16482  0.40868  1.0000
  C   C11       1.0  0.10867  0.66486  0.90872  1.0000
  C   C12       1.0  0.03507  0.83518  0.59132  1.0000
  C   C13       1.0  0.95171  0.48466  0.14516  1.0000
  C   C14       1.0  0.82175  0.01527  0.35484  1.0000
  C   C15       1.0  0.04828  0.51534  0.85484  1.0000
  C   C16       1.0  0.17825  0.98473  0.64516  1.0000
  C   C17       1.0  0.42293  0.39469  0.60606  1.0000
  C   C18       1.0  0.92210  0.10520  0.89390  1.0000
  C   C19       1.0  0.57707  0.60531  0.39393  1.0000
  C   C20       1.0  0.07790  0.89480  0.10610  1.0000
  C   C21       1.0  0.53499  0.45096  0.53059  1.0000
  C   C22       1.0  0.05342  0.04897  0.96935  1.0000
  C   C23       1.0  0.46501  0.54904  0.46941  1.0000
  C   C24       1.0  0.94658  0.95103  0.03065  1.0000
  O   O1        1.0  0.40604  0.31665  0.97638  1.0000
  O   O2        1.0  0.61305  0.18331  0.52364  1.0000
  O   O3        1.0  0.59396  0.68335  0.02362  1.0000
  O   O4        1.0  0.38695  0.81669  0.47636  1.0000
  O   O5        1.0  0.52506  0.23428  0.86340  1.0000
  O   O6        1.0  0.92738  0.26581  0.63671  1.0000
  O   O7        1.0  0.47494  0.76572  0.13660  1.0000
  O   O8        1.0  0.07262  0.73419  0.36329  1.0000
  O   O9        1.0  0.13504  0.56771  0.17191  1.0000
  O   O10       1.0  0.89520  0.93213  0.32820  1.0000
  O   O11       1.0  0.86496  0.43229  0.82809  1.0000
  O   O12       1.0  0.10480  0.06787  0.67180  1.0000
  O   O13       1.0  0.81693  0.51749  0.15977  1.0000
  O   O14       1.0  0.63951  0.98254  0.34014  1.0000
  O   O15       1.0  0.18307  0.48252  0.84023  1.0000
  O   O16       1.0  0.36049  0.01746  0.65986  1.0000
  O   O17       1.0  0.46268  0.30497  0.65946  1.0000
  O   O18       1.0  0.99823  0.19504  0.84056  1.0000
  O   O19       1.0  0.53731  0.69503  0.34054  1.0000
  O   O20       1.0  0.00176  0.80496  0.15944  1.0000
  O   O21       1.0  0.29092  0.43228  0.61843  1.0000
  O   O22       1.0  0.74014  0.06759  0.88159  1.0000
  O   O23       1.0  0.70908  0.56772  0.38157  1.0000
  O   O24       1.0  0.25986  0.93241  0.11841  1.0000
  O   O25       1.0  0.56589  0.51175  0.84607  1.0000
  O   O26       1.0  0.70815  0.98824  0.65400  1.0000
  O   O27       1.0  0.43411  0.48824  0.15394  1.0000
  O   O28       1.0  0.29185  0.01176  0.34600  1.0000
