data_image0
_chemical_formula_structural       Cd4H52C60N4O20
_chemical_formula_sum              "Cd4 H52 C60 N4 O20"
_cell_length_a       6.70405
_cell_length_b       13.4715
_cell_length_c       15.229
_cell_angle_alpha    90
_cell_angle_beta     90
_cell_angle_gamma    90

_space_group_name_H-M_alt    "P 1"
_space_group_IT_number       1

loop_
  _space_group_symop_operation_xyz
  'x, y, z'

loop_
  _atom_site_type_symbol
  _atom_site_label
  _atom_site_symmetry_multiplicity
  _atom_site_fract_x
  _atom_site_fract_y
  _atom_site_fract_z
  _atom_site_occupancy
  Cd  Cd1       1.0  0.86102  0.68903  0.46898  1.0000
  Cd  Cd2       1.0  0.63897  0.31097  0.96898  1.0000
  Cd  Cd3       1.0  0.13898  0.18903  0.03102  1.0000
  Cd  Cd4       1.0  0.36102  0.81097  0.53102  1.0000
  H   H1        1.0  0.13790  0.45937  0.63363  1.0000
  H   H2        1.0  0.36210  0.54063  0.13363  1.0000
  H   H3        1.0  0.86209  0.95937  0.86637  1.0000
  H   H4        1.0  0.63790  0.04063  0.36637  1.0000
  H   H5        1.0  0.15849  0.33049  0.75156  1.0000
  H   H6        1.0  0.34151  0.66951  0.25156  1.0000
  H   H7        1.0  0.84151  0.83049  0.74844  1.0000
  H   H8        1.0  0.65849  0.16951  0.24844  1.0000
  H   H9        1.0  0.12826  0.51128  0.02004  1.0000
  H   H10       1.0  0.37174  0.48872  0.52004  1.0000
  H   H11       1.0  0.87174  0.01128  0.47996  1.0000
  H   H12       1.0  0.62826  0.98872  0.97996  1.0000
  H   H13       1.0  0.13115  0.68949  0.06117  1.0000
  H   H14       1.0  0.36885  0.31051  0.56117  1.0000
  H   H15       1.0  0.86885  0.18949  0.43883  1.0000
  H   H16       1.0  0.63115  0.81051  0.93883  1.0000
  H   H17       1.0  0.14046  0.81941  0.94446  1.0000
  H   H18       1.0  0.35954  0.18059  0.44446  1.0000
  H   H19       1.0  0.85954  0.31941  0.55554  1.0000
  H   H20       1.0  0.64046  0.68059  0.05554  1.0000
  H   H21       1.0  0.15273  0.77064  0.78783  1.0000
  H   H22       1.0  0.34727  0.22936  0.28783  1.0000
  H   H23       1.0  0.84727  0.27064  0.71217  1.0000
  H   H24       1.0  0.65273  0.72936  0.21217  1.0000
  H   H25       1.0  0.87082  0.61048  0.27942  1.0000
  H   H26       1.0  0.62918  0.38952  0.77942  1.0000
  H   H27       1.0  0.12918  0.11048  0.22058  1.0000
  H   H28       1.0  0.37082  0.88952  0.72058  1.0000
  H   H29       1.0  0.92391  0.36535  0.37293  1.0000
  H   H30       1.0  0.57609  0.63466  0.87293  1.0000
  H   H31       1.0  0.07609  0.86535  0.12707  1.0000
  H   H32       1.0  0.42391  0.13466  0.62707  1.0000
  H   H33       1.0  0.97014  0.31252  0.26634  1.0000
  H   H34       1.0  0.52986  0.68748  0.76634  1.0000
  H   H35       1.0  0.02986  0.81252  0.23366  1.0000
  H   H36       1.0  0.47014  0.18748  0.73366  1.0000
  H   H37       1.0  0.71998  0.32860  0.30494  1.0000
  H   H38       1.0  0.78002  0.67140  0.80494  1.0000
  H   H39       1.0  0.28002  0.82860  0.19506  1.0000
  H   H40       1.0  0.21998  0.17140  0.69506  1.0000
  H   H41       1.0  0.88427  0.54453  0.15192  1.0000
  H   H42       1.0  0.61573  0.45547  0.65192  1.0000
  H   H43       1.0  0.11573  0.04453  0.34808  1.0000
  H   H44       1.0  0.38427  0.95547  0.84808  1.0000
  H   H45       1.0  0.71598  0.44197  0.14636  1.0000
  H   H46       1.0  0.78402  0.55803  0.64635  1.0000
  H   H47       1.0  0.28402  0.94197  0.35365  1.0000
  H   H48       1.0  0.21598  0.05803  0.85364  1.0000
  H   H49       1.0  0.97723  0.42063  0.14169  1.0000
  H   H50       1.0  0.52277  0.57937  0.64169  1.0000
  H   H51       1.0  0.02277  0.92063  0.35831  1.0000
  H   H52       1.0  0.47723  0.07937  0.85831  1.0000
  C   C1        1.0  0.14368  0.58146  0.72289  1.0000
  C   C2        1.0  0.35632  0.41854  0.22289  1.0000
  C   C3        1.0  0.85632  0.08146  0.77711  1.0000
  C   C4        1.0  0.64368  0.91854  0.27711  1.0000
  C   C5        1.0  0.14231  0.48111  0.70248  1.0000
  C   C6        1.0  0.35769  0.51889  0.20248  1.0000
  C   C7        1.0  0.85769  0.98111  0.79752  1.0000
  C   C8        1.0  0.64231  0.01889  0.29752  1.0000
  C   C9        1.0  0.14991  0.40890  0.76848  1.0000
  C   C10       1.0  0.35009  0.59110  0.26848  1.0000
  C   C11       1.0  0.85009  0.90890  0.73152  1.0000
  C   C12       1.0  0.64991  0.09110  0.23152  1.0000
  C   C13       1.0  0.14286  0.43602  0.85609  1.0000
  C   C14       1.0  0.35714  0.56398  0.35609  1.0000
  C   C15       1.0  0.85714  0.93602  0.64390  1.0000
  C   C16       1.0  0.64286  0.06398  0.14390  1.0000
  C   C17       1.0  0.13300  0.56853  0.96978  1.0000
  C   C18       1.0  0.36700  0.43147  0.46978  1.0000
  C   C19       1.0  0.86700  0.06854  0.53022  1.0000
  C   C20       1.0  0.63300  0.93146  0.03022  1.0000
  C   C21       1.0  0.13425  0.66755  0.99226  1.0000
  C   C22       1.0  0.36575  0.33245  0.49226  1.0000
  C   C23       1.0  0.86575  0.16756  0.50774  1.0000
  C   C24       1.0  0.63425  0.83244  0.00774  1.0000
  C   C25       1.0  0.13977  0.74111  0.92607  1.0000
  C   C26       1.0  0.36023  0.25889  0.42607  1.0000
  C   C27       1.0  0.86023  0.24111  0.57393  1.0000
  C   C28       1.0  0.63978  0.75889  0.07393  1.0000
  C   C29       1.0  0.14530  0.71424  0.83874  1.0000
  C   C30       1.0  0.35470  0.28576  0.33874  1.0000
  C   C31       1.0  0.85470  0.21424  0.66127  1.0000
  C   C32       1.0  0.64530  0.78576  0.16127  1.0000
  C   C33       1.0  0.14446  0.61265  0.81272  1.0000
  C   C34       1.0  0.35554  0.38735  0.31273  1.0000
  C   C35       1.0  0.85553  0.11265  0.68727  1.0000
  C   C36       1.0  0.64446  0.88735  0.18728  1.0000
  C   C37       1.0  0.13732  0.53816  0.88042  1.0000
  C   C38       1.0  0.36268  0.46184  0.38042  1.0000
  C   C39       1.0  0.86268  0.03816  0.61958  1.0000
  C   C40       1.0  0.63732  0.96184  0.11958  1.0000
  C   C41       1.0  0.14786  0.65138  0.64584  1.0000
  C   C42       1.0  0.35214  0.34862  0.14584  1.0000
  C   C43       1.0  0.85214  0.15138  0.85416  1.0000
  C   C44       1.0  0.64786  0.84862  0.35416  1.0000
  C   C45       1.0  0.14163  0.35397  0.92183  1.0000
  C   C46       1.0  0.35837  0.64603  0.42183  1.0000
  C   C47       1.0  0.85837  0.85397  0.57816  1.0000
  C   C48       1.0  0.64163  0.14603  0.07817  1.0000
  C   C49       1.0  0.87094  0.54031  0.31667  1.0000
  C   C50       1.0  0.62907  0.45969  0.81665  1.0000
  C   C51       1.0  0.12907  0.04031  0.18335  1.0000
  C   C52       1.0  0.37093  0.95969  0.68333  1.0000
  C   C53       1.0  0.87098  0.36017  0.30510  1.0000
  C   C54       1.0  0.62902  0.63984  0.80510  1.0000
  C   C55       1.0  0.12902  0.86016  0.19490  1.0000
  C   C56       1.0  0.37098  0.13984  0.69490  1.0000
  C   C57       1.0  0.86109  0.46695  0.17135  1.0000
  C   C58       1.0  0.63891  0.53305  0.67135  1.0000
  C   C59       1.0  0.13891  0.96695  0.32865  1.0000
  C   C60       1.0  0.36109  0.03305  0.82865  1.0000
  N   N1        1.0  0.86982  0.45915  0.26667  1.0000
  N   N2        1.0  0.63018  0.54085  0.76667  1.0000
  N   N3        1.0  0.13018  0.95915  0.23333  1.0000
  N   N4        1.0  0.36982  0.04085  0.73333  1.0000
  O   O1        1.0  0.05501  0.62220  0.57798  1.0000
  O   O2        1.0  0.44499  0.37780  0.07798  1.0000
  O   O3        1.0  0.94499  0.12220  0.92202  1.0000
  O   O4        1.0  0.55501  0.87780  0.42202  1.0000
  O   O5        1.0  0.25024  0.73102  0.65318  1.0000
  O   O6        1.0  0.24975  0.26898  0.15318  1.0000
  O   O7        1.0  0.74975  0.23102  0.84682  1.0000
  O   O8        1.0  0.75024  0.76898  0.34682  1.0000
  O   O9        1.0  0.27179  0.28523  0.91279  1.0000
  O   O10       1.0  0.22821  0.71478  0.41279  1.0000
  O   O11       1.0  0.72821  0.78523  0.58721  1.0000
  O   O12       1.0  0.77179  0.21478  0.08721  1.0000
  O   O13       1.0  0.01031  0.35181  0.98237  1.0000
  O   O14       1.0  0.48969  0.64819  0.48237  1.0000
  O   O15       1.0  0.98969  0.85181  0.51763  1.0000
  O   O16       1.0  0.51031  0.14819  0.01763  1.0000
  O   O17       1.0  0.87223  0.53957  0.39937  1.0000
  O   O18       1.0  0.62777  0.46043  0.89939  1.0000
  O   O19       1.0  0.12777  0.03957  0.10062  1.0000
  O   O20       1.0  0.37223  0.96043  0.60062  1.0000
