data_image0
_chemical_formula_structural       Fe2H48C52S4N12
_chemical_formula_sum              "Fe2 H48 C52 S4 N12"
_cell_length_a       13.0468
_cell_length_b       13.4744
_cell_length_c       13.328
_cell_angle_alpha    75.918
_cell_angle_beta     60.7111
_cell_angle_gamma    61.9519

_space_group_name_H-M_alt    "P 1"
_space_group_IT_number       1

loop_
  _space_group_symop_operation_xyz
  'x, y, z'

loop_
  _atom_site_type_symbol
  _atom_site_label
  _atom_site_symmetry_multiplicity
  _atom_site_fract_x
  _atom_site_fract_y
  _atom_site_fract_z
  _atom_site_occupancy
  Fe  Fe1       1.0  0.99974  0.01130  0.99291  1.0000
  Fe  Fe2       1.0  0.00877  0.48845  0.50264  1.0000
  H   H1        1.0  0.22306  0.56987  0.89937  1.0000
  H   H2        1.0  0.77929  0.10034  0.43258  1.0000
  H   H3        1.0  0.68833  0.93019  0.60415  1.0000
  H   H4        1.0  0.30990  0.39623  0.07137  1.0000
  H   H5        1.0  0.77942  0.42135  0.10194  1.0000
  H   H6        1.0  0.21721  0.89839  0.57636  1.0000
  H   H7        1.0  0.30471  0.07743  0.39600  1.0000
  H   H8        1.0  0.69397  0.60383  0.92211  1.0000
  H   H9        1.0  0.20791  0.76261  0.89127  1.0000
  H   H10       1.0  0.79559  0.11085  0.23710  1.0000
  H   H11       1.0  0.85953  0.74088  0.60823  1.0000
  H   H12       1.0  0.14129  0.38634  0.26600  1.0000
  H   H13       1.0  0.79546  0.23053  0.10562  1.0000
  H   H14       1.0  0.20050  0.89709  0.76952  1.0000
  H   H15       1.0  0.13537  0.26558  0.39255  1.0000
  H   H16       1.0  0.87099  0.60334  0.72953  1.0000
  H   H17       1.0  0.83069  0.68457  0.16453  1.0000
  H   H18       1.0  0.16420  0.83498  0.31206  1.0000
  H   H19       1.0  0.67883  0.81167  0.33732  1.0000
  H   H20       1.0  0.31253  0.66542  0.18963  1.0000
  H   H21       1.0  0.16881  0.31284  0.83245  1.0000
  H   H22       1.0  0.83520  0.16755  0.68795  1.0000
  H   H23       1.0  0.31495  0.19283  0.66403  1.0000
  H   H24       1.0  0.68728  0.33244  0.81182  1.0000
  H   H25       1.0  0.13003  0.43267  0.00722  1.0000
  H   H26       1.0  0.86874  0.99097  0.57151  1.0000
  H   H27       1.0  0.57217  0.06612  0.49358  1.0000
  H   H28       1.0  0.43030  0.50670  0.93078  1.0000
  H   H29       1.0  0.86959  0.56199  0.99505  1.0000
  H   H30       1.0  0.13142  0.00500  0.43319  1.0000
  H   H31       1.0  0.42298  0.93930  0.50530  1.0000
  H   H32       1.0  0.56971  0.49684  0.06600  1.0000
  H   H33       1.0  0.97637  0.47320  0.12758  1.0000
  H   H34       1.0  0.02129  0.87409  0.52757  1.0000
  H   H35       1.0  0.58033  0.02400  0.37306  1.0000
  H   H36       1.0  0.42344  0.62510  0.97375  1.0000
  H   H37       1.0  0.02274  0.52316  0.87433  1.0000
  H   H38       1.0  0.97951  0.12235  0.47455  1.0000
  H   H39       1.0  0.41522  0.98045  0.62608  1.0000
  H   H40       1.0  0.57515  0.37799  0.02552  1.0000
  H   H41       1.0  0.82864  0.87617  0.13906  1.0000
  H   H42       1.0  0.16833  0.86214  0.11783  1.0000
  H   H43       1.0  0.84402  0.62327  0.35932  1.0000
  H   H44       1.0  0.14908  0.63909  0.38329  1.0000
  H   H45       1.0  0.17206  0.12325  0.85032  1.0000
  H   H46       1.0  0.83124  0.15267  0.87958  1.0000
  H   H47       1.0  0.14940  0.37985  0.64536  1.0000
  H   H48       1.0  0.86131  0.34672  0.62038  1.0000
  C   C1        1.0  0.02774  0.61048  0.03375  1.0000
  C   C2        1.0  0.97089  0.96586  0.38947  1.0000
  C   C3        1.0  0.66894  0.88802  0.46915  1.0000
  C   C4        1.0  0.32688  0.53224  0.11276  1.0000
  C   C5        1.0  0.97316  0.38476  0.96587  1.0000
  C   C6        1.0  0.02739  0.03440  0.61433  1.0000
  C   C7        1.0  0.32593  0.11708  0.53114  1.0000
  C   C8        1.0  0.67491  0.46696  0.88492  1.0000
  C   C9        1.0  0.13393  0.63457  0.95584  1.0000
  C   C10       1.0  0.86717  0.04425  0.36606  1.0000
  C   C11       1.0  0.72088  0.86533  0.54672  1.0000
  C   C12       1.0  0.27646  0.45320  0.13724  1.0000
  C   C13       1.0  0.86864  0.35839  0.04340  1.0000
  C   C14       1.0  0.12967  0.95751  0.64036  1.0000
  C   C15       1.0  0.27309  0.14135  0.45404  1.0000
  C   C16       1.0  0.72848  0.54403  0.85849  1.0000
  C   C17       1.0  0.70182  0.10248  0.10307  1.0000
  C   C18       1.0  0.29778  0.90073  0.89541  1.0000
  C   C19       1.0  0.90905  0.39426  0.39606  1.0000
  C   C20       1.0  0.09390  0.60294  0.60474  1.0000
  C   C21       1.0  0.12549  0.74247  0.94915  1.0000
  C   C22       1.0  0.87633  0.05235  0.25643  1.0000
  C   C23       1.0  0.81496  0.75913  0.55106  1.0000
  C   C24       1.0  0.18369  0.44537  0.24684  1.0000
  C   C25       1.0  0.87724  0.25107  0.04771  1.0000
  C   C26       1.0  0.12068  0.95471  0.74889  1.0000
  C   C27       1.0  0.17950  0.24748  0.44973  1.0000
  C   C28       1.0  0.82642  0.54575  0.75022  1.0000
  C   C29       1.0  0.91635  0.69861  0.10200  1.0000
  C   C30       1.0  0.08040  0.89798  0.29882  1.0000
  C   C31       1.0  0.71508  0.79925  0.39988  1.0000
  C   C32       1.0  0.27815  0.60130  0.20309  1.0000
  C   C33       1.0  0.08369  0.29804  0.89500  1.0000
  C   C34       1.0  0.91861  0.10586  0.70247  1.0000
  C   C35       1.0  0.27895  0.20541  0.60125  1.0000
  C   C36       1.0  0.72477  0.39458  0.79711  1.0000
  C   C37       1.0  0.03003  0.49727  0.03870  1.0000
  C   C38       1.0  0.96878  0.96077  0.50383  1.0000
  C   C39       1.0  0.56613  0.00128  0.46269  1.0000
  C   C40       1.0  0.43346  0.53789  0.99777  1.0000
  C   C41       1.0  0.96988  0.49791  0.96292  1.0000
  C   C42       1.0  0.03095  0.03611  0.50007  1.0000
  C   C43       1.0  0.42912  0.00381  0.53658  1.0000
  C   C44       1.0  0.56637  0.46472  0.99974  1.0000
  C   C45       1.0  0.91424  0.80497  0.08909  1.0000
  C   C46       1.0  0.08369  0.91195  0.19074  1.0000
  C   C47       1.0  0.80753  0.69448  0.41070  1.0000
  C   C48       1.0  0.18666  0.58789  0.31122  1.0000
  C   C49       1.0  0.08688  0.19211  0.90377  1.0000
  C   C50       1.0  0.91518  0.09867  0.80952  1.0000
  C   C51       1.0  0.18617  0.31020  0.59219  1.0000
  C   C52       1.0  0.82216  0.40126  0.69021  1.0000
  S   S1        1.0  0.54534  0.15929  0.16599  1.0000
  S   S2        1.0  0.45368  0.83368  0.83950  1.0000
  S   S3        1.0  0.86838  0.33819  0.33465  1.0000
  S   S4        1.0  0.12553  0.67002  0.66391  1.0000
  N   N1        1.0  0.01704  0.82681  0.01347  1.0000
  N   N2        1.0  0.98353  0.98877  0.16906  1.0000
  N   N3        1.0  0.85714  0.67439  0.48503  1.0000
  N   N4        1.0  0.14000  0.50997  0.33450  1.0000
  N   N5        1.0  0.98549  0.16670  0.98023  1.0000
  N   N6        1.0  0.01439  0.02325  0.83445  1.0000
  N   N7        1.0  0.13620  0.33331  0.51641  1.0000
  N   N8        1.0  0.87321  0.47635  0.66523  1.0000
  N   N9        1.0  0.81696  0.06233  0.05842  1.0000
  N   N10       1.0  0.18297  0.94823  0.93519  1.0000
  N   N11       1.0  0.94176  0.43401  0.43983  1.0000
  N   N12       1.0  0.06749  0.55518  0.56267  1.0000
