data_image0
_chemical_formula_structural       Sn4H40C20O8
_chemical_formula_sum              "Sn4 H40 C20 O8"
_cell_length_a       7.9507
_cell_length_b       7.95075
_cell_length_c       12.8571
_cell_angle_alpha    73.7019
_cell_angle_beta     73.7026
_cell_angle_gamma    73.4069

_space_group_name_H-M_alt    "P 1"
_space_group_IT_number       1

loop_
  _space_group_symop_operation_xyz
  'x, y, z'

loop_
  _atom_site_type_symbol
  _atom_site_label
  _atom_site_symmetry_multiplicity
  _atom_site_fract_x
  _atom_site_fract_y
  _atom_site_fract_z
  _atom_site_occupancy
  Sn  Sn1       1.0  0.07662  0.28478  0.79194  1.0000
  Sn  Sn2       1.0  0.71521  0.92337  0.70806  1.0000
  Sn  Sn3       1.0  0.92338  0.71522  0.20806  1.0000
  Sn  Sn4       1.0  0.28479  0.07661  0.29194  1.0000
  H   H1        1.0  0.26995  0.33373  0.91948  1.0000
  H   H2        1.0  0.66625  0.73005  0.58052  1.0000
  H   H3        1.0  0.73004  0.66629  0.08052  1.0000
  H   H4        1.0  0.33372  0.26995  0.41947  1.0000
  H   H5        1.0  0.28880  0.49874  0.79292  1.0000
  H   H6        1.0  0.50124  0.71120  0.70710  1.0000
  H   H7        1.0  0.71119  0.50128  0.20709  1.0000
  H   H8        1.0  0.49874  0.28880  0.29291  1.0000
  H   H9        1.0  0.09031  0.52869  0.90030  1.0000
  H   H10       1.0  0.47130  0.90969  0.59970  1.0000
  H   H11       1.0  0.90967  0.47132  0.09970  1.0000
  H   H12       1.0  0.52870  0.09031  0.40030  1.0000
  H   H13       1.0  0.97769  0.53212  0.61313  1.0000
  H   H14       1.0  0.46789  0.02230  0.88685  1.0000
  H   H15       1.0  0.02231  0.46789  0.38686  1.0000
  H   H16       1.0  0.53212  0.97769  0.11314  1.0000
  H   H17       1.0  0.06487  0.31626  0.57852  1.0000
  H   H18       1.0  0.68374  0.93513  0.92149  1.0000
  H   H19       1.0  0.93513  0.68374  0.42149  1.0000
  H   H20       1.0  0.31627  0.06486  0.07851  1.0000
  H   H21       1.0  0.84030  0.37137  0.65737  1.0000
  H   H22       1.0  0.62862  0.15968  0.84262  1.0000
  H   H23       1.0  0.15970  0.62862  0.34263  1.0000
  H   H24       1.0  0.37138  0.84030  0.15737  1.0000
  H   H25       1.0  0.16167  0.96086  0.93439  1.0000
  H   H26       1.0  0.03914  0.83832  0.56561  1.0000
  H   H27       1.0  0.83833  0.03914  0.06561  1.0000
  H   H28       1.0  0.96087  0.16168  0.43438  1.0000
  H   H29       1.0  0.98284  0.96184  0.87618  1.0000
  H   H30       1.0  0.03816  0.01714  0.62382  1.0000
  H   H31       1.0  0.01716  0.03816  0.12382  1.0000
  H   H32       1.0  0.96184  0.98285  0.37617  1.0000
  H   H33       1.0  0.20847  0.93126  0.79539  1.0000
  H   H34       1.0  0.06874  0.79153  0.70461  1.0000
  H   H35       1.0  0.79154  0.06873  0.20461  1.0000
  H   H36       1.0  0.93128  0.20847  0.29539  1.0000
  H   H37       1.0  0.47672  0.70206  0.94668  1.0000
  H   H38       1.0  0.29794  0.52327  0.55331  1.0000
  H   H39       1.0  0.52327  0.29796  0.05332  1.0000
  H   H40       1.0  0.70207  0.47673  0.44669  1.0000
  C   C1        1.0  0.19502  0.42992  0.85954  1.0000
  C   C2        1.0  0.57009  0.80498  0.64046  1.0000
  C   C3        1.0  0.80498  0.57010  0.14046  1.0000
  C   C4        1.0  0.42992  0.19503  0.35953  1.0000
  C   C5        1.0  0.97763  0.38892  0.64203  1.0000
  C   C6        1.0  0.61108  0.02238  0.85797  1.0000
  C   C7        1.0  0.02238  0.61107  0.35798  1.0000
  C   C8        1.0  0.38893  0.97762  0.14202  1.0000
  C   C9        1.0  0.11154  0.00031  0.85788  1.0000
  C   C10       1.0  0.99969  0.88846  0.64213  1.0000
  C   C11       1.0  0.88846  0.99969  0.14213  1.0000
  C   C12       1.0  0.00031  0.11154  0.35787  1.0000
  C   C13       1.0  0.72377  0.50710  0.89120  1.0000
  C   C14       1.0  0.49290  0.27624  0.60879  1.0000
  C   C15       1.0  0.27619  0.49293  0.10882  1.0000
  C   C16       1.0  0.50708  0.72382  0.39119  1.0000
  C   C17       1.0  0.54181  0.55946  0.96092  1.0000
  C   C18       1.0  0.44056  0.45817  0.53907  1.0000
  C   C19       1.0  0.45819  0.44054  0.03908  1.0000
  C   C20       1.0  0.55946  0.54181  0.46093  1.0000
  O   O1        1.0  0.80412  0.33967  0.90634  1.0000
  O   O2        1.0  0.66034  0.19586  0.59365  1.0000
  O   O3        1.0  0.19590  0.66030  0.09367  1.0000
  O   O4        1.0  0.33972  0.80410  0.40634  1.0000
  O   O5        1.0  0.79491  0.62794  0.81984  1.0000
  O   O6        1.0  0.37206  0.20508  0.68016  1.0000
  O   O7        1.0  0.20509  0.37208  0.18015  1.0000
  O   O8        1.0  0.62792  0.79491  0.31986  1.0000
