data_image0
_chemical_formula_structural       Zn2H42C50N10O20
_chemical_formula_sum              "Zn2 H42 C50 N10 O20"
_cell_length_a       10.2731
_cell_length_b       12.7011
_cell_length_c       13.2633
_cell_angle_alpha    112.288
_cell_angle_beta     108.427
_cell_angle_gamma    90.1696

_space_group_name_H-M_alt    "P 1"
_space_group_IT_number       1

loop_
  _space_group_symop_operation_xyz
  'x, y, z'

loop_
  _atom_site_type_symbol
  _atom_site_label
  _atom_site_symmetry_multiplicity
  _atom_site_fract_x
  _atom_site_fract_y
  _atom_site_fract_z
  _atom_site_occupancy
  Zn  Zn1       1.0  0.70815  0.33923  0.73056  1.0000
  Zn  Zn2       1.0  0.29185  0.66077  0.26944  1.0000
  H   H1        1.0  0.27510  0.19050  0.01217  1.0000
  H   H2        1.0  0.72490  0.80950  0.98782  1.0000
  H   H3        1.0  0.11496  0.90425  0.67620  1.0000
  H   H4        1.0  0.88504  0.09574  0.32380  1.0000
  H   H5        1.0  0.36188  0.84997  0.97786  1.0000
  H   H6        1.0  0.63812  0.15003  0.02215  1.0000
  H   H7        1.0  0.52838  0.96451  0.15475  1.0000
  H   H8        1.0  0.47161  0.03549  0.84525  1.0000
  H   H9        1.0  0.36598  0.94678  0.17467  1.0000
  H   H10       1.0  0.63402  0.05323  0.82534  1.0000
  H   H11       1.0  0.57449  0.95038  0.36587  1.0000
  H   H12       1.0  0.42551  0.04962  0.63413  1.0000
  H   H13       1.0  0.67571  0.08088  0.57525  1.0000
  H   H14       1.0  0.32429  0.91912  0.42475  1.0000
  H   H15       1.0  0.57076  0.36707  0.50533  1.0000
  H   H16       1.0  0.42924  0.63294  0.49468  1.0000
  H   H17       1.0  0.46645  0.24898  0.29305  1.0000
  H   H18       1.0  0.53355  0.75102  0.70695  1.0000
  H   H19       1.0  0.17086  0.28000  0.92650  1.0000
  H   H20       1.0  0.82914  0.72000  0.07349  1.0000
  H   H21       1.0  0.07144  0.27813  0.78910  1.0000
  H   H22       1.0  0.92856  0.72187  0.21089  1.0000
  H   H23       1.0  0.42407  0.33779  0.99289  1.0000
  H   H24       1.0  0.57593  0.66221  0.00710  1.0000
  H   H25       1.0  0.63353  0.37057  0.94302  1.0000
  H   H26       1.0  0.36647  0.62943  0.05697  1.0000
  H   H27       1.0  0.40373  0.24905  0.59318  1.0000
  H   H28       1.0  0.59627  0.75094  0.40682  1.0000
  H   H29       1.0  0.18660  0.20916  0.62689  1.0000
  H   H30       1.0  0.81340  0.79084  0.37310  1.0000
  H   H31       1.0  0.35976  0.52616  0.77916  1.0000
  H   H32       1.0  0.64025  0.47385  0.22085  1.0000
  H   H33       1.0  0.27405  0.54012  0.64563  1.0000
  H   H34       1.0  0.72596  0.45988  0.35437  1.0000
  H   H35       1.0  0.16376  0.60973  0.90886  1.0000
  H   H36       1.0  0.83624  0.39028  0.09115  1.0000
  H   H37       1.0  0.94739  0.51610  0.89903  1.0000
  H   H38       1.0  0.05261  0.48391  0.10096  1.0000
  H   H39       1.0  0.85317  0.30790  0.54915  1.0000
  H   H40       1.0  0.14684  0.69209  0.45085  1.0000
  H   H41       1.0  0.06712  0.39100  0.54473  1.0000
  H   H42       1.0  0.93289  0.60899  0.45528  1.0000
  C   C1        1.0  0.32354  0.02558  0.00596  1.0000
  C   C2        1.0  0.67646  0.97442  0.99404  1.0000
  C   C3        1.0  0.26198  0.10012  0.95506  1.0000
  C   C4        1.0  0.73802  0.89988  0.04495  1.0000
  C   C5        1.0  0.18607  0.05612  0.83676  1.0000
  C   C6        1.0  0.81393  0.94387  0.16324  1.0000
  C   C7        1.0  0.17388  0.93881  0.76862  1.0000
  C   C8        1.0  0.82612  0.06119  0.23139  1.0000
  C   C9        1.0  0.23770  0.86634  0.82046  1.0000
  C   C10       1.0  0.76230  0.13366  0.17954  1.0000
  C   C11       1.0  0.31368  0.90842  0.93984  1.0000
  C   C12       1.0  0.68632  0.09158  0.06016  1.0000
  C   C13       1.0  0.44803  0.01062  0.18539  1.0000
  C   C14       1.0  0.55197  0.98938  0.81461  1.0000
  C   C15       1.0  0.51084  0.08873  0.31149  1.0000
  C   C16       1.0  0.48917  0.91127  0.68851  1.0000
  C   C17       1.0  0.57142  0.04249  0.39299  1.0000
  C   C18       1.0  0.42858  0.95751  0.60701  1.0000
  C   C19       1.0  0.62789  0.11426  0.50983  1.0000
  C   C20       1.0  0.37212  0.88575  0.49017  1.0000
  C   C21       1.0  0.56946  0.27411  0.47088  1.0000
  C   C22       1.0  0.43054  0.72589  0.52912  1.0000
  C   C23       1.0  0.51087  0.20778  0.35240  1.0000
  C   C24       1.0  0.48912  0.79222  0.64760  1.0000
  C   C25       1.0  0.15799  0.24363  0.83394  1.0000
  C   C26       1.0  0.84201  0.75636  0.16605  1.0000
  C   C27       1.0  0.28784  0.27101  0.81340  1.0000
  C   C28       1.0  0.71216  0.72898  0.18659  1.0000
  C   C29       1.0  0.41541  0.31682  0.90306  1.0000
  C   C30       1.0  0.58459  0.68317  0.09693  1.0000
  C   C31       1.0  0.53202  0.33475  0.87615  1.0000
  C   C32       1.0  0.46797  0.66524  0.12384  1.0000
  C   C33       1.0  0.40395  0.26658  0.68029  1.0000
  C   C34       1.0  0.59604  0.73341  0.31970  1.0000
  C   C35       1.0  0.28345  0.24560  0.69983  1.0000
  C   C36       1.0  0.71655  0.75439  0.30016  1.0000
  C   C37       1.0  0.22036  0.74297  0.74416  1.0000
  C   C38       1.0  0.77965  0.25703  0.25585  1.0000
  C   C39       1.0  0.27174  0.55831  0.73273  1.0000
  C   C40       1.0  0.72827  0.44169  0.26727  1.0000
  C   C41       1.0  0.13745  0.50558  0.72797  1.0000
  C   C42       1.0  0.86255  0.49442  0.27203  1.0000
  C   C43       1.0  0.10047  0.54130  0.82746  1.0000
  C   C44       1.0  0.89952  0.45871  0.17254  1.0000
  C   C45       1.0  0.97800  0.49024  0.82269  1.0000
  C   C46       1.0  0.02200  0.50977  0.17732  1.0000
  C   C47       1.0  0.92554  0.37344  0.62804  1.0000
  C   C48       1.0  0.07447  0.62655  0.37196  1.0000
  C   C49       1.0  0.04701  0.42023  0.62629  1.0000
  C   C50       1.0  0.95300  0.57976  0.37371  1.0000
  N   N1        1.0  0.62686  0.22910  0.54950  1.0000
  N   N2        1.0  0.37314  0.77090  0.45050  1.0000
  N   N3        1.0  0.52708  0.30961  0.76675  1.0000
  N   N4        1.0  0.47291  0.69039  0.23324  1.0000
  N   N5        1.0  0.89118  0.40718  0.72448  1.0000
  N   N6        1.0  0.10883  0.59282  0.27552  1.0000
  N   N7        1.0  0.83569  0.21854  0.86376  1.0000
  N   N8        1.0  0.16431  0.78146  0.13624  1.0000
  N   N9        1.0  0.63733  0.56057  0.79800  1.0000
  N   N10       1.0  0.36267  0.43943  0.20199  1.0000
  O   O1        1.0  0.39148  0.07865  0.12267  1.0000
  O   O2        1.0  0.60851  0.92135  0.87733  1.0000
  O   O3        1.0  0.11649  0.12097  0.78000  1.0000
  O   O4        1.0  0.88352  0.87902  0.22000  1.0000
  O   O5        1.0  0.14779  0.69926  0.64121  1.0000
  O   O6        1.0  0.85221  0.30073  0.35879  1.0000
  O   O7        1.0  0.29465  0.68077  0.80065  1.0000
  O   O8        1.0  0.70535  0.31923  0.19935  1.0000
  O   O9        1.0  0.83803  0.32870  0.88995  1.0000
  O   O10       1.0  0.16198  0.67130  0.11005  1.0000
  O   O11       1.0  0.76615  0.15190  0.75971  1.0000
  O   O12       1.0  0.23385  0.84811  0.24028  1.0000
  O   O13       1.0  0.89742  0.18346  0.93884  1.0000
  O   O14       1.0  0.10257  0.81654  0.06116  1.0000
  O   O15       1.0  0.60443  0.48761  0.69221  1.0000
  O   O16       1.0  0.39556  0.51239  0.30779  1.0000
  O   O17       1.0  0.71383  0.53221  0.87760  1.0000
  O   O18       1.0  0.28616  0.46779  0.12239  1.0000
  O   O19       1.0  0.59344  0.65541  0.82180  1.0000
  O   O20       1.0  0.40656  0.34459  0.17819  1.0000
