data_image0
_chemical_formula_structural       Mn3H34C54N8O12
_chemical_formula_sum              "Mn3 H34 C54 N8 O12"
_cell_length_a       9.71041
_cell_length_b       11.6698
_cell_length_c       11.5816
_cell_angle_alpha    104.323
_cell_angle_beta     105.725
_cell_angle_gamma    110.345

_space_group_name_H-M_alt    "P 1"
_space_group_IT_number       1

loop_
  _space_group_symop_operation_xyz
  'x, y, z'

loop_
  _atom_site_type_symbol
  _atom_site_label
  _atom_site_symmetry_multiplicity
  _atom_site_fract_x
  _atom_site_fract_y
  _atom_site_fract_z
  _atom_site_occupancy
  Mn  Mn1       1.0  0.99896  0.49792  0.49865  1.0000
  Mn  Mn2       1.0  0.08183  0.44637  0.76512  1.0000
  Mn  Mn3       1.0  0.90539  0.56337  0.24444  1.0000
  H   H1        1.0  0.57637  0.44412  0.73061  1.0000
  H   H2        1.0  0.42991  0.55422  0.27928  1.0000
  H   H3        1.0  0.44552  0.71246  0.58631  1.0000
  H   H4        1.0  0.54571  0.27719  0.41633  1.0000
  H   H5        1.0  0.90059  0.71555  0.62333  1.0000
  H   H6        1.0  0.09061  0.28011  0.37168  1.0000
  H   H7        1.0  0.97567  0.93972  0.69808  1.0000
  H   H8        1.0  0.01484  0.05097  0.30628  1.0000
  H   H9        1.0  0.04993  0.14462  0.65399  1.0000
  H   H10       1.0  0.94687  0.85130  0.35983  1.0000
  H   H11       1.0  0.56863  0.99475  0.38168  1.0000
  H   H12       1.0  0.43296  0.00846  0.62576  1.0000
  H   H13       1.0  0.48966  0.79144  0.43009  1.0000
  H   H14       1.0  0.50469  0.20732  0.56986  1.0000
  H   H15       1.0  0.73970  0.99357  0.18945  1.0000
  H   H16       1.0  0.26488  0.00882  0.80645  1.0000
  H   H17       1.0  0.46553  0.85148  0.77722  1.0000
  H   H18       1.0  0.53564  0.15186  0.21907  1.0000
  H   H19       1.0  0.56846  0.80543  0.18389  1.0000
  H   H20       1.0  0.42149  0.19991  0.81577  1.0000
  H   H21       1.0  0.32494  0.36547  0.96579  1.0000
  H   H22       1.0  0.67327  0.64253  0.02336  1.0000
  H   H23       1.0  0.95967  0.15962  0.16783  1.0000
  H   H24       1.0  0.04242  0.84137  0.82680  1.0000
  H   H25       1.0  0.17786  0.19031  0.06924  1.0000
  H   H26       1.0  0.82628  0.81856  0.92330  1.0000
  H   H27       1.0  0.68841  0.01427  0.75740  1.0000
  H   H28       1.0  0.30958  0.98755  0.23764  1.0000
  H   H29       1.0  0.82861  0.24767  0.81098  1.0000
  H   H30       1.0  0.16703  0.75144  0.17970  1.0000
  H   H31       1.0  0.28213  0.72548  0.79579  1.0000
  H   H32       1.0  0.72643  0.26555  0.19207  1.0000
  H   H33       1.0  0.28864  0.57724  0.09395  1.0000
  H   H34       1.0  0.71137  0.41948  0.89887  1.0000
  C   C1        1.0  0.49490  0.57265  0.65861  1.0000
  C   C2        1.0  0.50208  0.41953  0.34670  1.0000
  C   C3        1.0  0.75250  0.57659  0.68234  1.0000
  C   C4        1.0  0.24871  0.42179  0.32140  1.0000
  C   C5        1.0  0.68251  0.73405  0.60575  1.0000
  C   C6        1.0  0.30886  0.25915  0.39453  1.0000
  C   C7        1.0  0.60577  0.52424  0.69558  1.0000
  C   C8        1.0  0.39612  0.47219  0.31125  1.0000
  C   C9        1.0  0.53401  0.67641  0.61357  1.0000
  C   C10       1.0  0.45916  0.31521  0.38931  1.0000
  C   C11       1.0  0.72694  0.85053  0.56912  1.0000
  C   C12       1.0  0.26490  0.14381  0.43279  1.0000
  C   C13       1.0  0.81304  0.08478  0.51732  1.0000
  C   C14       1.0  0.18656  0.91540  0.49467  1.0000
  C   C15       1.0  0.85621  0.20453  0.48278  1.0000
  C   C16       1.0  0.15161  0.79813  0.53397  1.0000
  C   C17       1.0  0.33045  0.51950  0.66053  1.0000
  C   C18       1.0  0.66248  0.47215  0.34109  1.0000
  C   C19       1.0  0.78878  0.68015  0.63693  1.0000
  C   C20       1.0  0.20498  0.31539  0.36182  1.0000
  C   C21       1.0  0.88500  0.95094  0.62883  1.0000
  C   C22       1.0  0.10771  0.04233  0.37619  1.0000
  C   C23       1.0  0.92737  0.06717  0.60529  1.0000
  C   C24       1.0  0.06927  0.92914  0.40538  1.0000
  C   C25       1.0  0.65651  0.98261  0.45291  1.0000
  C   C26       1.0  0.34266  0.01814  0.55436  1.0000
  C   C27       1.0  0.87376  0.52920  0.71429  1.0000
  C   C28       1.0  0.14115  0.48481  0.29342  1.0000
  C   C29       1.0  0.61286  0.86830  0.47981  1.0000
  C   C30       1.0  0.38199  0.12962  0.52306  1.0000
  C   C31       1.0  0.58955  0.90445  0.98341  1.0000
  C   C32       1.0  0.41139  0.09636  0.01247  1.0000
  C   C33       1.0  0.84061  0.09551  0.96079  1.0000
  C   C34       1.0  0.16124  0.90743  0.03350  1.0000
  C   C35       1.0  0.72894  0.99291  0.09317  1.0000
  C   C36       1.0  0.27331  0.00854  0.90194  1.0000
  C   C37       1.0  0.57446  0.91546  0.86324  1.0000
  C   C38       1.0  0.42693  0.08648  0.13298  1.0000
  C   C39       1.0  0.46908  0.75488  0.09056  1.0000
  C   C40       1.0  0.52660  0.24603  0.90502  1.0000
  C   C41       1.0  0.19997  0.31428  0.94833  1.0000
  C   C42       1.0  0.79890  0.69225  0.04179  1.0000
  C   C43       1.0  0.85386  0.08807  0.08163  1.0000
  C   C44       1.0  0.14825  0.91352  0.91262  1.0000
  C   C45       1.0  0.12929  0.22843  0.00044  1.0000
  C   C46       1.0  0.87214  0.77847  0.99116  1.0000
  C   C47       1.0  0.69920  0.00987  0.85209  1.0000
  C   C48       1.0  0.30123  0.99241  0.14342  1.0000
  C   C49       1.0  0.94348  0.25432  0.86367  1.0000
  C   C50       1.0  0.05355  0.74735  0.12698  1.0000
  C   C51       1.0  0.32247  0.71456  0.88768  1.0000
  C   C52       1.0  0.68345  0.27863  0.10173  1.0000
  C   C53       1.0  0.33081  0.64043  0.04409  1.0000
  C   C54       1.0  0.66927  0.35535  0.94795  1.0000
  N   N1        1.0  0.46432  0.80078  0.98988  1.0000
  N   N2        1.0  0.53588  0.19836  0.00455  1.0000
  N   N3        1.0  0.96633  0.19066  0.94560  1.0000
  N   N4        1.0  0.03391  0.81316  0.04682  1.0000
  N   N5        1.0  0.08263  0.33001  0.86284  1.0000
  N   N6        1.0  0.91362  0.67385  0.12601  1.0000
  N   N7        1.0  0.24166  0.61465  0.91640  1.0000
  N   N8        1.0  0.76574  0.37513  0.07091  1.0000
  O   O1        1.0  0.95740  0.31991  0.57336  1.0000
  O   O2        1.0  0.03431  0.68512  0.45109  1.0000
  O   O3        1.0  0.86979  0.44666  0.77042  1.0000
  O   O4        1.0  0.17408  0.57761  0.25287  1.0000
  O   O5        1.0  0.99970  0.57339  0.68738  1.0000
  O   O6        1.0  0.00999  0.43977  0.31284  1.0000
  O   O7        1.0  0.29713  0.45887  0.73464  1.0000
  O   O8        1.0  0.69119  0.54296  0.27450  1.0000
  O   O9        1.0  0.23300  0.54594  0.58598  1.0000
  O   O10       1.0  0.76081  0.43682  0.40164  1.0000
  O   O11       1.0  0.79553  0.18917  0.36651  1.0000
  O   O12       1.0  0.23564  0.81524  0.64555  1.0000
