data_image0
_chemical_formula_structural       Zn4H24C16N4Cl4O16
_chemical_formula_sum              "Zn4 H24 C16 N4 Cl4 O16"
_cell_length_a       8.50297
_cell_length_b       8.55656
_cell_length_c       9.849
_cell_angle_alpha    90.0001
_cell_angle_beta     90.0001
_cell_angle_gamma    90

_space_group_name_H-M_alt    "P 1"
_space_group_IT_number       1

loop_
  _space_group_symop_operation_xyz
  'x, y, z'

loop_
  _atom_site_type_symbol
  _atom_site_label
  _atom_site_symmetry_multiplicity
  _atom_site_fract_x
  _atom_site_fract_y
  _atom_site_fract_z
  _atom_site_occupancy
  Zn  Zn1       1.0  0.82253  0.15370  0.94164  1.0000
  Zn  Zn2       1.0  0.32253  0.34630  0.05836  1.0000
  Zn  Zn3       1.0  0.17747  0.65370  0.55836  1.0000
  Zn  Zn4       1.0  0.67747  0.84630  0.44164  1.0000
  H   H1        1.0  0.79188  0.61737  0.99391  1.0000
  H   H2        1.0  0.29188  0.88263  0.00609  1.0000
  H   H3        1.0  0.20812  0.11737  0.50609  1.0000
  H   H4        1.0  0.70812  0.38263  0.49391  1.0000
  H   H5        1.0  0.89300  0.51359  0.77644  1.0000
  H   H6        1.0  0.39300  0.98641  0.22356  1.0000
  H   H7        1.0  0.10700  0.01359  0.72356  1.0000
  H   H8        1.0  0.60700  0.48641  0.27644  1.0000
  H   H9        1.0  0.99020  0.68477  0.82676  1.0000
  H   H10       1.0  0.49020  0.81523  0.17324  1.0000
  H   H11       1.0  0.00980  0.18477  0.67324  1.0000
  H   H12       1.0  0.50980  0.31523  0.32676  1.0000
  H   H13       1.0  0.51461  0.60696  0.93880  1.0000
  H   H14       1.0  0.01461  0.89303  0.06120  1.0000
  H   H15       1.0  0.48539  0.10696  0.56120  1.0000
  H   H16       1.0  0.98539  0.39304  0.43880  1.0000
  H   H17       1.0  0.61449  0.47983  0.83705  1.0000
  H   H18       1.0  0.11449  0.02017  0.16295  1.0000
  H   H19       1.0  0.38551  0.97983  0.66295  1.0000
  H   H20       1.0  0.88551  0.52017  0.33705  1.0000
  H   H21       1.0  0.55212  0.65380  0.77711  1.0000
  H   H22       1.0  0.05212  0.84620  0.22289  1.0000
  H   H23       1.0  0.44788  0.15380  0.72289  1.0000
  H   H24       1.0  0.94788  0.34620  0.27711  1.0000
  C   C1        1.0  0.72509  0.84514  0.92589  1.0000
  C   C2        1.0  0.22509  0.65486  0.07411  1.0000
  C   C3        1.0  0.27491  0.34514  0.57411  1.0000
  C   C4        1.0  0.77491  0.15486  0.42589  1.0000
  C   C5        1.0  0.75173  0.67055  0.89843  1.0000
  C   C6        1.0  0.25173  0.82945  0.10157  1.0000
  C   C7        1.0  0.24827  0.17055  0.60157  1.0000
  C   C8        1.0  0.74827  0.32945  0.39843  1.0000
  C   C9        1.0  0.87671  0.64027  0.79049  1.0000
  C   C10       1.0  0.37671  0.85973  0.20952  1.0000
  C   C11       1.0  0.12329  0.14027  0.70951  1.0000
  C   C12       1.0  0.62329  0.35973  0.29049  1.0000
  C   C13       1.0  0.84257  0.70961  0.65274  1.0000
  C   C14       1.0  0.34257  0.79039  0.34726  1.0000
  C   C15       1.0  0.15743  0.20961  0.84726  1.0000
  C   C16       1.0  0.65743  0.29039  0.15274  1.0000
  N   N1        1.0  0.59810  0.59734  0.86123  1.0000
  N   N2        1.0  0.09810  0.90266  0.13877  1.0000
  N   N3        1.0  0.40190  0.09734  0.63877  1.0000
  N   N4        1.0  0.90190  0.40266  0.36123  1.0000
  Cl  Cl1       1.0  0.71918  0.26157  0.75560  1.0000
  Cl  Cl2       1.0  0.21918  0.23843  0.24440  1.0000
  Cl  Cl3       1.0  0.28082  0.76157  0.74440  1.0000
  Cl  Cl4       1.0  0.78082  0.73843  0.25560  1.0000
  O   O1        1.0  0.59074  0.90025  0.93256  1.0000
  O   O2        1.0  0.09074  0.59975  0.06744  1.0000
  O   O3        1.0  0.40926  0.40025  0.56744  1.0000
  O   O4        1.0  0.90926  0.09975  0.43256  1.0000
  O   O5        1.0  0.85541  0.92414  0.94006  1.0000
  O   O6        1.0  0.35541  0.57586  0.05994  1.0000
  O   O7        1.0  0.14459  0.42414  0.55994  1.0000
  O   O8        1.0  0.64459  0.07586  0.44006  1.0000
  O   O9        1.0  0.94542  0.70633  0.55969  1.0000
  O   O10       1.0  0.44542  0.79367  0.44031  1.0000
  O   O11       1.0  0.05458  0.20633  0.94031  1.0000
  O   O12       1.0  0.55458  0.29367  0.05969  1.0000
  O   O13       1.0  0.70553  0.76735  0.63113  1.0000
  O   O14       1.0  0.20553  0.73265  0.36887  1.0000
  O   O15       1.0  0.29447  0.26735  0.86887  1.0000
  O   O16       1.0  0.79447  0.23265  0.13113  1.0000
