data_image0
_chemical_formula_structural       Mn2H56C68N12O8
_chemical_formula_sum              "Mn2 H56 C68 N12 O8"
_cell_length_a       9.55341
_cell_length_b       10.9144
_cell_length_c       15.985
_cell_angle_alpha    93.4346
_cell_angle_beta     101.423
_cell_angle_gamma    111.761

_space_group_name_H-M_alt    "P 1"
_space_group_IT_number       1

loop_
  _space_group_symop_operation_xyz
  'x, y, z'

loop_
  _atom_site_type_symbol
  _atom_site_label
  _atom_site_symmetry_multiplicity
  _atom_site_fract_x
  _atom_site_fract_y
  _atom_site_fract_z
  _atom_site_occupancy
  Mn  Mn1       1.0  0.41218  0.10488  0.43373  1.0000
  Mn  Mn2       1.0  0.58782  0.89512  0.56627  1.0000
  H   H1        1.0  0.56895  0.39068  0.54288  1.0000
  H   H2        1.0  0.43105  0.60932  0.45712  1.0000
  H   H3        1.0  0.67796  0.21350  0.34342  1.0000
  H   H4        1.0  0.32204  0.78650  0.65658  1.0000
  H   H5        1.0  0.21653  0.66762  0.17056  1.0000
  H   H6        1.0  0.78347  0.33238  0.82945  1.0000
  H   H7        1.0  0.38615  0.65512  0.22694  1.0000
  H   H8        1.0  0.61385  0.34487  0.77306  1.0000
  H   H9        1.0  0.31399  0.02767  0.96633  1.0000
  H   H10       1.0  0.68601  0.97232  0.03367  1.0000
  H   H11       1.0  0.39017  0.93653  0.90947  1.0000
  H   H12       1.0  0.60983  0.06346  0.09052  1.0000
  H   H13       1.0  0.27249  0.80649  0.33687  1.0000
  H   H14       1.0  0.72751  0.19351  0.66312  1.0000
  H   H15       1.0  0.92274  0.78999  0.52707  1.0000
  H   H16       1.0  0.07727  0.21001  0.47293  1.0000
  H   H17       1.0  0.06069  0.59193  0.33351  1.0000
  H   H18       1.0  0.93930  0.40807  0.66648  1.0000
  H   H19       1.0  0.38640  0.44923  0.27907  1.0000
  H   H20       1.0  0.61359  0.55077  0.72093  1.0000
  H   H21       1.0  0.88301  0.42544  0.33035  1.0000
  H   H22       1.0  0.11699  0.57456  0.66965  1.0000
  H   H23       1.0  0.14214  0.99650  0.52082  1.0000
  H   H24       1.0  0.85786  0.00350  0.47918  1.0000
  H   H25       1.0  0.96398  0.48693  0.15159  1.0000
  H   H26       1.0  0.03602  0.51307  0.84841  1.0000
  H   H27       1.0  0.76584  0.61435  0.53788  1.0000
  H   H28       1.0  0.23416  0.38564  0.46212  1.0000
  H   H29       1.0  0.31049  0.27644  0.65028  1.0000
  H   H30       1.0  0.68951  0.72356  0.34972  1.0000
  H   H31       1.0  0.94236  0.13394  0.26661  1.0000
  H   H32       1.0  0.05764  0.86607  0.73340  1.0000
  H   H33       1.0  0.44421  0.98241  0.77188  1.0000
  H   H34       1.0  0.55578  0.01759  0.22812  1.0000
  H   H35       1.0  0.81123  0.26393  0.18358  1.0000
  H   H36       1.0  0.18876  0.73607  0.81642  1.0000
  H   H37       1.0  0.22070  0.32654  0.78103  1.0000
  H   H38       1.0  0.77930  0.67346  0.21897  1.0000
  H   H39       1.0  0.24275  0.20544  0.90536  1.0000
  H   H40       1.0  0.75725  0.79455  0.09464  1.0000
  H   H41       1.0  0.98104  0.62664  0.00834  1.0000
  H   H42       1.0  0.01896  0.37337  0.99166  1.0000
  H   H43       1.0  0.23956  0.92876  0.21442  1.0000
  H   H44       1.0  0.76045  0.07124  0.78558  1.0000
  H   H45       1.0  0.90057  0.77907  0.92273  1.0000
  H   H46       1.0  0.09943  0.22093  0.07728  1.0000
  H   H47       1.0  0.16573  0.09214  0.14094  1.0000
  H   H48       1.0  0.83426  0.90785  0.85907  1.0000
  H   H49       1.0  0.65820  0.41675  0.93506  1.0000
  H   H50       1.0  0.34181  0.58325  0.06494  1.0000
  H   H51       1.0  0.38796  0.43910  0.11976  1.0000
  H   H52       1.0  0.61204  0.56090  0.88023  1.0000
  H   H53       1.0  0.70262  0.23655  0.00484  1.0000
  H   H54       1.0  0.29739  0.76346  0.99516  1.0000
  H   H55       1.0  0.44470  0.25587  0.18170  1.0000
  H   H56       1.0  0.55530  0.74413  0.81829  1.0000
  C   C1        1.0  0.64088  0.40449  0.49622  1.0000
  C   C2        1.0  0.35913  0.59551  0.50378  1.0000
  C   C3        1.0  0.70236  0.30523  0.38517  1.0000
  C   C4        1.0  0.29764  0.69476  0.61482  1.0000
  C   C5        1.0  0.84587  0.54105  0.43408  1.0000
  C   C6        1.0  0.15413  0.45895  0.56591  1.0000
  C   C7        1.0  0.97133  0.66914  0.43119  1.0000
  C   C8        1.0  0.02867  0.33086  0.56881  1.0000
  C   C9        1.0  0.17238  0.28453  0.27704  1.0000
  C   C10       1.0  0.82761  0.71547  0.72297  1.0000
  C   C11       1.0  0.25500  0.20884  0.32590  1.0000
  C   C12       1.0  0.74500  0.79116  0.67410  1.0000
  C   C13       1.0  0.38183  0.12598  0.70423  1.0000
  C   C14       1.0  0.61817  0.87402  0.29577  1.0000
  C   C15       1.0  0.43285  0.09129  0.62663  1.0000
  C   C16       1.0  0.56716  0.90871  0.37337  1.0000
  C   C17       1.0  0.19202  0.79893  0.37782  1.0000
  C   C18       1.0  0.80799  0.20106  0.62219  1.0000
  C   C19       1.0  0.99666  0.78715  0.48356  1.0000
  C   C20       1.0  0.00334  0.21285  0.51644  1.0000
  C   C21       1.0  0.07191  0.67801  0.37650  1.0000
  C   C22       1.0  0.92810  0.32198  0.62350  1.0000
  C   C23       1.0  0.25990  0.40941  0.25828  1.0000
  C   C24       1.0  0.74009  0.59059  0.74172  1.0000
  C   C25       1.0  0.81686  0.42514  0.37854  1.0000
  C   C26       1.0  0.18314  0.57486  0.62146  1.0000
  C   C27       1.0  0.11941  0.90389  0.48039  1.0000
  C   C28       1.0  0.88060  0.09610  0.51962  1.0000
  C   C29       1.0  0.02305  0.43022  0.18676  1.0000
  C   C30       1.0  0.97694  0.56979  0.81324  1.0000
  C   C31       1.0  0.75231  0.52878  0.49340  1.0000
  C   C32       1.0  0.24769  0.47122  0.50660  1.0000
  C   C33       1.0  0.32040  0.22472  0.70591  1.0000
  C   C34       1.0  0.67960  0.77528  0.29409  1.0000
  C   C35       1.0  0.00994  0.23124  0.25147  1.0000
  C   C36       1.0  0.99006  0.76877  0.74854  1.0000
  C   C37       1.0  0.39475  0.05754  0.77454  1.0000
  C   C38       1.0  0.60524  0.94246  0.22546  1.0000
  C   C39       1.0  0.18703  0.48592  0.21391  1.0000
  C   C40       1.0  0.81296  0.51408  0.78610  1.0000
  C   C41       1.0  0.34544  0.08456  0.84839  1.0000
  C   C42       1.0  0.65456  0.91544  0.15161  1.0000
  C   C43       1.0  0.93737  0.30477  0.20531  1.0000
  C   C44       1.0  0.06262  0.69523  0.79470  1.0000
  C   C45       1.0  0.27057  0.25148  0.77882  1.0000
  C   C46       1.0  0.72943  0.74851  0.22118  1.0000
  C   C47       1.0  0.28235  0.18305  0.84905  1.0000
  C   C48       1.0  0.71765  0.81695  0.15095  1.0000
  C   C49       1.0  0.02364  0.95196  0.02381  1.0000
  C   C50       1.0  0.97635  0.04805  0.97620  1.0000
  C   C51       1.0  0.01965  0.73121  0.03583  1.0000
  C   C52       1.0  0.98035  0.26879  0.96418  1.0000
  C   C53       1.0  0.16243  0.89749  0.14996  1.0000
  C   C54       1.0  0.83756  0.10251  0.85003  1.0000
  C   C55       1.0  0.97349  0.81760  0.98771  1.0000
  C   C56       1.0  0.02651  0.18240  0.01229  1.0000
  C   C57       1.0  0.12084  0.99078  0.10729  1.0000
  C   C58       1.0  0.87916  0.00922  0.89271  1.0000
  C   C59       1.0  0.60875  0.38730  0.99018  1.0000
  C   C60       1.0  0.39126  0.61270  0.00982  1.0000
  C   C61       1.0  0.51712  0.44654  0.02064  1.0000
  C   C62       1.0  0.48289  0.55347  0.97936  1.0000
  C   C63       1.0  0.45865  0.39798  0.09142  1.0000
  C   C64       1.0  0.54135  0.60202  0.90857  1.0000
  C   C65       1.0  0.63334  0.28420  0.02910  1.0000
  C   C66       1.0  0.36667  0.71580  0.97090  1.0000
  C   C67       1.0  0.49009  0.29438  0.12667  1.0000
  C   C68       1.0  0.50992  0.70562  0.87332  1.0000
  N   N1        1.0  0.61615  0.29354  0.44372  1.0000
  N   N2        1.0  0.38385  0.70646  0.55628  1.0000
  N   N3        1.0  0.21787  0.91090  0.42931  1.0000
  N   N4        1.0  0.78212  0.08909  0.57069  1.0000
  N   N5        1.0  0.27295  0.60833  0.19494  1.0000
  N   N6        1.0  0.72705  0.39166  0.80506  1.0000
  N   N7        1.0  0.36389  0.01881  0.91736  1.0000
  N   N8        1.0  0.63610  0.98118  0.08264  1.0000
  N   N9        1.0  0.11271  0.76897  0.11571  1.0000
  N   N10       1.0  0.88729  0.23103  0.88429  1.0000
  N   N11       1.0  0.57530  0.23636  0.09586  1.0000
  N   N12       1.0  0.42470  0.76364  0.90413  1.0000
  O   O1        1.0  0.47493  0.99330  0.62622  1.0000
  O   O2        1.0  0.52507  0.00670  0.37378  1.0000
  O   O3        1.0  0.34034  0.16553  0.29222  1.0000
  O   O4        1.0  0.65967  0.83447  0.70778  1.0000
  O   O5        1.0  0.23903  0.19243  0.40281  1.0000
  O   O6        1.0  0.76096  0.80756  0.59718  1.0000
  O   O7        1.0  0.43061  0.16101  0.56554  1.0000
  O   O8        1.0  0.56940  0.83900  0.43446  1.0000
