data_image0
_chemical_formula_structural       Zn2H28C24N8O8
_chemical_formula_sum              "Zn2 H28 C24 N8 O8"
_cell_length_a       8.87113
_cell_length_b       8.87104
_cell_length_c       9.22958
_cell_angle_alpha    92.2594
_cell_angle_beta     92.26
_cell_angle_gamma    102.241

_space_group_name_H-M_alt    "P 1"
_space_group_IT_number       1

loop_
  _space_group_symop_operation_xyz
  'x, y, z'

loop_
  _atom_site_type_symbol
  _atom_site_label
  _atom_site_symmetry_multiplicity
  _atom_site_fract_x
  _atom_site_fract_y
  _atom_site_fract_z
  _atom_site_occupancy
  Zn  Zn1       1.0  0.88743  0.11257  0.75001  1.0000
  Zn  Zn2       1.0  0.11257  0.88742  0.25001  1.0000
  H   H1        1.0  0.51194  0.01858  0.64200  1.0000
  H   H2        1.0  0.98140  0.48806  0.85800  1.0000
  H   H3        1.0  0.48805  0.98140  0.35798  1.0000
  H   H4        1.0  0.01860  0.51196  0.14202  1.0000
  H   H5        1.0  0.29991  0.13518  0.80049  1.0000
  H   H6        1.0  0.86481  0.70011  0.69952  1.0000
  H   H7        1.0  0.70008  0.86480  0.19950  1.0000
  H   H8        1.0  0.13519  0.29992  0.30050  1.0000
  H   H9        1.0  0.51780  0.29914  0.16213  1.0000
  H   H10       1.0  0.70087  0.48221  0.33787  1.0000
  H   H11       1.0  0.48220  0.70087  0.83784  1.0000
  H   H12       1.0  0.29914  0.51779  0.66215  1.0000
  H   H13       1.0  0.32539  0.22259  0.09681  1.0000
  H   H14       1.0  0.77740  0.67462  0.40320  1.0000
  H   H15       1.0  0.67461  0.77739  0.90317  1.0000
  H   H16       1.0  0.22260  0.32538  0.59682  1.0000
  H   H17       1.0  0.73361  0.22275  0.03554  1.0000
  H   H18       1.0  0.77726  0.26641  0.46446  1.0000
  H   H19       1.0  0.26640  0.77726  0.96443  1.0000
  H   H20       1.0  0.22278  0.73361  0.53557  1.0000
  H   H21       1.0  0.36967  0.50292  0.10597  1.0000
  H   H22       1.0  0.49707  0.63032  0.39403  1.0000
  H   H23       1.0  0.63031  0.49706  0.89401  1.0000
  H   H24       1.0  0.50294  0.36967  0.60598  1.0000
  H   H25       1.0  0.33993  0.43325  0.92411  1.0000
  H   H26       1.0  0.56672  0.66007  0.57588  1.0000
  H   H27       1.0  0.66005  0.56672  0.07587  1.0000
  H   H28       1.0  0.43328  0.33993  0.42413  1.0000
  C   C1        1.0  0.52648  0.07745  0.74843  1.0000
  C   C2        1.0  0.92252  0.47353  0.75157  1.0000
  C   C3        1.0  0.47351  0.92251  0.25155  1.0000
  C   C4        1.0  0.07749  0.52650  0.24845  1.0000
  C   C5        1.0  0.91503  0.97095  0.46879  1.0000
  C   C6        1.0  0.02905  0.08496  0.03122  1.0000
  C   C7        1.0  0.08496  0.02907  0.53121  1.0000
  C   C8        1.0  0.97092  0.91503  0.96879  1.0000
  C   C9        1.0  0.42036  0.13510  0.82645  1.0000
  C   C10       1.0  0.86488  0.57966  0.67356  1.0000
  C   C11       1.0  0.57963  0.86485  0.17354  1.0000
  C   C12       1.0  0.13513  0.42037  0.32646  1.0000
  C   C13       1.0  0.43772  0.28898  0.06650  1.0000
  C   C14       1.0  0.71102  0.56229  0.43349  1.0000
  C   C15       1.0  0.56227  0.71101  0.93347  1.0000
  C   C16       1.0  0.28899  0.43771  0.56652  1.0000
  C   C17       1.0  0.64552  0.18105  0.95004  1.0000
  C   C18       1.0  0.81896  0.35450  0.54996  1.0000
  C   C19       1.0  0.35450  0.81897  0.04994  1.0000
  C   C20       1.0  0.18105  0.64551  0.45007  1.0000
  C   C21       1.0  0.42327  0.44843  0.01817  1.0000
  C   C22       1.0  0.55157  0.57672  0.48182  1.0000
  C   C23       1.0  0.57672  0.55156  0.98180  1.0000
  C   C24       1.0  0.44844  0.42327  0.51819  1.0000
  N   N1        1.0  0.66637  0.10665  0.82685  1.0000
  N   N2        1.0  0.89335  0.33365  0.67315  1.0000
  N   N3        1.0  0.33364  0.89336  0.17312  1.0000
  N   N4        1.0  0.10667  0.66638  0.32687  1.0000
  N   N5        1.0  0.49798  0.20029  0.95418  1.0000
  N   N6        1.0  0.79971  0.50203  0.54582  1.0000
  N   N7        1.0  0.50200  0.79970  0.04580  1.0000
  N   N8        1.0  0.20030  0.49799  0.45420  1.0000
  O   O1        1.0  0.80691  0.99523  0.54639  1.0000
  O   O2        1.0  0.00477  0.19310  0.95362  1.0000
  O   O3        1.0  0.19310  0.00478  0.45362  1.0000
  O   O4        1.0  0.99523  0.80690  0.04640  1.0000
  O   O5        1.0  0.89722  0.90209  0.34462  1.0000
  O   O6        1.0  0.09789  0.10277  0.15539  1.0000
  O   O7        1.0  0.10275  0.09791  0.65539  1.0000
  O   O8        1.0  0.90210  0.89722  0.84461  1.0000
