data_image0
_chemical_formula_structural       Cu4H60C52Br4N8Cl8O8
_chemical_formula_sum              "Cu4 H60 C52 Br4 N8 Cl8 O8"
_cell_length_a       6.93986
_cell_length_b       10.5952
_cell_length_c       23.109
_cell_angle_alpha    90
_cell_angle_beta     90
_cell_angle_gamma    109.117

_space_group_name_H-M_alt    "P 1"
_space_group_IT_number       1

loop_
  _space_group_symop_operation_xyz
  'x, y, z'

loop_
  _atom_site_type_symbol
  _atom_site_label
  _atom_site_symmetry_multiplicity
  _atom_site_fract_x
  _atom_site_fract_y
  _atom_site_fract_z
  _atom_site_occupancy
  Cu  Cu1       1.0  0.99547  0.35016  0.48056  1.0000
  Cu  Cu2       1.0  0.64541  0.64947  0.51932  1.0000
  Cu  Cu3       1.0  0.14534  0.64961  0.98067  1.0000
  Cu  Cu4       1.0  0.49547  0.35030  0.01945  1.0000
  H   H1        1.0  0.03850  0.07047  0.72155  1.0000
  H   H2        1.0  0.96833  0.92964  0.27842  1.0000
  H   H3        1.0  0.46840  0.92969  0.22158  1.0000
  H   H4        1.0  0.53822  0.07045  0.77849  1.0000
  H   H5        1.0  0.40244  0.05090  0.57289  1.0000
  H   H6        1.0  0.35183  0.94890  0.42705  1.0000
  H   H7        1.0  0.85182  0.94888  0.07294  1.0000
  H   H8        1.0  0.90246  0.05108  0.92711  1.0000
  H   H9        1.0  0.38477  0.15577  0.48829  1.0000
  H   H10       1.0  0.22912  0.84393  0.51166  1.0000
  H   H11       1.0  0.72910  0.84389  0.98834  1.0000
  H   H12       1.0  0.88488  0.15601  0.01170  1.0000
  H   H13       1.0  0.20614  0.19081  0.38107  1.0000
  H   H14       1.0  0.01537  0.80893  0.61881  1.0000
  H   H15       1.0  0.51542  0.80895  0.88119  1.0000
  H   H16       1.0  0.70630  0.19098  0.11893  1.0000
  H   H17       1.0  0.44457  0.29321  0.40933  1.0000
  H   H18       1.0  0.15135  0.70646  0.59061  1.0000
  H   H19       1.0  0.65123  0.70638  0.90941  1.0000
  H   H20       1.0  0.94468  0.29345  0.09065  1.0000
  H   H21       1.0  0.35018  0.49335  0.40312  1.0000
  H   H22       1.0  0.85665  0.50638  0.59683  1.0000
  H   H23       1.0  0.35641  0.50640  0.90315  1.0000
  H   H24       1.0  0.85021  0.49353  0.09692  1.0000
  H   H25       1.0  0.29085  0.41146  0.33497  1.0000
  H   H26       1.0  0.87934  0.58835  0.66497  1.0000
  H   H27       1.0  0.37922  0.58841  0.83502  1.0000
  H   H28       1.0  0.79083  0.41156  0.16505  1.0000
  H   H29       1.0  0.73332  0.28481  0.37741  1.0000
  H   H30       1.0  0.44855  0.71512  0.62243  1.0000
  H   H31       1.0  0.94857  0.71534  0.87752  1.0000
  H   H32       1.0  0.23335  0.28492  0.12262  1.0000
  H   H33       1.0  0.90729  0.19524  0.36793  1.0000
  H   H34       1.0  0.71210  0.80468  0.63188  1.0000
  H   H35       1.0  0.21216  0.80482  0.86808  1.0000
  H   H36       1.0  0.40735  0.19538  0.13210  1.0000
  H   H37       1.0  0.03112  0.32099  0.27484  1.0000
  H   H38       1.0  0.71007  0.67912  0.72505  1.0000
  H   H39       1.0  0.21010  0.67925  0.77492  1.0000
  H   H40       1.0  0.53114  0.32113  0.22518  1.0000
  H   H41       1.0  0.76233  0.23885  0.27340  1.0000
  H   H42       1.0  0.52371  0.76151  0.72642  1.0000
  H   H43       1.0  0.02374  0.76163  0.77353  1.0000
  H   H44       1.0  0.26236  0.23900  0.22662  1.0000
  H   H45       1.0  0.97182  0.64050  0.30153  1.0000
  H   H46       1.0  0.33090  0.35974  0.69852  1.0000
  H   H47       1.0  0.83080  0.35986  0.80145  1.0000
  H   H48       1.0  0.47186  0.64064  0.19848  1.0000
  H   H49       1.0  0.15452  0.55705  0.29041  1.0000
  H   H50       1.0  0.59708  0.44313  0.70963  1.0000
  H   H51       1.0  0.09701  0.44320  0.79037  1.0000
  H   H52       1.0  0.65457  0.55719  0.20960  1.0000
  H   H53       1.0  0.13393  0.60942  0.39621  1.0000
  H   H54       1.0  0.52426  0.39038  0.60387  1.0000
  H   H55       1.0  0.02399  0.39053  0.89613  1.0000
  H   H56       1.0  0.63392  0.60955  0.10380  1.0000
  H   H57       1.0  0.86486  0.52847  0.39483  1.0000
  H   H58       1.0  0.33629  0.47145  0.60511  1.0000
  H   H59       1.0  0.83612  0.47167  0.89485  1.0000
  H   H60       1.0  0.36487  0.52860  0.10518  1.0000
  C   C1        1.0  0.19290  0.16156  0.56068  1.0000
  C   C2        1.0  0.03162  0.83826  0.43925  1.0000
  C   C3        1.0  0.53159  0.83831  0.06074  1.0000
  C   C4        1.0  0.69286  0.16168  0.93933  1.0000
  C   C5        1.0  0.04113  0.21002  0.58609  1.0000
  C   C6        1.0  0.83143  0.78969  0.41381  1.0000
  C   C7        1.0  0.33140  0.78980  0.08618  1.0000
  C   C8        1.0  0.54103  0.21009  0.91394  1.0000
  C   C9        1.0  0.99321  0.17374  0.64539  1.0000
  C   C10       1.0  0.81979  0.82610  0.35452  1.0000
  C   C11       1.0  0.31980  0.82619  0.14548  1.0000
  C   C12       1.0  0.49304  0.17377  0.85464  1.0000
  C   C13       1.0  0.08025  0.09492  0.67653  1.0000
  C   C14       1.0  0.98564  0.90507  0.32342  1.0000
  C   C15       1.0  0.48567  0.90514  0.17657  1.0000
  C   C16       1.0  0.58004  0.09493  0.82350  1.0000
  C   C17       1.0  0.22656  0.04916  0.64965  1.0000
  C   C18       1.0  0.17774  0.95082  0.35031  1.0000
  C   C19       1.0  0.67776  0.95088  0.14968  1.0000
  C   C20       1.0  0.72643  0.04921  0.85037  1.0000
  C   C21       1.0  0.28437  0.08321  0.59303  1.0000
  C   C22       1.0  0.20143  0.91669  0.40693  1.0000
  C   C23       1.0  0.70143  0.91672  0.09306  1.0000
  C   C24       1.0  0.78433  0.08332  0.90698  1.0000
  C   C25       1.0  0.26112  0.19231  0.50215  1.0000
  C   C26       1.0  0.06897  0.80743  0.49778  1.0000
  C   C27       1.0  0.56893  0.80745  0.00222  1.0000
  C   C28       1.0  0.76117  0.19249  0.99785  1.0000
  C   C29       1.0  0.28086  0.28012  0.40725  1.0000
  C   C30       1.0  0.00076  0.71958  0.59267  1.0000
  C   C31       1.0  0.50070  0.71958  0.90733  1.0000
  C   C32       1.0  0.78095  0.28031  0.09275  1.0000
  C   C33       1.0  0.25102  0.40347  0.38127  1.0000
  C   C34       1.0  0.84748  0.59630  0.61866  1.0000
  C   C35       1.0  0.34732  0.59635  0.88132  1.0000
  C   C36       1.0  0.75106  0.40362  0.11875  1.0000
  C   C37       1.0  0.88280  0.29090  0.35959  1.0000
  C   C38       1.0  0.59195  0.70907  0.64026  1.0000
  C   C39       1.0  0.09196  0.70923  0.85970  1.0000
  C   C40       1.0  0.38283  0.29103  0.14043  1.0000
  C   C41       1.0  0.88504  0.31818  0.29476  1.0000
  C   C42       1.0  0.56688  0.68201  0.70511  1.0000
  C   C43       1.0  0.06690  0.68214  0.79485  1.0000
  C   C44       1.0  0.38509  0.31831  0.20526  1.0000
  C   C45       1.0  0.00674  0.54886  0.31065  1.0000
  C   C46       1.0  0.45758  0.45132  0.68936  1.0000
  C   C47       1.0  0.95750  0.45144  0.81062  1.0000
  C   C48       1.0  0.50680  0.54900  0.18936  1.0000
  C   C49       1.0  0.01014  0.52902  0.37589  1.0000
  C   C50       1.0  0.48094  0.47091  0.62410  1.0000
  C   C51       1.0  0.98078  0.47107  0.87588  1.0000
  C   C52       1.0  0.51015  0.52916  0.12412  1.0000
  Br  Br1       1.0  0.80532  0.24368  0.68220  1.0000
  Br  Br2       1.0  0.56208  0.75616  0.31769  1.0000
  Br  Br3       1.0  0.06209  0.75623  0.18232  1.0000
  Br  Br4       1.0  0.30512  0.24368  0.81784  1.0000
  N   N1        1.0  0.19264  0.25927  0.46533  1.0000
  N   N2        1.0  0.93345  0.74041  0.53457  1.0000
  N   N3        1.0  0.43340  0.74045  0.96543  1.0000
  N   N4        1.0  0.69268  0.25944  0.03467  1.0000
  N   N5        1.0  0.03759  0.39992  0.39137  1.0000
  N   N6        1.0  0.63762  0.59992  0.60856  1.0000
  N   N7        1.0  0.13752  0.60005  0.89142  1.0000
  N   N8        1.0  0.53760  0.40006  0.10864  1.0000
  Cl  Cl1       1.0  0.33259  0.94745  0.68861  1.0000
  Cl  Cl2       1.0  0.38544  0.05252  0.31137  1.0000
  Cl  Cl3       1.0  0.88549  0.05255  0.18861  1.0000
  Cl  Cl4       1.0  0.83242  0.94751  0.81140  1.0000
  Cl  Cl5       1.0  0.71461  0.41264  0.48853  1.0000
  Cl  Cl6       1.0  0.30208  0.58714  0.51135  1.0000
  Cl  Cl7       1.0  0.80202  0.58723  0.98865  1.0000
  Cl  Cl8       1.0  0.21462  0.41279  0.01148  1.0000
  O   O1        1.0  0.95084  0.28312  0.56007  1.0000
  O   O2        1.0  0.66809  0.71634  0.43977  1.0000
  O   O3        1.0  0.16804  0.71649  0.06022  1.0000
  O   O4        1.0  0.45073  0.28319  0.93996  1.0000
  O   O5        1.0  0.84927  0.44134  0.28366  1.0000
  O   O6        1.0  0.40774  0.55899  0.71626  1.0000
  O   O7        1.0  0.90777  0.55913  0.78371  1.0000
  O   O8        1.0  0.34930  0.44147  0.21636  1.0000
