data_image0
_chemical_formula_structural       Na2H22C20S2N8O12
_chemical_formula_sum              "Na2 H22 C20 S2 N8 O12"
_cell_length_a       7.40942
_cell_length_b       9.62997
_cell_length_c       10.2273
_cell_angle_alpha    102.158
_cell_angle_beta     102.249
_cell_angle_gamma    92.3987

_space_group_name_H-M_alt    "P 1"
_space_group_IT_number       1

loop_
  _space_group_symop_operation_xyz
  'x, y, z'

loop_
  _atom_site_type_symbol
  _atom_site_label
  _atom_site_symmetry_multiplicity
  _atom_site_fract_x
  _atom_site_fract_y
  _atom_site_fract_z
  _atom_site_occupancy
  Na  Na1       1.0  0.42662  0.15273  0.09941  1.0000
  Na  Na2       1.0  0.57338  0.84731  0.90059  1.0000
  H   H1        1.0  0.63891  0.94221  0.48631  1.0000
  H   H2        1.0  0.36106  0.05779  0.51367  1.0000
  H   H3        1.0  0.45603  0.89588  0.33540  1.0000
  H   H4        1.0  0.54398  0.10409  0.66458  1.0000
  H   H5        1.0  0.68928  0.91161  0.31991  1.0000
  H   H6        1.0  0.31074  0.08838  0.68009  1.0000
  H   H7        1.0  0.74639  0.25415  0.40616  1.0000
  H   H8        1.0  0.25364  0.74584  0.59384  1.0000
  H   H9        1.0  0.90150  0.12355  0.57683  1.0000
  H   H10       1.0  0.09850  0.87647  0.42321  1.0000
  H   H11       1.0  0.03433  0.51875  0.88330  1.0000
  H   H12       1.0  0.96564  0.48127  0.11670  1.0000
  H   H13       1.0  0.88187  0.64806  0.71548  1.0000
  H   H14       1.0  0.11813  0.35193  0.28448  1.0000
  H   H15       1.0  0.20698  0.96465  0.88081  1.0000
  H   H16       1.0  0.79304  0.03535  0.11920  1.0000
  H   H17       1.0  0.21272  0.86682  0.98434  1.0000
  H   H18       1.0  0.78727  0.13317  0.01565  1.0000
  H   H19       1.0  0.27427  0.18409  0.34372  1.0000
  H   H20       1.0  0.72574  0.81591  0.65627  1.0000
  H   H21       1.0  0.15858  0.04777  0.24271  1.0000
  H   H22       1.0  0.84141  0.95223  0.75730  1.0000
  C   C1        1.0  0.60445  0.47564  0.32030  1.0000
  C   C2        1.0  0.39555  0.52435  0.67969  1.0000
  C   C3        1.0  0.54424  0.60315  0.27380  1.0000
  C   C4        1.0  0.45581  0.39688  0.72619  1.0000
  C   C5        1.0  0.61598  0.72490  0.38354  1.0000
  C   C6        1.0  0.38405  0.27511  0.61648  1.0000
  C   C7        1.0  0.59823  0.87710  0.38146  1.0000
  C   C8        1.0  0.40178  0.12290  0.61854  1.0000
  C   C9        1.0  0.79940  0.45932  0.54953  1.0000
  C   C10       1.0  0.20058  0.54067  0.45046  1.0000
  C   C11       1.0  0.80806  0.31121  0.51063  1.0000
  C   C12       1.0  0.19193  0.68880  0.48936  1.0000
  C   C13       1.0  0.89500  0.23824  0.60680  1.0000
  C   C14       1.0  0.10500  0.76176  0.39321  1.0000
  C   C15       1.0  0.97433  0.31099  0.74143  1.0000
  C   C16       1.0  0.02566  0.68901  0.25858  1.0000
  C   C17       1.0  0.97124  0.45925  0.77940  1.0000
  C   C18       1.0  0.02875  0.54075  0.22059  1.0000
  C   C19       1.0  0.88445  0.53321  0.68421  1.0000
  C   C20       1.0  0.11555  0.46678  0.31579  1.0000
  S   S1        1.0  0.06514  0.21397  0.86683  1.0000
  S   S2        1.0  0.93484  0.78603  0.13317  1.0000
  N   N1        1.0  0.70638  0.53394  0.45458  1.0000
  N   N2        1.0  0.29359  0.46605  0.54541  1.0000
  N   N3        1.0  0.70949  0.68186  0.48984  1.0000
  N   N4        1.0  0.29048  0.31813  0.51019  1.0000
  N   N5        1.0  0.44193  0.59961  0.15213  1.0000
  N   N6        1.0  0.55819  0.40042  0.84786  1.0000
  N   N7        1.0  0.35254  0.58994  0.04493  1.0000
  N   N8        1.0  0.64743  0.41005  0.95511  1.0000
  O   O1        1.0  0.57472  0.34859  0.26034  1.0000
  O   O2        1.0  0.42531  0.65139  0.73967  1.0000
  O   O3        1.0  0.94681  0.23660  0.96656  1.0000
  O   O4        1.0  0.05316  0.76339  0.03343  1.0000
  O   O5        1.0  0.05005  0.06309  0.78935  1.0000
  O   O6        1.0  0.94992  0.93690  0.21065  1.0000
  O   O7        1.0  0.25906  0.26892  0.92917  1.0000
  O   O8        1.0  0.74093  0.73108  0.07083  1.0000
  O   O9        1.0  0.29459  0.92607  0.94861  1.0000
  O   O10       1.0  0.70541  0.07393  0.05140  1.0000
  O   O11       1.0  0.27750  0.10708  0.26370  1.0000
  O   O12       1.0  0.72248  0.89293  0.73629  1.0000
