data_image0
_chemical_formula_structural       Cd2H30C40N8Cl2O12
_chemical_formula_sum              "Cd2 H30 C40 N8 Cl2 O12"
_cell_length_a       9.48972
_cell_length_b       10.1304
_cell_length_c       11.2476
_cell_angle_alpha    100.637
_cell_angle_beta     106.001
_cell_angle_gamma    99.8556

_space_group_name_H-M_alt    "P 1"
_space_group_IT_number       1

loop_
  _space_group_symop_operation_xyz
  'x, y, z'

loop_
  _atom_site_type_symbol
  _atom_site_label
  _atom_site_symmetry_multiplicity
  _atom_site_fract_x
  _atom_site_fract_y
  _atom_site_fract_z
  _atom_site_occupancy
  Cd  Cd1       1.0  0.80026  0.94799  0.80550  1.0000
  Cd  Cd2       1.0  0.19974  0.05202  0.19451  1.0000
  H   H1        1.0  0.26708  0.14479  0.64634  1.0000
  H   H2        1.0  0.73292  0.85521  0.35366  1.0000
  H   H3        1.0  0.54639  0.47968  0.80049  1.0000
  H   H4        1.0  0.45360  0.52033  0.19950  1.0000
  H   H5        1.0  0.75005  0.65019  0.65814  1.0000
  H   H6        1.0  0.24997  0.34981  0.34188  1.0000
  H   H7        1.0  0.42507  0.86895  0.69705  1.0000
  H   H8        1.0  0.57494  0.13105  0.30296  1.0000
  H   H9        1.0  0.69970  0.21131  0.99363  1.0000
  H   H10       1.0  0.30030  0.78869  0.00638  1.0000
  H   H11       1.0  0.40175  0.18194  0.99371  1.0000
  H   H12       1.0  0.59824  0.81806  0.00631  1.0000
  H   H13       1.0  0.17087  0.94817  0.87948  1.0000
  H   H14       1.0  0.82913  0.05182  0.12052  1.0000
  H   H15       1.0  0.17903  0.85316  0.73381  1.0000
  H   H16       1.0  0.82097  0.14685  0.26619  1.0000
  H   H17       1.0  0.13391  0.32609  0.50137  1.0000
  H   H18       1.0  0.86610  0.67390  0.49862  1.0000
  H   H19       1.0  0.88780  0.39516  0.43536  1.0000
  H   H20       1.0  0.11221  0.60484  0.56464  1.0000
  H   H21       1.0  0.66808  0.28807  0.49061  1.0000
  H   H22       1.0  0.33192  0.71193  0.50938  1.0000
  H   H23       1.0  0.68585  0.11357  0.61961  1.0000
  H   H24       1.0  0.31415  0.88643  0.38038  1.0000
  H   H25       1.0  0.31722  0.34682  0.95645  1.0000
  H   H26       1.0  0.68279  0.65316  0.04353  1.0000
  H   H27       1.0  0.10552  0.61361  0.74923  1.0000
  H   H28       1.0  0.89448  0.38639  0.25077  1.0000
  H   H29       1.0  0.84221  0.32077  0.88324  1.0000
  H   H30       1.0  0.15780  0.67923  0.11676  1.0000
  C   C1        1.0  0.46061  0.96098  0.77462  1.0000
  C   C2        1.0  0.53939  0.03903  0.22539  1.0000
  C   C3        1.0  0.59776  0.13815  0.93029  1.0000
  C   C4        1.0  0.40224  0.86185  0.06972  1.0000
  C   C5        1.0  0.45176  0.12669  0.93043  1.0000
  C   C6        1.0  0.54823  0.87331  0.06958  1.0000
  C   C7        1.0  0.20427  0.95805  0.79474  1.0000
  C   C8        1.0  0.79572  0.04194  0.20527  1.0000
  C   C9        1.0  0.11195  0.04160  0.72384  1.0000
  C   C10       1.0  0.88805  0.95840  0.27617  1.0000
  C   C11       1.0  0.04529  0.18233  0.59881  1.0000
  C   C12       1.0  0.95471  0.81767  0.40119  1.0000
  C   C13       1.0  0.03730  0.28054  0.52666  1.0000
  C   C14       1.0  0.96271  0.71947  0.47333  1.0000
  C   C15       1.0  0.89934  0.31682  0.48955  1.0000
  C   C16       1.0  0.10068  0.68318  0.51045  1.0000
  C   C17       1.0  0.77390  0.25644  0.52149  1.0000
  C   C18       1.0  0.22610  0.74356  0.47851  1.0000
  C   C19       1.0  0.78269  0.15877  0.59388  1.0000
  C   C20       1.0  0.21731  0.84123  0.40611  1.0000
  C   C21       1.0  0.92154  0.12363  0.63452  1.0000
  C   C22       1.0  0.07845  0.87638  0.36548  1.0000
  C   C23       1.0  0.07161  0.21301  0.00319  1.0000
  C   C24       1.0  0.92839  0.78700  0.99681  1.0000
  C   C25       1.0  0.07971  0.32322  0.93050  1.0000
  C   C26       1.0  0.92029  0.67677  0.06950  1.0000
  C   C27       1.0  0.21666  0.38146  0.91564  1.0000
  C   C28       1.0  0.78334  0.61854  0.08435  1.0000
  C   C29       1.0  0.22513  0.48356  0.84788  1.0000
  C   C30       1.0  0.77488  0.51644  0.15211  1.0000
  C   C31       1.0  0.36459  0.53653  0.81775  1.0000
  C   C32       1.0  0.63540  0.46346  0.18224  1.0000
  C   C33       1.0  0.09738  0.53190  0.79921  1.0000
  C   C34       1.0  0.90262  0.46810  0.20079  1.0000
  C   C35       1.0  0.95957  0.47252  0.81129  1.0000
  C   C36       1.0  0.04042  0.52747  0.18871  1.0000
  C   C37       1.0  0.82037  0.51715  0.75410  1.0000
  C   C38       1.0  0.17965  0.48286  0.24590  1.0000
  C   C39       1.0  0.95059  0.36715  0.87558  1.0000
  C   C40       1.0  0.04941  0.63284  0.12442  1.0000
  N   N1        1.0  0.60179  0.03428  0.83294  1.0000
  N   N2        1.0  0.39822  0.96573  0.16708  1.0000
  N   N3        1.0  0.36600  0.01449  0.83051  1.0000
  N   N4        1.0  0.63399  0.98551  0.16950  1.0000
  N   N5        1.0  0.96799  0.03814  0.71397  1.0000
  N   N6        1.0  0.03200  0.96187  0.28603  1.0000
  N   N7        1.0  0.16230  0.12624  0.65560  1.0000
  N   N8        1.0  0.83770  0.87375  0.34440  1.0000
  Cl  Cl1       1.0  0.63965  0.78400  0.58463  1.0000
  Cl  Cl2       1.0  0.36034  0.21601  0.41538  1.0000
  O   O1        1.0  0.94423  0.14489  0.99824  1.0000
  O   O2        1.0  0.05577  0.85512  0.00177  1.0000
  O   O3        1.0  0.19895  0.19618  0.06767  1.0000
  O   O4        1.0  0.80105  0.80381  0.93233  1.0000
  O   O5        1.0  0.45762  0.45092  0.83007  1.0000
  O   O6        1.0  0.54238  0.54910  0.16992  1.0000
  O   O7        1.0  0.38694  0.64351  0.78174  1.0000
  O   O8        1.0  0.61303  0.35649  0.21824  1.0000
  O   O9        1.0  0.84321  0.61500  0.69245  1.0000
  O   O10       1.0  0.15678  0.38499  0.30755  1.0000
  O   O11       1.0  0.69735  0.46654  0.76337  1.0000
  O   O12       1.0  0.30264  0.53347  0.23664  1.0000
