data_image0
_chemical_formula_structural       Cd2H20C8O18
_chemical_formula_sum              "Cd2 H20 C8 O18"
_cell_length_a       5.96186
_cell_length_b       7.29515
_cell_length_c       11.0692
_cell_angle_alpha    89.9991
_cell_angle_beta     90.0003
_cell_angle_gamma    119.413

_space_group_name_H-M_alt    "P 1"
_space_group_IT_number       1

loop_
  _space_group_symop_operation_xyz
  'x, y, z'

loop_
  _atom_site_type_symbol
  _atom_site_label
  _atom_site_symmetry_multiplicity
  _atom_site_fract_x
  _atom_site_fract_y
  _atom_site_fract_z
  _atom_site_occupancy
  Cd  Cd1       1.0  0.50400  0.99984  0.26400  1.0000
  Cd  Cd2       1.0  0.49600  0.00015  0.76401  1.0000
  H   H1        1.0  0.29985  0.55056  0.40121  1.0000
  H   H2        1.0  0.70015  0.44945  0.90121  1.0000
  H   H3        1.0  0.68300  0.42553  0.41422  1.0000
  H   H4        1.0  0.31703  0.57446  0.91422  1.0000
  H   H5        1.0  0.22601  0.07372  0.07003  1.0000
  H   H6        1.0  0.77391  0.92634  0.57003  1.0000
  H   H7        1.0  0.02473  0.82443  0.08717  1.0000
  H   H8        1.0  0.97527  0.17560  0.58717  1.0000
  H   H9        1.0  0.97873  0.02564  0.22940  1.0000
  H   H10       1.0  0.02125  0.97436  0.72938  1.0000
  H   H11       1.0  0.98099  0.00940  0.36906  1.0000
  H   H12       1.0  0.01898  0.99057  0.86905  1.0000
  H   H13       1.0  0.21899  0.83660  0.48027  1.0000
  H   H14       1.0  0.78101  0.16340  0.98027  1.0000
  H   H15       1.0  0.35360  0.07813  0.48201  1.0000
  H   H16       1.0  0.64640  0.92187  0.98202  1.0000
  H   H17       1.0  0.25209  0.34884  0.24948  1.0000
  H   H18       1.0  0.74791  0.65114  0.74947  1.0000
  H   H19       1.0  0.82334  0.66027  0.26632  1.0000
  H   H20       1.0  0.17667  0.33974  0.76632  1.0000
  C   C1        1.0  0.38434  0.58906  0.11495  1.0000
  C   C2        1.0  0.61565  0.41092  0.61495  1.0000
  C   C3        1.0  0.41159  0.50954  0.23764  1.0000
  C   C4        1.0  0.58841  0.49045  0.73763  1.0000
  C   C5        1.0  0.66971  0.50113  0.24252  1.0000
  C   C6        1.0  0.33030  0.49887  0.74251  1.0000
  C   C7        1.0  0.73593  0.44268  0.11981  1.0000
  C   C8        1.0  0.26411  0.55733  0.61981  1.0000
  O   O1        1.0  0.47252  0.78732  0.10152  1.0000
  O   O2        1.0  0.52744  0.21266  0.60154  1.0000
  O   O3        1.0  0.28609  0.45479  0.03167  1.0000
  O   O4        1.0  0.71392  0.54518  0.53166  1.0000
  O   O5        1.0  0.40153  0.63961  0.33153  1.0000
  O   O6        1.0  0.59849  0.36039  0.83153  1.0000
  O   O7        1.0  0.65494  0.35518  0.33056  1.0000
  O   O8        1.0  0.34506  0.64480  0.83056  1.0000
  O   O9        1.0  0.67768  0.25177  0.10288  1.0000
  O   O10       1.0  0.32235  0.74824  0.60288  1.0000
  O   O11       1.0  0.83874  0.58480  0.03963  1.0000
  O   O12       1.0  0.16128  0.41523  0.53963  1.0000
  O   O13       1.0  0.13179  0.96419  0.12990  1.0000
  O   O14       1.0  0.86821  0.03585  0.62991  1.0000
  O   O15       1.0  0.91400  0.06228  0.30428  1.0000
  O   O16       1.0  0.08599  0.93771  0.80427  1.0000
  O   O17       1.0  0.24049  0.95627  0.42799  1.0000
  O   O18       1.0  0.75951  0.04372  0.92800  1.0000
