data_image0
_chemical_formula_structural       Mn4H20C16O26
_chemical_formula_sum              "Mn4 H20 C16 O26"
_cell_length_a       7.55202
_cell_length_b       8.90205
_cell_length_c       10.8655
_cell_angle_alpha    90.0001
_cell_angle_beta     90.0003
_cell_angle_gamma    98.7484

_space_group_name_H-M_alt    "P 1"
_space_group_IT_number       1

loop_
  _space_group_symop_operation_xyz
  'x, y, z'

loop_
  _atom_site_type_symbol
  _atom_site_label
  _atom_site_symmetry_multiplicity
  _atom_site_fract_x
  _atom_site_fract_y
  _atom_site_fract_z
  _atom_site_occupancy
  Mn  Mn1       1.0  0.73845  0.74199  0.00011  1.0000
  Mn  Mn2       1.0  0.26157  0.25802  0.50009  1.0000
  Mn  Mn3       1.0  0.84546  0.72699  0.48839  1.0000
  Mn  Mn4       1.0  0.15455  0.27301  0.98839  1.0000
  H   H1        1.0  0.86653  0.12097  0.16456  1.0000
  H   H2        1.0  0.13348  0.87904  0.66456  1.0000
  H   H3        1.0  0.71204  0.10935  0.35784  1.0000
  H   H4        1.0  0.28797  0.89065  0.85783  1.0000
  H   H5        1.0  0.61624  0.34763  0.16194  1.0000
  H   H6        1.0  0.38376  0.65237  0.66195  1.0000
  H   H7        1.0  0.81642  0.33968  0.32314  1.0000
  H   H8        1.0  0.18358  0.66033  0.82315  1.0000
  H   H9        1.0  0.01268  0.94052  0.13702  1.0000
  H   H10       1.0  0.98733  0.05948  0.63703  1.0000
  H   H11       1.0  0.57372  0.90569  0.42755  1.0000
  H   H12       1.0  0.42628  0.09431  0.92756  1.0000
  H   H13       1.0  0.50588  0.53759  0.10607  1.0000
  H   H14       1.0  0.49411  0.46241  0.60607  1.0000
  H   H15       1.0  0.00121  0.51932  0.38938  1.0000
  H   H16       1.0  0.99878  0.48068  0.88938  1.0000
  H   H17       1.0  0.67230  0.89388  0.64721  1.0000
  H   H18       1.0  0.32770  0.10612  0.14721  1.0000
  H   H19       1.0  0.83459  0.84024  0.72437  1.0000
  H   H20       1.0  0.16540  0.15976  0.22437  1.0000
  C   C1        1.0  0.61251  0.00321  0.12475  1.0000
  C   C2        1.0  0.38750  0.99679  0.62476  1.0000
  C   C3        1.0  0.79208  0.00933  0.19045  1.0000
  C   C4        1.0  0.20792  0.99068  0.69045  1.0000
  C   C5        1.0  0.77604  0.01132  0.33145  1.0000
  C   C6        1.0  0.22397  0.98868  0.83145  1.0000
  C   C7        1.0  0.96774  0.03026  0.38204  1.0000
  C   C8        1.0  0.03226  0.96974  0.88204  1.0000
  C   C9        1.0  0.86290  0.45241  0.08827  1.0000
  C   C10       1.0  0.13709  0.54760  0.58828  1.0000
  C   C11       1.0  0.70723  0.45524  0.17752  1.0000
  C   C12       1.0  0.29276  0.54476  0.67752  1.0000
  C   C13       1.0  0.76847  0.44968  0.31107  1.0000
  C   C14       1.0  0.23153  0.55033  0.81107  1.0000
  C   C15       1.0  0.61029  0.44884  0.39993  1.0000
  C   C16       1.0  0.38971  0.55116  0.89992  1.0000
  O   O1        1.0  0.56768  0.90530  0.04087  1.0000
  O   O2        1.0  0.43232  0.09471  0.54088  1.0000
  O   O3        1.0  0.52418  0.10656  0.15658  1.0000
  O   O4        1.0  0.47581  0.89344  0.65657  1.0000
  O   O5        1.0  0.88749  0.89098  0.14929  1.0000
  O   O6        1.0  0.11251  0.10903  0.64929  1.0000
  O   O7        1.0  0.67108  0.87464  0.37868  1.0000
  O   O8        1.0  0.32893  0.12536  0.87867  1.0000
  O   O9        1.0  0.02743  0.91642  0.42465  1.0000
  O   O10       1.0  0.97257  0.08357  0.92464  1.0000
  O   O11       1.0  0.05867  0.16383  0.37161  1.0000
  O   O12       1.0  0.94133  0.83616  0.87161  1.0000
  O   O13       1.0  0.88212  0.54859  0.00003  1.0000
  O   O14       1.0  0.11787  0.45140  0.50002  1.0000
  O   O15       1.0  0.95906  0.34938  0.10377  1.0000
  O   O16       1.0  0.04095  0.65060  0.60377  1.0000
  O   O17       1.0  0.61459  0.58123  0.15442  1.0000
  O   O18       1.0  0.38540  0.41877  0.65442  1.0000
  O   O19       1.0  0.91300  0.56821  0.33935  1.0000
  O   O20       1.0  0.08699  0.43179  0.83935  1.0000
  O   O21       1.0  0.63305  0.53904  0.49313  1.0000
  O   O22       1.0  0.36694  0.46096  0.99312  1.0000
  O   O23       1.0  0.47140  0.35506  0.37911  1.0000
  O   O24       1.0  0.52859  0.64494  0.87912  1.0000
  O   O25       1.0  0.80426  0.87735  0.64235  1.0000
  O   O26       1.0  0.19574  0.12264  0.14234  1.0000
