data_image0
_chemical_formula_structural       Li2H16C16Cl2O8
_chemical_formula_sum              "Li2 H16 C16 Cl2 O8"
_cell_length_a       4.96325
_cell_length_b       7.42501
_cell_length_c       14.1328
_cell_angle_alpha    84.8821
_cell_angle_beta     80.6515
_cell_angle_gamma    70.4298

_space_group_name_H-M_alt    "P 1"
_space_group_IT_number       1

loop_
  _space_group_symop_operation_xyz
  'x, y, z'

loop_
  _atom_site_type_symbol
  _atom_site_label
  _atom_site_symmetry_multiplicity
  _atom_site_fract_x
  _atom_site_fract_y
  _atom_site_fract_z
  _atom_site_occupancy
  Li  Li1       1.0  0.64910  0.00815  0.43838  1.0000
  Li  Li2       1.0  0.10775  0.95801  0.55995  1.0000
  H   H1        1.0  0.33711  0.56245  0.05679  1.0000
  H   H2        1.0  0.94501  0.44490  0.94639  1.0000
  H   H3        1.0  0.50881  0.21656  0.01993  1.0000
  H   H4        1.0  0.74769  0.79002  0.98565  1.0000
  H   H5        1.0  0.91090  0.98836  0.10113  1.0000
  H   H6        1.0  0.01134  0.01270  0.90828  1.0000
  H   H7        1.0  0.11999  0.10222  0.21959  1.0000
  H   H8        1.0  0.45472  0.89214  0.79369  1.0000
  H   H9        1.0  0.24186  0.42689  0.36652  1.0000
  H   H10       1.0  0.04209  0.55339  0.65116  1.0000
  H   H11       1.0  0.35741  0.25716  0.27568  1.0000
  H   H12       1.0  0.88913  0.73949  0.73318  1.0000
  H   H13       1.0  0.88699  0.72691  0.30983  1.0000
  H   H14       1.0  0.84250  0.27989  0.67285  1.0000
  H   H15       1.0  0.11023  0.81178  0.33821  1.0000
  H   H16       1.0  0.79782  0.27869  0.56674  1.0000
  C   C1        1.0  0.85240  0.39708  0.20626  1.0000
  C   C2        1.0  0.45717  0.60060  0.80542  1.0000
  C   C3        1.0  0.63199  0.52411  0.15841  1.0000
  C   C4        1.0  0.30859  0.47718  0.84997  1.0000
  C   C5        1.0  0.50882  0.46036  0.09205  1.0000
  C   C6        1.0  0.05630  0.54422  0.91441  1.0000
  C   C7        1.0  0.60707  0.26663  0.07122  1.0000
  C   C8        1.0  0.94714  0.73745  0.93614  1.0000
  C   C9        1.0  0.83004  0.13982  0.11659  1.0000
  C   C10       1.0  0.09374  0.86125  0.89289  1.0000
  C   C11       1.0  0.95090  0.20410  0.18366  1.0000
  C   C12       1.0  0.34573  0.79367  0.82814  1.0000
  C   C13       1.0  0.16891  0.33858  0.32481  1.0000
  C   C14       1.0  0.83696  0.64765  0.68701  1.0000
  C   C15       1.0  0.05317  0.20230  0.39449  1.0000
  C   C16       1.0  0.65856  0.77050  0.61143  1.0000
  Cl  Cl1       1.0  0.51370  0.76494  0.18318  1.0000
  Cl  Cl2       1.0  0.44029  0.23832  0.82158  1.0000
  O   O1        1.0  0.90441  0.83305  0.34222  1.0000
  O   O2        1.0  0.93594  0.22010  0.61176  1.0000
  O   O3        1.0  0.95669  0.47089  0.27199  1.0000
  O   O4        1.0  0.70235  0.52214  0.74355  1.0000
  O   O5        1.0  0.78439  0.23743  0.41602  1.0000
  O   O6        1.0  0.41733  0.75503  0.60543  1.0000
  O   O7        1.0  0.24631  0.05982  0.42766  1.0000
  O   O8        1.0  0.77308  0.88310  0.55976  1.0000
