data_image0
_chemical_formula_structural       Ag2H14C16S2N6O6
_chemical_formula_sum              "Ag2 H14 C16 S2 N6 O6"
_cell_length_a       5.5576
_cell_length_b       10.4592
_cell_length_c       12.4827
_cell_angle_alpha    105.522
_cell_angle_beta     98.7695
_cell_angle_gamma    96.1874

_space_group_name_H-M_alt    "P 1"
_space_group_IT_number       1

loop_
  _space_group_symop_operation_xyz
  'x, y, z'

loop_
  _atom_site_type_symbol
  _atom_site_label
  _atom_site_symmetry_multiplicity
  _atom_site_fract_x
  _atom_site_fract_y
  _atom_site_fract_z
  _atom_site_occupancy
  Ag  Ag1       1.0  0.91621  0.93524  0.08035  1.0000
  Ag  Ag2       1.0  0.08379  0.06476  0.91965  1.0000
  H   H1        1.0  0.32119  0.91935  0.71526  1.0000
  H   H2        1.0  0.67882  0.08065  0.28474  1.0000
  H   H3        1.0  0.30719  0.68665  0.58348  1.0000
  H   H4        1.0  0.69280  0.31336  0.41651  1.0000
  H   H5        1.0  0.99042  0.50062  0.59910  1.0000
  H   H6        1.0  0.00957  0.49939  0.40090  1.0000
  H   H7        1.0  0.49809  0.55692  0.82521  1.0000
  H   H8        1.0  0.50190  0.44308  0.17479  1.0000
  H   H9        1.0  0.46153  0.64077  0.96548  1.0000
  H   H10       1.0  0.53847  0.35923  0.03452  1.0000
  H   H11       1.0  0.80003  0.40949  0.79751  1.0000
  H   H12       1.0  0.19997  0.59050  0.20249  1.0000
  H   H13       1.0  0.85068  0.68902  0.12653  1.0000
  H   H14       1.0  0.14932  0.31098  0.87347  1.0000
  C   C1        1.0  0.19594  0.83304  0.71796  1.0000
  C   C2        1.0  0.80405  0.16697  0.28204  1.0000
  C   C3        1.0  0.18426  0.70522  0.64413  1.0000
  C   C4        1.0  0.81573  0.29478  0.35586  1.0000
  C   C5        1.0  0.01081  0.60405  0.65292  1.0000
  C   C6        1.0  0.98917  0.39596  0.34708  1.0000
  C   C7        1.0  0.88924  0.75115  0.79732  1.0000
  C   C8        1.0  0.11076  0.24886  0.20269  1.0000
  C   C9        1.0  0.59505  0.61899  0.90926  1.0000
  C   C10       1.0  0.40495  0.38101  0.09074  1.0000
  C   C11       1.0  0.80245  0.55711  0.95625  1.0000
  C   C12       1.0  0.19755  0.44289  0.04375  1.0000
  C   C13       1.0  0.88786  0.44954  0.88635  1.0000
  C   C14       1.0  0.11214  0.55046  0.11365  1.0000
  C   C15       1.0  0.91643  0.60642  0.07061  1.0000
  C   C16       1.0  0.08356  0.39358  0.92939  1.0000
  S   S1        1.0  0.69179  0.78696  0.89580  1.0000
  S   S2        1.0  0.30821  0.21304  0.10420  1.0000
  N   N1        1.0  0.85845  0.62680  0.72716  1.0000
  N   N2        1.0  0.14155  0.37320  0.27284  1.0000
  N   N3        1.0  0.05281  0.85612  0.79650  1.0000
  N   N4        1.0  0.94719  0.14388  0.20350  1.0000
  N   N5        1.0  0.40514  0.86756  0.15836  1.0000
  N   N6        1.0  0.59487  0.13244  0.84164  1.0000
  O   O1        1.0  0.26143  0.90365  0.22656  1.0000
  O   O2        1.0  0.73857  0.09636  0.77343  1.0000
  O   O3        1.0  0.33335  0.85062  0.05280  1.0000
  O   O4        1.0  0.66666  0.14937  0.94720  1.0000
  O   O5        1.0  0.62185  0.85049  0.19529  1.0000
  O   O6        1.0  0.37815  0.14951  0.80471  1.0000
