data_image0
_chemical_formula_structural       H16Pb2C28N8O8
_chemical_formula_sum              "H16 Pb2 C28 N8 O8"
_cell_length_a       4.54764
_cell_length_b       7.98451
_cell_length_c       19.5259
_cell_angle_alpha    84.0478
_cell_angle_beta     83.2928
_cell_angle_gamma    73.5116

_space_group_name_H-M_alt    "P 1"
_space_group_IT_number       1

loop_
  _space_group_symop_operation_xyz
  'x, y, z'

loop_
  _atom_site_type_symbol
  _atom_site_label
  _atom_site_symmetry_multiplicity
  _atom_site_fract_x
  _atom_site_fract_y
  _atom_site_fract_z
  _atom_site_occupancy
  H   H1        1.0  0.31762  0.45285  0.40198  1.0000
  H   H2        1.0  0.17386  0.04731  0.09752  1.0000
  H   H3        1.0  0.68238  0.54715  0.59802  1.0000
  H   H4        1.0  0.82614  0.95269  0.90248  1.0000
  H   H5        1.0  0.13193  0.35855  0.26774  1.0000
  H   H6        1.0  0.75745  0.14236  0.23215  1.0000
  H   H7        1.0  0.86807  0.64145  0.73226  1.0000
  H   H8        1.0  0.24255  0.85764  0.76785  1.0000
  H   H9        1.0  0.58205  0.68717  0.48148  1.0000
  H   H10       1.0  0.75051  0.81277  0.01839  1.0000
  H   H11       1.0  0.41796  0.31283  0.51852  1.0000
  H   H12       1.0  0.24950  0.18723  0.98161  1.0000
  H   H13       1.0  0.16657  0.06704  0.35974  1.0000
  H   H14       1.0  0.59025  0.43469  0.14059  1.0000
  H   H15       1.0  0.83343  0.93296  0.64026  1.0000
  H   H16       1.0  0.40975  0.56530  0.85941  1.0000
  Pb  Pb1       1.0  0.42323  0.75062  0.24994  1.0000
  Pb  Pb2       1.0  0.57674  0.24938  0.75005  1.0000
  C   C1        1.0  0.54432  0.39004  0.37809  1.0000
  C   C2        1.0  0.31320  0.11027  0.12159  1.0000
  C   C3        1.0  0.45568  0.60996  0.62191  1.0000
  C   C4        1.0  0.68681  0.88973  0.87841  1.0000
  C   C5        1.0  0.82574  0.84976  0.37283  1.0000
  C   C6        1.0  0.04805  0.65075  0.12712  1.0000
  C   C7        1.0  0.17426  0.15024  0.62717  1.0000
  C   C8        1.0  0.95193  0.34925  0.87288  1.0000
  C   C9        1.0  0.66492  0.93008  0.43874  1.0000
  C   C10       1.0  0.03303  0.57021  0.06128  1.0000
  C   C11       1.0  0.33509  0.06992  0.56125  1.0000
  C   C12       1.0  0.96697  0.42979  0.93872  1.0000
  C   C13       1.0  0.96700  0.33475  0.30958  1.0000
  C   C14       1.0  0.61098  0.16604  0.19024  1.0000
  C   C15       1.0  0.03300  0.66525  0.69042  1.0000
  C   C16       1.0  0.38902  0.83396  0.80976  1.0000
  C   C17       1.0  0.61163  0.10828  0.44904  1.0000
  C   C18       1.0  0.16829  0.39210  0.05097  1.0000
  C   C19       1.0  0.38837  0.89172  0.55096  1.0000
  C   C20       1.0  0.83172  0.60790  0.94903  1.0000
  C   C21       1.0  0.55141  0.82394  0.49022  1.0000
  C   C22       1.0  0.86567  0.67606  0.00972  1.0000
  C   C23       1.0  0.44860  0.17606  0.50978  1.0000
  C   C24       1.0  0.13434  0.32394  0.99028  1.0000
  C   C25       1.0  0.98480  0.18796  0.35396  1.0000
  C   C26       1.0  0.52523  0.31317  0.14613  1.0000
  C   C27       1.0  0.01521  0.81205  0.64604  1.0000
  C   C28       1.0  0.47477  0.68683  0.85387  1.0000
  N   N1        1.0  0.69179  0.45932  0.32502  1.0000
  N   N2        1.0  0.47723  0.04090  0.17456  1.0000
  N   N3        1.0  0.30820  0.54068  0.67498  1.0000
  N   N4        1.0  0.52277  0.95909  0.82545  1.0000
  N   N5        1.0  0.71339  0.22386  0.39747  1.0000
  N   N6        1.0  0.33409  0.27687  0.10251  1.0000
  N   N7        1.0  0.28661  0.77614  0.60253  1.0000
  N   N8        1.0  0.66592  0.72312  0.89749  1.0000
  O   O1        1.0  0.68391  0.90138  0.31827  1.0000
  O   O2        1.0  0.90267  0.59992  0.18179  1.0000
  O   O3        1.0  0.31609  0.09861  0.68173  1.0000
  O   O4        1.0  0.09729  0.40009  0.81821  1.0000
  O   O5        1.0  0.08595  0.74100  0.37640  1.0000
  O   O6        1.0  0.20472  0.75892  0.12338  1.0000
  O   O7        1.0  0.91406  0.25900  0.62360  1.0000
  O   O8        1.0  0.79528  0.24108  0.87663  1.0000
