data_image0
_chemical_formula_structural       Zn4H28C40N8O16
_chemical_formula_sum              "Zn4 H28 C40 N8 O16"
_cell_length_a       8.98062
_cell_length_b       10.3634
_cell_length_c       16.7228
_cell_angle_alpha    74.553
_cell_angle_beta     77.0839
_cell_angle_gamma    68.1749

_space_group_name_H-M_alt    "P 1"
_space_group_IT_number       1

loop_
  _space_group_symop_operation_xyz
  'x, y, z'

loop_
  _atom_site_type_symbol
  _atom_site_label
  _atom_site_symmetry_multiplicity
  _atom_site_fract_x
  _atom_site_fract_y
  _atom_site_fract_z
  _atom_site_occupancy
  Zn  Zn1       1.0  0.29787  0.37693  0.27402  1.0000
  Zn  Zn2       1.0  0.70213  0.62307  0.72598  1.0000
  Zn  Zn3       1.0  0.47147  0.11284  0.22123  1.0000
  Zn  Zn4       1.0  0.52853  0.88716  0.77877  1.0000
  H   H1        1.0  0.96605  0.10736  0.21621  1.0000
  H   H2        1.0  0.03395  0.89264  0.78379  1.0000
  H   H3        1.0  0.80034  0.39243  0.27470  1.0000
  H   H4        1.0  0.19966  0.60757  0.72530  1.0000
  H   H5        1.0  0.49038  0.98481  0.08019  1.0000
  H   H6        1.0  0.50962  0.01519  0.91981  1.0000
  H   H7        1.0  0.67844  0.77640  0.01655  1.0000
  H   H8        1.0  0.32156  0.22360  0.98345  1.0000
  H   H9        1.0  0.92587  0.63209  0.23440  1.0000
  H   H10       1.0  0.07413  0.36791  0.76560  1.0000
  H   H11       1.0  0.72658  0.84725  0.28869  1.0000
  H   H12       1.0  0.27342  0.15275  0.71131  1.0000
  H   H13       1.0  0.03543  0.49678  0.12344  1.0000
  H   H14       1.0  0.96457  0.50322  0.87656  1.0000
  H   H15       1.0  0.52039  0.37891  0.95702  1.0000
  H   H16       1.0  0.47961  0.62109  0.04298  1.0000
  H   H17       1.0  0.35722  0.11255  0.54030  1.0000
  H   H18       1.0  0.64278  0.88745  0.45970  1.0000
  H   H19       1.0  0.35275  0.64779  0.21728  1.0000
  H   H20       1.0  0.64725  0.35221  0.78272  1.0000
  H   H21       1.0  0.29112  0.86741  0.27450  1.0000
  H   H22       1.0  0.70888  0.13259  0.72549  1.0000
  H   H23       1.0  0.95985  0.71570  0.47359  1.0000
  H   H24       1.0  0.04015  0.28430  0.52641  1.0000
  H   H25       1.0  0.03395  0.50345  0.40728  1.0000
  H   H26       1.0  0.96605  0.49655  0.59272  1.0000
  H   H27       1.0  0.16647  0.99863  0.38592  1.0000
  H   H28       1.0  0.83353  0.00137  0.61408  1.0000
  C   C1        1.0  0.39595  0.11976  0.40443  1.0000
  C   C2        1.0  0.60404  0.88024  0.59557  1.0000
  C   C3        1.0  0.10986  0.22147  0.24031  1.0000
  C   C4        1.0  0.89014  0.77853  0.75969  1.0000
  C   C5        1.0  0.95637  0.20331  0.23518  1.0000
  C   C6        1.0  0.04363  0.79669  0.76481  1.0000
  C   C7        1.0  0.81083  0.29744  0.25437  1.0000
  C   C8        1.0  0.18917  0.70256  0.74563  1.0000
  C   C9        1.0  0.65684  0.27703  0.25185  1.0000
  C   C10       1.0  0.34316  0.72297  0.74815  1.0000
  C   C11       1.0  0.58839  0.90294  0.11182  1.0000
  C   C12       1.0  0.41161  0.09706  0.88818  1.0000
  C   C13       1.0  0.69254  0.78858  0.07696  1.0000
  C   C14       1.0  0.30746  0.21142  0.92304  1.0000
  C   C15       1.0  0.81930  0.68944  0.12040  1.0000
  C   C16       1.0  0.18070  0.31056  0.87960  1.0000
  C   C17       1.0  0.83060  0.70833  0.19867  1.0000
  C   C18       1.0  0.16940  0.29167  0.80133  1.0000
  C   C19       1.0  0.72112  0.82623  0.22905  1.0000
  C   C20       1.0  0.27888  0.17377  0.77095  1.0000
  C   C21       1.0  0.94070  0.57122  0.08587  1.0000
  C   C22       1.0  0.05930  0.42878  0.91413  1.0000
  C   C23       1.0  0.42343  0.37041  0.09098  1.0000
  C   C24       1.0  0.57657  0.62960  0.90902  1.0000
  C   C25       1.0  0.48660  0.43824  0.00695  1.0000
  C   C26       1.0  0.51340  0.56177  0.99305  1.0000
  C   C27       1.0  0.43497  0.05727  0.49115  1.0000
  C   C28       1.0  0.56503  0.94273  0.50885  1.0000
  C   C29       1.0  0.26620  0.66837  0.27345  1.0000
  C   C30       1.0  0.73380  0.33163  0.72655  1.0000
  C   C31       1.0  0.23332  0.78797  0.30576  1.0000
  C   C32       1.0  0.76668  0.21203  0.69424  1.0000
  C   C33       1.0  0.12418  0.80558  0.37978  1.0000
  C   C34       1.0  0.87582  0.19442  0.62022  1.0000
  C   C35       1.0  0.04693  0.70369  0.41668  1.0000
  C   C36       1.0  0.95307  0.29631  0.58332  1.0000
  C   C37       1.0  0.08696  0.58741  0.38032  1.0000
  C   C38       1.0  0.91304  0.41259  0.61968  1.0000
  C   C39       1.0  0.09904  0.92536  0.41713  1.0000
  C   C40       1.0  0.90096  0.07464  0.58287  1.0000
  N   N1        1.0  0.93683  0.55791  0.01160  1.0000
  N   N2        1.0  0.06317  0.44209  0.98840  1.0000
  N   N3        1.0  0.00244  0.94148  0.48659  1.0000
  N   N4        1.0  0.99757  0.05851  0.51341  1.0000
  N   N5        1.0  0.60307  0.92285  0.18593  1.0000
  N   N6        1.0  0.39693  0.07715  0.81407  1.0000
  N   N7        1.0  0.19602  0.56884  0.31054  1.0000
  N   N8        1.0  0.80398  0.43116  0.68946  1.0000
  O   O1        1.0  0.29545  0.24599  0.39218  1.0000
  O   O2        1.0  0.70455  0.75401  0.60782  1.0000
  O   O3        1.0  0.46785  0.04480  0.34881  1.0000
  O   O4        1.0  0.53215  0.95520  0.65119  1.0000
  O   O5        1.0  0.23809  0.11523  0.23102  1.0000
  O   O6        1.0  0.76191  0.88477  0.76898  1.0000
  O   O7        1.0  0.10318  0.33913  0.25386  1.0000
  O   O8        1.0  0.89682  0.66087  0.74614  1.0000
  O   O9        1.0  0.66438  0.17604  0.21966  1.0000
  O   O10       1.0  0.33562  0.82396  0.78034  1.0000
  O   O11       1.0  0.52868  0.36436  0.28315  1.0000
  O   O12       1.0  0.47132  0.63564  0.71685  1.0000
  O   O13       1.0  0.44741  0.23773  0.10171  1.0000
  O   O14       1.0  0.55259  0.76228  0.89829  1.0000
  O   O15       1.0  0.35622  0.44645  0.14624  1.0000
  O   O16       1.0  0.64378  0.55355  0.85376  1.0000
