data_image0
_chemical_formula_structural       Cu4H32C48I4N8O4
_chemical_formula_sum              "Cu4 H32 C48 I4 N8 O4"
_cell_length_a       3.96719
_cell_length_b       14.6506
_cell_length_c       20.5644
_cell_angle_alpha    104.207
_cell_angle_beta     90.0004
_cell_angle_gamma    90.0006

_space_group_name_H-M_alt    "P 1"
_space_group_IT_number       1

loop_
  _space_group_symop_operation_xyz
  'x, y, z'

loop_
  _atom_site_type_symbol
  _atom_site_label
  _atom_site_symmetry_multiplicity
  _atom_site_fract_x
  _atom_site_fract_y
  _atom_site_fract_z
  _atom_site_occupancy
  Cu  Cu1       1.0  0.25713  0.43854  0.99852  1.0000
  Cu  Cu2       1.0  0.25715  0.06146  0.50148  1.0000
  Cu  Cu3       1.0  0.74284  0.56147  0.00148  1.0000
  Cu  Cu4       1.0  0.74286  0.93853  0.49852  1.0000
  H   H1        1.0  0.33865  0.09936  0.01710  1.0000
  H   H2        1.0  0.33868  0.40064  0.48290  1.0000
  H   H3        1.0  0.66135  0.90065  0.98291  1.0000
  H   H4        1.0  0.66134  0.59936  0.51710  1.0000
  H   H5        1.0  0.56653  0.86150  0.28006  1.0000
  H   H6        1.0  0.56649  0.63849  0.21993  1.0000
  H   H7        1.0  0.43349  0.13849  0.71993  1.0000
  H   H8        1.0  0.43345  0.36150  0.78007  1.0000
  H   H9        1.0  0.53056  0.03410  0.29194  1.0000
  H   H10       1.0  0.53054  0.46589  0.20806  1.0000
  H   H11       1.0  0.46943  0.96589  0.70806  1.0000
  H   H12       1.0  0.46944  0.53410  0.79193  1.0000
  H   H13       1.0  0.45005  0.23716  0.96872  1.0000
  H   H14       1.0  0.45009  0.26284  0.53128  1.0000
  H   H15       1.0  0.54992  0.76285  0.03128  1.0000
  H   H16       1.0  0.54994  0.73716  0.46872  1.0000
  H   H17       1.0  0.13096  0.82120  0.09526  1.0000
  H   H18       1.0  0.13092  0.67881  0.40474  1.0000
  H   H19       1.0  0.86908  0.17881  0.90474  1.0000
  H   H20       1.0  0.86905  0.32119  0.59525  1.0000
  H   H21       1.0  0.86185  0.75716  0.18338  1.0000
  H   H22       1.0  0.86179  0.74283  0.31662  1.0000
  H   H23       1.0  0.13822  0.24284  0.81662  1.0000
  H   H24       1.0  0.13815  0.25716  0.68338  1.0000
  H   H25       1.0  0.88924  0.29364  0.18839  1.0000
  H   H26       1.0  0.88924  0.20637  0.31161  1.0000
  H   H27       1.0  0.11079  0.70638  0.81162  1.0000
  H   H28       1.0  0.11075  0.79363  0.68838  1.0000
  H   H29       1.0  0.01246  0.42290  0.13088  1.0000
  H   H30       1.0  0.01245  0.07710  0.36912  1.0000
  H   H31       1.0  0.98752  0.57711  0.86912  1.0000
  H   H32       1.0  0.98754  0.92290  0.63089  1.0000
  C   C1        1.0  0.26254  0.16982  0.04431  1.0000
  C   C2        1.0  0.26256  0.33017  0.45569  1.0000
  C   C3        1.0  0.73747  0.83019  0.95570  1.0000
  C   C4        1.0  0.73747  0.66982  0.54431  1.0000
  C   C5        1.0  0.81391  0.02500  0.19991  1.0000
  C   C6        1.0  0.81388  0.47499  0.30009  1.0000
  C   C7        1.0  0.18610  0.97500  0.80009  1.0000
  C   C8        1.0  0.18609  0.52500  0.69990  1.0000
  C   C9        1.0  0.68416  0.89182  0.24232  1.0000
  C   C10       1.0  0.68412  0.60817  0.25768  1.0000
  C   C11       1.0  0.31587  0.10817  0.75767  1.0000
  C   C12       1.0  0.31583  0.39182  0.74232  1.0000
  C   C13       1.0  0.66243  0.98872  0.24969  1.0000
  C   C14       1.0  0.66241  0.51127  0.25031  1.0000
  C   C15       1.0  0.33757  0.01128  0.75031  1.0000
  C   C16       1.0  0.33754  0.48872  0.74969  1.0000
  C   C17       1.0  0.32484  0.24607  0.01712  1.0000
  C   C18       1.0  0.32485  0.25393  0.48288  1.0000
  C   C19       1.0  0.67517  0.75394  0.98288  1.0000
  C   C20       1.0  0.67517  0.74607  0.51712  1.0000
  C   C21       1.0  0.09814  0.18554  0.10657  1.0000
  C   C22       1.0  0.09816  0.31446  0.39343  1.0000
  C   C23       1.0  0.90190  0.81447  0.89344  1.0000
  C   C24       1.0  0.90187  0.68554  0.60656  1.0000
  C   C25       1.0  0.00025  0.86764  0.13704  1.0000
  C   C26       1.0  0.00022  0.63235  0.36296  1.0000
  C   C27       1.0  0.99977  0.13236  0.86296  1.0000
  C   C28       1.0  0.99974  0.36764  0.63704  1.0000
  C   C29       1.0  0.97671  0.96407  0.14516  1.0000
  C   C30       1.0  0.97669  0.53592  0.35484  1.0000
  C   C31       1.0  0.02329  0.03593  0.85484  1.0000
  C   C32       1.0  0.02327  0.46407  0.64516  1.0000
  C   C33       1.0  0.84919  0.83265  0.18736  1.0000
  C   C34       1.0  0.84914  0.66734  0.31263  1.0000
  C   C35       1.0  0.15084  0.16735  0.81263  1.0000
  C   C36       1.0  0.15080  0.33265  0.68736  1.0000
  C   C37       1.0  0.00876  0.10985  0.13722  1.0000
  C   C38       1.0  0.00877  0.39015  0.36278  1.0000
  C   C39       1.0  0.99126  0.89016  0.86279  1.0000
  C   C40       1.0  0.99124  0.60985  0.63722  1.0000
  C   C41       1.0  0.01090  0.27849  0.13931  1.0000
  C   C42       1.0  0.01091  0.22151  0.36069  1.0000
  C   C43       1.0  0.98912  0.72153  0.86070  1.0000
  C   C44       1.0  0.98910  0.77848  0.63931  1.0000
  C   C45       1.0  0.08070  0.34994  0.10797  1.0000
  C   C46       1.0  0.08070  0.15006  0.39203  1.0000
  C   C47       1.0  0.91931  0.65007  0.89204  1.0000
  C   C48       1.0  0.91931  0.84994  0.60797  1.0000
  I   I1        1.0  0.24615  0.59888  0.08895  1.0000
  I   I2        1.0  0.24615  0.90112  0.41105  1.0000
  I   I3        1.0  0.75383  0.40113  0.91105  1.0000
  I   I4        1.0  0.75385  0.09888  0.58894  1.0000
  N   N1        1.0  0.23284  0.33497  0.04741  1.0000
  N   N2        1.0  0.23286  0.16503  0.45258  1.0000
  N   N3        1.0  0.76715  0.66504  0.95259  1.0000
  N   N4        1.0  0.76716  0.83497  0.54741  1.0000
  N   N5        1.0  0.83965  0.11666  0.19285  1.0000
  N   N6        1.0  0.83965  0.38334  0.30716  1.0000
  N   N7        1.0  0.16037  0.88334  0.80716  1.0000
  N   N8        1.0  0.16035  0.61666  0.69284  1.0000
  O   O1        1.0  0.10210  0.01848  0.10446  1.0000
  O   O2        1.0  0.10211  0.48152  0.39554  1.0000
  O   O3        1.0  0.89790  0.98153  0.89554  1.0000
  O   O4        1.0  0.89789  0.51848  0.60446  1.0000
