data_image0
_chemical_formula_structural       Cu2H32C36Br2N4O4
_chemical_formula_sum              "Cu2 H32 C36 Br2 N4 O4"
_cell_length_a       8.14151
_cell_length_b       9.4437
_cell_length_c       10.7475
_cell_angle_alpha    89.9852
_cell_angle_beta     92.0217
_cell_angle_gamma    104.097

_space_group_name_H-M_alt    "P 1"
_space_group_IT_number       1

loop_
  _space_group_symop_operation_xyz
  'x, y, z'

loop_
  _atom_site_type_symbol
  _atom_site_label
  _atom_site_symmetry_multiplicity
  _atom_site_fract_x
  _atom_site_fract_y
  _atom_site_fract_z
  _atom_site_occupancy
  Cu  Cu1       1.0  0.50926  0.42743  0.64101  1.0000
  Cu  Cu2       1.0  0.49074  0.57257  0.35899  1.0000
  H   H1        1.0  0.16320  0.16678  0.61517  1.0000
  H   H2        1.0  0.83679  0.83321  0.38482  1.0000
  H   H3        1.0  0.16769  0.33496  0.92230  1.0000
  H   H4        1.0  0.83231  0.66504  0.07771  1.0000
  H   H5        1.0  0.19888  0.33902  0.75924  1.0000
  H   H6        1.0  0.80112  0.66098  0.24076  1.0000
  H   H7        1.0  0.87160  0.34135  0.60951  1.0000
  H   H8        1.0  0.12840  0.65865  0.39049  1.0000
  H   H9        1.0  0.92774  0.19260  0.68721  1.0000
  H   H10       1.0  0.07226  0.80740  0.31278  1.0000
  H   H11       1.0  0.84690  0.28322  0.89026  1.0000
  H   H12       1.0  0.15310  0.71678  0.10974  1.0000
  H   H13       1.0  0.75809  0.41162  0.81026  1.0000
  H   H14       1.0  0.24191  0.58838  0.18974  1.0000
  H   H15       1.0  0.81795  0.71040  0.73524  1.0000
  H   H16       1.0  0.18205  0.28960  0.26476  1.0000
  H   H17       1.0  0.04523  0.53774  0.73608  1.0000
  H   H18       1.0  0.95477  0.46226  0.26392  1.0000
  H   H19       1.0  0.02545  0.54480  0.89879  1.0000
  H   H20       1.0  0.97454  0.45520  0.10121  1.0000
  H   H21       1.0  0.98553  0.90821  0.60246  1.0000
  H   H22       1.0  0.01447  0.09179  0.39753  1.0000
  H   H23       1.0  0.43299  0.73877  0.63373  1.0000
  H   H24       1.0  0.56701  0.26123  0.36627  1.0000
  H   H25       1.0  0.11933  0.70064  0.60784  1.0000
  H   H26       1.0  0.88068  0.29936  0.39216  1.0000
  H   H27       1.0  0.95194  0.93523  0.86076  1.0000
  H   H28       1.0  0.04806  0.06477  0.13924  1.0000
  H   H29       1.0  0.80298  0.01395  0.03540  1.0000
  H   H30       1.0  0.19702  0.98605  0.96460  1.0000
  H   H31       1.0  0.51447  0.87061  0.09184  1.0000
  H   H32       1.0  0.48553  0.12939  0.90816  1.0000
  C   C1        1.0  0.21912  0.07370  0.62609  1.0000
  C   C2        1.0  0.78088  0.92630  0.37391  1.0000
  C   C3        1.0  0.34405  0.51923  0.85614  1.0000
  C   C4        1.0  0.65595  0.48077  0.14386  1.0000
  C   C5        1.0  0.39422  0.09471  0.64293  1.0000
  C   C6        1.0  0.60578  0.90528  0.35707  1.0000
  C   C7        1.0  0.66653  0.17651  0.66773  1.0000
  C   C8        1.0  0.33347  0.82349  0.33227  1.0000
  C   C9        1.0  0.18407  0.40569  0.83970  1.0000
  C   C10       1.0  0.81593  0.59431  0.16030  1.0000
  C   C11       1.0  0.59330  0.66649  0.84469  1.0000
  C   C12       1.0  0.40670  0.33351  0.15531  1.0000
  C   C13       1.0  0.46648  0.97421  0.64876  1.0000
  C   C14       1.0  0.53351  0.02579  0.35124  1.0000
  C   C15       1.0  0.84171  0.26557  0.68815  1.0000
  C   C16       1.0  0.15830  0.73443  0.31185  1.0000
  C   C17       1.0  0.51149  0.71371  0.94362  1.0000
  C   C18       1.0  0.48850  0.28629  0.05638  1.0000
  C   C19       1.0  0.86193  0.35595  0.80919  1.0000
  C   C20       1.0  0.13807  0.64405  0.19080  1.0000
  C   C21       1.0  0.75519  0.74430  0.81383  1.0000
  C   C22       1.0  0.24480  0.25570  0.18617  1.0000
  C   C23       1.0  0.02958  0.47093  0.82056  1.0000
  C   C24       1.0  0.97042  0.52907  0.17944  1.0000
  C   C25       1.0  0.12268  0.92970  0.61691  1.0000
  C   C26       1.0  0.87732  0.07030  0.38309  1.0000
  C   C27       1.0  0.37402  0.83047  0.63627  1.0000
  C   C28       1.0  0.62599  0.16953  0.36373  1.0000
  C   C29       1.0  0.19855  0.81095  0.62126  1.0000
  C   C30       1.0  0.80145  0.18905  0.37874  1.0000
  C   C31       1.0  0.82755  0.86953  0.88461  1.0000
  C   C32       1.0  0.17245  0.13047  0.11539  1.0000
  C   C33       1.0  0.74263  0.91502  0.98305  1.0000
  C   C34       1.0  0.25737  0.08498  0.01695  1.0000
  C   C35       1.0  0.58103  0.83674  0.01560  1.0000
  C   C36       1.0  0.41896  0.16326  0.98440  1.0000
  Br  Br1       1.0  0.25556  0.43678  0.49413  1.0000
  Br  Br2       1.0  0.74444  0.56322  0.50587  1.0000
  N   N1        1.0  0.52621  0.22178  0.65456  1.0000
  N   N2        1.0  0.47380  0.77822  0.34544  1.0000
  N   N3        1.0  0.48152  0.54234  0.79073  1.0000
  N   N4        1.0  0.51848  0.45767  0.20927  1.0000
  O   O1        1.0  0.64008  0.02703  0.66502  1.0000
  O   O2        1.0  0.35993  0.97296  0.33498  1.0000
  O   O3        1.0  0.35354  0.61911  0.95120  1.0000
  O   O4        1.0  0.64646  0.38089  0.04880  1.0000
