data_image0
_chemical_formula_structural       Cu2H16C26S2N6O2
_chemical_formula_sum              "Cu2 H16 C26 S2 N6 O2"
_cell_length_a       5.7676
_cell_length_b       7.02076
_cell_length_c       14.4662
_cell_angle_alpha    89.9998
_cell_angle_beta     96.6804
_cell_angle_gamma    90.0007

_space_group_name_H-M_alt    "P 1"
_space_group_IT_number       1

loop_
  _space_group_symop_operation_xyz
  'x, y, z'

loop_
  _atom_site_type_symbol
  _atom_site_label
  _atom_site_symmetry_multiplicity
  _atom_site_fract_x
  _atom_site_fract_y
  _atom_site_fract_z
  _atom_site_occupancy
  Cu  Cu1       1.0  0.15519  0.91462  0.92921  1.0000
  Cu  Cu2       1.0  0.84484  0.41463  0.07079  1.0000
  H   H1        1.0  0.60591  0.94074  0.13155  1.0000
  H   H2        1.0  0.39408  0.44071  0.86845  1.0000
  H   H3        1.0  0.18638  0.95385  0.58029  1.0000
  H   H4        1.0  0.81362  0.45385  0.41971  1.0000
  H   H5        1.0  0.32372  0.99547  0.74942  1.0000
  H   H6        1.0  0.67629  0.49547  0.25058  1.0000
  H   H7        1.0  0.54621  0.72019  0.66111  1.0000
  H   H8        1.0  0.45379  0.22020  0.33889  1.0000
  H   H9        1.0  0.93045  0.00428  0.25790  1.0000
  H   H10       1.0  0.06955  0.50426  0.74210  1.0000
  H   H11       1.0  0.17290  0.70756  0.32798  1.0000
  H   H12       1.0  0.82709  0.20755  0.67202  1.0000
  H   H13       1.0  0.23574  0.79662  0.16521  1.0000
  H   H14       1.0  0.76426  0.29660  0.83479  1.0000
  H   H15       1.0  0.71262  0.76491  0.82664  1.0000
  H   H16       1.0  0.28738  0.26492  0.17337  1.0000
  C   C1        1.0  0.58370  0.90501  0.20310  1.0000
  C   C2        1.0  0.41631  0.40499  0.79690  1.0000
  C   C3        1.0  0.07492  0.91247  0.63271  1.0000
  C   C4        1.0  0.92507  0.41246  0.36729  1.0000
  C   C5        1.0  0.33150  0.52795  0.02379  1.0000
  C   C6        1.0  0.66852  0.02794  0.97620  1.0000
  C   C7        1.0  0.72677  0.88924  0.36227  1.0000
  C   C8        1.0  0.27323  0.38922  0.63773  1.0000
  C   C9        1.0  0.15288  0.93408  0.72667  1.0000
  C   C10       1.0  0.84712  0.43408  0.27334  1.0000
  C   C11       1.0  0.71939  0.78104  0.67815  1.0000
  C   C12       1.0  0.28060  0.28104  0.32185  1.0000
  C   C13       1.0  0.76671  0.94147  0.27302  1.0000
  C   C14       1.0  0.23329  0.44144  0.72699  1.0000
  C   C15       1.0  0.85013  0.83854  0.60705  1.0000
  C   C16       1.0  0.14987  0.33854  0.39295  1.0000
  C   C17       1.0  0.33633  0.77062  0.31285  1.0000
  C   C18       1.0  0.66367  0.27060  0.68716  1.0000
  C   C19       1.0  0.51794  0.80482  0.38385  1.0000
  C   C20       1.0  0.48206  0.30481  0.61615  1.0000
  C   C21       1.0  0.74602  0.83068  0.51107  1.0000
  C   C22       1.0  0.25397  0.33068  0.48893  1.0000
  C   C23       1.0  0.37277  0.82152  0.22255  1.0000
  C   C24       1.0  0.62722  0.32149  0.77745  1.0000
  C   C25       1.0  0.81168  0.80611  0.77012  1.0000
  C   C26       1.0  0.18832  0.30610  0.22988  1.0000
  S   S1        1.0  0.06797  0.60385  0.98635  1.0000
  S   S2        1.0  0.93205  0.10386  0.01365  1.0000
  N   N1        1.0  0.02416  0.88418  0.79520  1.0000
  N   N2        1.0  0.97584  0.38418  0.20480  1.0000
  N   N3        1.0  0.53744  0.76946  0.47915  1.0000
  N   N4        1.0  0.46255  0.26945  0.52085  1.0000
  N   N5        1.0  0.52306  0.47468  0.04868  1.0000
  N   N6        1.0  0.47695  0.97468  0.95131  1.0000
  O   O1        1.0  0.87424  0.90552  0.44397  1.0000
  O   O2        1.0  0.12575  0.40551  0.55603  1.0000
