data_image0
_chemical_formula_structural       Zn2H26C20N10O8
_chemical_formula_sum              "Zn2 H26 C20 N10 O8"
_cell_length_a       8.99397
_cell_length_b       9.67658
_cell_length_c       11.5959
_cell_angle_alpha    109.648
_cell_angle_beta     90.0002
_cell_angle_gamma    90.0001

_space_group_name_H-M_alt    "P 1"
_space_group_IT_number       1

loop_
  _space_group_symop_operation_xyz
  'x, y, z'

loop_
  _atom_site_type_symbol
  _atom_site_label
  _atom_site_symmetry_multiplicity
  _atom_site_fract_x
  _atom_site_fract_y
  _atom_site_fract_z
  _atom_site_occupancy
  Zn  Zn1       1.0  0.58447  0.79573  0.92564  1.0000
  Zn  Zn2       1.0  0.08447  0.20427  0.07436  1.0000
  H   H1        1.0  0.58318  0.40745  0.07359  1.0000
  H   H2        1.0  0.08317  0.59254  0.92641  1.0000
  H   H3        1.0  0.45712  0.58911  0.75132  1.0000
  H   H4        1.0  0.95713  0.41089  0.24867  1.0000
  H   H5        1.0  0.44272  0.74029  0.72066  1.0000
  H   H6        1.0  0.94272  0.25971  0.27934  1.0000
  H   H7        1.0  0.73667  0.47567  0.44209  1.0000
  H   H8        1.0  0.23666  0.52433  0.55792  1.0000
  H   H9        1.0  0.57983  0.08025  0.83378  1.0000
  H   H10       1.0  0.07983  0.91975  0.16622  1.0000
  H   H11       1.0  0.90503  0.91581  0.01432  1.0000
  H   H12       1.0  0.40503  0.08419  0.98568  1.0000
  H   H13       1.0  0.70713  0.32959  0.84412  1.0000
  H   H14       1.0  0.20713  0.67041  0.15587  1.0000
  H   H15       1.0  0.90440  0.32955  0.85137  1.0000
  H   H16       1.0  0.40440  0.67045  0.14863  1.0000
  H   H17       1.0  0.49308  0.56015  0.30703  1.0000
  H   H18       1.0  0.99308  0.43984  0.69297  1.0000
  H   H19       1.0  0.53058  0.37072  0.26283  1.0000
  H   H20       1.0  0.03058  0.62928  0.73718  1.0000
  H   H21       1.0  0.91047  0.46557  0.06509  1.0000
  H   H22       1.0  0.41046  0.53443  0.93490  1.0000
  H   H23       1.0  0.68943  0.53231  0.65991  1.0000
  H   H24       1.0  0.18943  0.46769  0.34010  1.0000
  H   H25       1.0  0.70851  0.71177  0.65411  1.0000
  H   H26       1.0  0.20851  0.28823  0.34589  1.0000
  C   C1        1.0  0.68032  0.07586  0.88430  1.0000
  C   C2        1.0  0.18032  0.92414  0.11570  1.0000
  C   C3        1.0  0.54812  0.58144  0.52575  1.0000
  C   C4        1.0  0.04812  0.41857  0.47425  1.0000
  C   C5        1.0  0.84616  0.99095  0.97898  1.0000
  C   C6        1.0  0.34616  0.00905  0.02102  1.0000
  C   C7        1.0  0.78275  0.59608  0.98493  1.0000
  C   C8        1.0  0.28274  0.40393  0.01508  1.0000
  C   C9        1.0  0.80245  0.32250  0.90149  1.0000
  C   C10       1.0  0.30245  0.67750  0.09850  1.0000
  C   C11       1.0  0.58078  0.47996  0.30465  1.0000
  C   C12       1.0  0.08077  0.52004  0.69535  1.0000
  C   C13       1.0  0.79257  0.17845  0.92170  1.0000
  C   C14       1.0  0.29257  0.82155  0.07830  1.0000
  C   C15       1.0  0.80191  0.45761  0.02038  1.0000
  C   C16       1.0  0.30191  0.54239  0.97962  1.0000
  C   C17       1.0  0.62712  0.62524  0.64994  1.0000
  C   C18       1.0  0.12711  0.37476  0.35006  1.0000
  C   C19       1.0  0.71065  0.49891  0.22637  1.0000
  C   C20       1.0  0.21065  0.50109  0.77363  1.0000
  N   N1        1.0  0.68880  0.44447  0.10510  1.0000
  N   N2        1.0  0.18880  0.55552  0.89490  1.0000
  N   N3        1.0  0.51845  0.67940  0.74962  1.0000
  N   N4        1.0  0.01846  0.32060  0.25038  1.0000
  N   N5        1.0  0.89760  0.12312  0.98239  1.0000
  N   N6        1.0  0.39760  0.87688  0.01761  1.0000
  N   N7        1.0  0.71486  0.95757  0.92073  1.0000
  N   N8        1.0  0.21487  0.04243  0.07927  1.0000
  N   N9        1.0  0.63017  0.50539  0.42874  1.0000
  N   N10       1.0  0.13016  0.49461  0.57126  1.0000
  O   O1        1.0  0.64912  0.64680  0.99539  1.0000
  O   O2        1.0  0.14912  0.35320  0.00461  1.0000
  O   O3        1.0  0.82954  0.55775  0.27510  1.0000
  O   O4        1.0  0.32954  0.44225  0.72490  1.0000
  O   O5        1.0  0.41690  0.62069  0.51846  1.0000
  O   O6        1.0  0.91689  0.37931  0.48154  1.0000
  O   O7        1.0  0.89161  0.64653  0.94456  1.0000
  O   O8        1.0  0.39161  0.35347  0.05544  1.0000
