data_image0
_chemical_formula_structural       Zn2H26C20N10O8
_chemical_formula_sum              "Zn2 H26 C20 N10 O8"
_cell_length_a       9.0486
_cell_length_b       9.66198
_cell_length_c       11.6337
_cell_angle_alpha    112.293
_cell_angle_beta     89.9998
_cell_angle_gamma    90.0001

_space_group_name_H-M_alt    "P 1"
_space_group_IT_number       1

loop_
  _space_group_symop_operation_xyz
  'x, y, z'

loop_
  _atom_site_type_symbol
  _atom_site_label
  _atom_site_symmetry_multiplicity
  _atom_site_fract_x
  _atom_site_fract_y
  _atom_site_fract_z
  _atom_site_occupancy
  Zn  Zn1       1.0  0.57090  0.86117  0.07458  1.0000
  Zn  Zn2       1.0  0.07090  0.13883  0.92542  1.0000
  H   H1        1.0  0.57057  0.34611  0.93326  1.0000
  H   H2        1.0  0.07057  0.65389  0.06674  1.0000
  H   H3        1.0  0.57303  0.22586  0.16867  1.0000
  H   H4        1.0  0.07303  0.77414  0.83133  1.0000
  H   H5        1.0  0.24532  0.40873  0.93473  1.0000
  H   H6        1.0  0.74532  0.59127  0.06527  1.0000
  H   H7        1.0  0.24997  0.90372  0.98667  1.0000
  H   H8        1.0  0.74996  0.09628  0.01333  1.0000
  H   H9        1.0  0.69027  0.81959  0.26189  1.0000
  H   H10       1.0  0.19027  0.18041  0.73810  1.0000
  H   H11       1.0  0.72905  0.98749  0.27237  1.0000
  H   H12       1.0  0.22904  0.01250  0.72763  1.0000
  H   H13       1.0  0.43883  0.46919  0.16469  1.0000
  H   H14       1.0  0.93884  0.53081  0.83531  1.0000
  H   H15       1.0  0.24296  0.45862  0.15156  1.0000
  H   H16       1.0  0.74296  0.54138  0.84844  1.0000
  H   H17       1.0  0.65667  0.29274  0.68789  1.0000
  H   H18       1.0  0.15667  0.70726  0.31211  1.0000
  H   H19       1.0  0.63870  0.15294  0.74964  1.0000
  H   H20       1.0  0.13870  0.84705  0.25036  1.0000
  H   H21       1.0  0.46129  0.89301  0.36279  1.0000
  H   H22       1.0  0.96129  0.10699  0.63721  1.0000
  H   H23       1.0  0.46583  0.06063  0.33568  1.0000
  H   H24       1.0  0.96583  0.93937  0.66433  1.0000
  H   H25       1.0  0.41713  0.08577  0.56892  1.0000
  H   H26       1.0  0.91712  0.91424  0.43108  1.0000
  C   C1        1.0  0.37101  0.60972  0.01660  1.0000
  C   C2        1.0  0.87101  0.39028  0.98340  1.0000
  C   C3        1.0  0.35836  0.24848  0.08393  1.0000
  C   C4        1.0  0.85836  0.75152  0.91607  1.0000
  C   C5        1.0  0.47230  0.17778  0.11883  1.0000
  C   C6        1.0  0.97230  0.82223  0.88118  1.0000
  C   C7        1.0  0.35163  0.44070  0.98255  1.0000
  C   C8        1.0  0.85163  0.55930  0.01745  1.0000
  C   C9        1.0  0.30753  0.01022  0.02332  1.0000
  C   C10       1.0  0.80753  0.98979  0.97668  1.0000
  C   C11       1.0  0.44603  0.29617  0.77597  1.0000
  C   C12       1.0  0.94603  0.70383  0.22403  1.0000
  C   C13       1.0  0.34672  0.41009  0.10406  1.0000
  C   C14       1.0  0.84673  0.58992  0.89594  1.0000
  C   C15       1.0  0.57829  0.21183  0.69973  1.0000
  C   C16       1.0  0.07829  0.78816  0.30027  1.0000
  C   C17       1.0  0.61521  0.06103  0.47908  1.0000
  C   C18       1.0  0.11520  0.93897  0.52092  1.0000
  C   C19       1.0  0.53574  0.97910  0.35560  1.0000
  C   C20       1.0  0.03574  0.02090  0.64440  1.0000
  N   N1        1.0  0.25413  0.14014  0.02265  1.0000
  N   N2        1.0  0.75413  0.85986  0.97735  1.0000
  N   N3        1.0  0.46618  0.35372  0.89931  1.0000
  N   N4        1.0  0.96618  0.64628  0.10069  1.0000
  N   N5        1.0  0.43950  0.02710  0.08012  1.0000
  N   N6        1.0  0.93950  0.97290  0.91988  1.0000
  N   N7        1.0  0.64243  0.91339  0.25445  1.0000
  N   N8        1.0  0.14243  0.08661  0.74555  1.0000
  N   N9        1.0  0.52724  0.11179  0.57899  1.0000
  N   N10       1.0  0.02724  0.88821  0.42101  1.0000
  O   O1        1.0  0.50571  0.65233  0.01478  1.0000
  O   O2        1.0  0.00571  0.34767  0.98522  1.0000
  O   O3        1.0  0.26062  0.69403  0.04715  1.0000
  O   O4        1.0  0.76062  0.30597  0.95285  1.0000
  O   O5        1.0  0.32800  0.30619  0.72328  1.0000
  O   O6        1.0  0.82800  0.69381  0.27672  1.0000
  O   O7        1.0  0.75158  0.08297  0.48251  1.0000
  O   O8        1.0  0.25156  0.91701  0.51749  1.0000
