data_image0
_chemical_formula_structural       Zn2H34C30N10O12
_chemical_formula_sum              "Zn2 H34 C30 N10 O12"
_cell_length_a       8.98289
_cell_length_b       9.59549
_cell_length_c       11.7491
_cell_angle_alpha    113.56
_cell_angle_beta     89.9999
_cell_angle_gamma    90

_space_group_name_H-M_alt    "P 1"
_space_group_IT_number       1

loop_
  _space_group_symop_operation_xyz
  'x, y, z'

loop_
  _atom_site_type_symbol
  _atom_site_label
  _atom_site_symmetry_multiplicity
  _atom_site_fract_x
  _atom_site_fract_y
  _atom_site_fract_z
  _atom_site_occupancy
  Zn  Zn1       1.0  0.65764  0.20777  0.07499  1.0000
  Zn  Zn2       1.0  0.15764  0.79223  0.92501  1.0000
  H   H1        1.0  0.51744  0.41662  0.25908  1.0000
  H   H2        1.0  0.01744  0.58338  0.74092  1.0000
  H   H3        1.0  0.49569  0.24762  0.26386  1.0000
  H   H4        1.0  0.99569  0.75238  0.73614  1.0000
  H   H5        1.0  0.65925  0.59889  0.93699  1.0000
  H   H6        1.0  0.15925  0.40111  0.06301  1.0000
  H   H7        1.0  0.80547  0.49627  0.56259  1.0000
  H   H8        1.0  0.30547  0.50373  0.43740  1.0000
  H   H9        1.0  0.65472  0.93730  0.16994  1.0000
  H   H10       1.0  0.15472  0.06270  0.83006  1.0000
  H   H11       1.0  0.79022  0.68552  0.16603  1.0000
  H   H12       1.0  0.29022  0.31448  0.83397  1.0000
  H   H13       1.0  0.98751  0.68245  0.15414  1.0000
  H   H14       1.0  0.48750  0.31755  0.84586  1.0000
  H   H15       1.0  0.98584  0.53139  0.93607  1.0000
  H   H16       1.0  0.48583  0.46861  0.06392  1.0000
  H   H17       1.0  0.98899  0.09180  0.99792  1.0000
  H   H18       1.0  0.48899  0.90820  0.00208  1.0000
  H   H19       1.0  0.55667  0.43929  0.70281  1.0000
  H   H20       1.0  0.05667  0.56072  0.29719  1.0000
  H   H21       1.0  0.60612  0.63182  0.74955  1.0000
  H   H22       1.0  0.10612  0.36819  0.25045  1.0000
  H   H23       1.0  0.75890  0.44677  0.35055  1.0000
  H   H24       1.0  0.25890  0.55323  0.64945  1.0000
  H   H25       1.0  0.74861  0.25955  0.34227  1.0000
  H   H26       1.0  0.24861  0.74045  0.65773  1.0000
  H   H27       1.0  0.93489  0.88560  0.46506  1.0000
  H   H28       1.0  0.43490  0.11441  0.53494  1.0000
  H   H29       1.0  0.95422  0.20100  0.55451  1.0000
  H   H30       1.0  0.45422  0.79901  0.44549  1.0000
  H   H31       1.0  0.34791  0.82727  0.22127  1.0000
  H   H32       1.0  0.84791  0.17273  0.77874  1.0000
  H   H33       1.0  0.19659  0.25096  0.43447  1.0000
  H   H34       1.0  0.69660  0.74904  0.56553  1.0000
  C   C1        1.0  0.85835  0.40683  0.01747  1.0000
  C   C2        1.0  0.35835  0.59317  0.98253  1.0000
  C   C3        1.0  0.87449  0.83454  0.09001  1.0000
  C   C4        1.0  0.37449  0.16546  0.90999  1.0000
  C   C5        1.0  0.75926  0.93821  0.12374  1.0000
  C   C6        1.0  0.25926  0.06179  0.87626  1.0000
  C   C7        1.0  0.88388  0.68875  0.10663  1.0000
  C   C8        1.0  0.38388  0.31124  0.89337  1.0000
  C   C9        1.0  0.60459  0.41538  0.48036  1.0000
  C   C10       1.0  0.10458  0.58461  0.51964  1.0000
  C   C11       1.0  0.77934  0.49191  0.77841  1.0000
  C   C12       1.0  0.27934  0.50809  0.22159  1.0000
  C   C13       1.0  0.87880  0.54450  0.98388  1.0000
  C   C14       1.0  0.37880  0.45549  0.01612  1.0000
  C   C15       1.0  0.93046  0.02026  0.03481  1.0000
  C   C16       1.0  0.43046  0.97974  0.96519  1.0000
  C   C17       1.0  0.64916  0.51496  0.70411  1.0000
  C   C18       1.0  0.14916  0.48504  0.29589  1.0000
  C   C19       1.0  0.68096  0.36003  0.35364  1.0000
  C   C20       1.0  0.18096  0.63997  0.64636  1.0000
  C   C21       1.0  0.01107  0.95992  0.44410  1.0000
  C   C22       1.0  0.51108  0.04008  0.55590  1.0000
  C   C23       1.0  0.02403  0.11560  0.48607  1.0000
  C   C24       1.0  0.52403  0.88441  0.51393  1.0000
  C   C25       1.0  0.20598  0.00174  0.34825  1.0000
  C   C26       1.0  0.70598  0.99826  0.65175  1.0000
  C   C27       1.0  0.33243  0.95241  0.26680  1.0000
  C   C28       1.0  0.83243  0.04759  0.73320  1.0000
  C   C29       1.0  0.14958  0.14241  0.42442  1.0000
  C   C30       1.0  0.64958  0.85759  0.57558  1.0000
  N   N1        1.0  0.98279  0.88792  0.03297  1.0000
  N   N2        1.0  0.48279  0.11208  0.96703  1.0000
  N   N3        1.0  0.57351  0.31949  0.25181  1.0000
  N   N4        1.0  0.07351  0.68051  0.74819  1.0000
  N   N5        1.0  0.76305  0.55506  0.90172  1.0000
  N   N6        1.0  0.26305  0.44494  0.09828  1.0000
  N   N7        1.0  0.79558  0.05525  0.08816  1.0000
  N   N8        1.0  0.29558  0.94475  0.91184  1.0000
  N   N9        1.0  0.69608  0.47858  0.57786  1.0000
  N   N10       1.0  0.19608  0.52142  0.42214  1.0000
  O   O1        1.0  0.72219  0.36520  0.01836  1.0000
  O   O2        1.0  0.22219  0.63480  0.98164  1.0000
  O   O3        1.0  0.96941  0.34838  0.04569  1.0000
  O   O4        1.0  0.46941  0.65162  0.95431  1.0000
  O   O5        1.0  0.46808  0.39790  0.49073  1.0000
  O   O6        1.0  0.96808  0.60210  0.50927  1.0000
  O   O7        1.0  0.89448  0.42230  0.72423  1.0000
  O   O8        1.0  0.39447  0.57770  0.27577  1.0000
  O   O9        1.0  0.42116  0.04026  0.24861  1.0000
  O   O10       1.0  0.92116  0.95974  0.75139  1.0000
  O   O11       1.0  0.11984  0.88876  0.36091  1.0000
  O   O12       1.0  0.61985  0.11124  0.63910  1.0000
