data_image0
_chemical_formula_structural       Zn2H38C30N10O12
_chemical_formula_sum              "Zn2 H38 C30 N10 O12"
_cell_length_a       8.68953
_cell_length_b       9.58603
_cell_length_c       11.8998
_cell_angle_alpha    110.853
_cell_angle_beta     90
_cell_angle_gamma    89.9999

_space_group_name_H-M_alt    "P 1"
_space_group_IT_number       1

loop_
  _space_group_symop_operation_xyz
  'x, y, z'

loop_
  _atom_site_type_symbol
  _atom_site_label
  _atom_site_symmetry_multiplicity
  _atom_site_fract_x
  _atom_site_fract_y
  _atom_site_fract_z
  _atom_site_occupancy
  Zn  Zn1       1.0  0.62117  0.21405  0.08237  1.0000
  Zn  Zn2       1.0  0.12117  0.78595  0.91763  1.0000
  H   H1        1.0  0.64117  0.57892  0.91318  1.0000
  H   H2        1.0  0.14117  0.42108  0.08682  1.0000
  H   H3        1.0  0.61226  0.45956  0.27309  1.0000
  H   H4        1.0  0.11226  0.54044  0.72691  1.0000
  H   H5        1.0  0.47755  0.34638  0.28285  1.0000
  H   H6        1.0  0.97755  0.65362  0.71715  1.0000
  H   H7        1.0  0.81240  0.37570  0.55549  1.0000
  H   H8        1.0  0.31240  0.62431  0.44451  1.0000
  H   H9        1.0  0.61239  0.91995  0.16960  1.0000
  H   H10       1.0  0.11239  0.08005  0.83040  1.0000
  H   H11       1.0  0.97705  0.52936  0.94126  1.0000
  H   H12       1.0  0.47705  0.47064  0.05874  1.0000
  H   H13       1.0  0.93268  0.07441  0.97514  1.0000
  H   H14       1.0  0.43268  0.92559  0.02486  1.0000
  H   H15       1.0  0.54669  0.38537  0.70072  1.0000
  H   H16       1.0  0.04669  0.61463  0.29928  1.0000
  H   H17       1.0  0.59401  0.56771  0.70884  1.0000
  H   H18       1.0  0.09401  0.43229  0.29116  1.0000
  H   H19       1.0  0.74133  0.65713  0.14325  1.0000
  H   H20       1.0  0.24134  0.34287  0.85675  1.0000
  H   H21       1.0  0.94384  0.67445  0.14939  1.0000
  H   H22       1.0  0.44384  0.32555  0.85061  1.0000
  H   H23       1.0  0.79992  0.35158  0.34889  1.0000
  H   H24       1.0  0.29992  0.64842  0.65111  1.0000
  H   H25       1.0  0.68946  0.18704  0.32032  1.0000
  H   H26       1.0  0.18946  0.81296  0.67968  1.0000
  H   H27       1.0  0.82686  0.63411  0.42745  1.0000
  H   H28       1.0  0.32686  0.36589  0.57255  1.0000
  H   H29       1.0  0.59365  0.78316  0.34311  1.0000
  H   H30       1.0  0.09365  0.21684  0.65689  1.0000
  H   H31       1.0  0.78804  0.84848  0.36085  1.0000
  H   H32       1.0  0.28804  0.15152  0.63915  1.0000
  H   H33       1.0  0.47542  0.91698  0.76044  1.0000
  H   H34       1.0  0.97542  0.08302  0.23957  1.0000
  H   H35       1.0  0.83705  0.06828  0.57774  1.0000
  H   H36       1.0  0.33705  0.93172  0.42226  1.0000
  H   H37       1.0  0.69210  0.13914  0.79642  1.0000
  H   H38       1.0  0.19210  0.86086  0.20358  1.0000
  C   C1        1.0  0.71262  0.92130  0.11544  1.0000
  C   C2        1.0  0.21262  0.07870  0.88456  1.0000
  C   C3        1.0  0.86061  0.53207  0.97756  1.0000
  C   C4        1.0  0.36061  0.46793  0.02244  1.0000
  C   C5        1.0  0.84153  0.39523  0.01504  1.0000
  C   C6        1.0  0.34153  0.60477  0.98497  1.0000
  C   C7        1.0  0.82564  0.81437  0.07211  1.0000
  C   C8        1.0  0.32564  0.18563  0.92789  1.0000
  C   C9        1.0  0.60583  0.37180  0.46954  1.0000
  C   C10       1.0  0.10583  0.62820  0.53046  1.0000
  C   C11       1.0  0.77437  0.45488  0.77070  1.0000
  C   C12       1.0  0.27437  0.54512  0.22930  1.0000
  C   C13       1.0  0.87528  0.00129  0.01350  1.0000
  C   C14       1.0  0.37528  0.99871  0.98650  1.0000
  C   C15       1.0  0.64105  0.45444  0.68702  1.0000
  C   C16       1.0  0.14105  0.54556  0.31298  1.0000
  C   C17       1.0  0.84270  0.67099  0.09292  1.0000
  C   C18       1.0  0.34270  0.32901  0.90708  1.0000
  C   C19       1.0  0.68230  0.30916  0.34650  1.0000
  C   C20       1.0  0.18230  0.69084  0.65350  1.0000
  C   C21       1.0  0.70008  0.79008  0.39485  1.0000
  C   C22       1.0  0.20008  0.20992  0.60515  1.0000
  C   C23       1.0  0.67542  0.88042  0.52391  1.0000
  C   C24       1.0  0.17542  0.11958  0.47609  1.0000
  C   C25       1.0  0.55866  0.93791  0.70044  1.0000
  C   C26       1.0  0.05866  0.06209  0.29956  1.0000
  C   C27       1.0  0.74385  0.00755  0.60046  1.0000
  C   C28       1.0  0.24385  0.99245  0.39954  1.0000
  C   C29       1.0  0.66806  0.04515  0.71453  1.0000
  C   C30       1.0  0.16806  0.95485  0.28547  1.0000
  N   N1        1.0  0.75007  0.53420  0.88716  1.0000
  N   N2        1.0  0.25007  0.46580  0.11284  1.0000
  N   N3        1.0  0.74533  0.03942  0.07843  1.0000
  N   N4        1.0  0.24533  0.96058  0.92157  1.0000
  N   N5        1.0  0.92806  0.86648  0.00686  1.0000
  N   N6        1.0  0.42806  0.13352  0.99314  1.0000
  N   N7        1.0  0.59060  0.34833  0.25791  1.0000
  N   N8        1.0  0.09060  0.65168  0.74209  1.0000
  N   N9        1.0  0.69659  0.39538  0.56471  1.0000
  N   N10       1.0  0.19659  0.60462  0.43529  1.0000
  O   O1        1.0  0.70659  0.33530  0.99468  1.0000
  O   O2        1.0  0.20659  0.66470  0.00532  1.0000
  O   O3        1.0  0.89595  0.38599  0.72951  1.0000
  O   O4        1.0  0.39595  0.61401  0.27049  1.0000
  O   O5        1.0  0.94919  0.35547  0.06674  1.0000
  O   O6        1.0  0.44919  0.64453  0.93326  1.0000
  O   O7        1.0  0.46333  0.39492  0.47627  1.0000
  O   O8        1.0  0.96333  0.60508  0.52373  1.0000
  O   O9        1.0  0.74323  0.63776  0.37165  1.0000
  O   O10       1.0  0.24323  0.36224  0.62835  1.0000
  O   O11       1.0  0.56021  0.83652  0.58454  1.0000
  O   O12       1.0  0.06021  0.16348  0.41546  1.0000
