data_image0
_chemical_formula_structural       Zn2H26C20N10O8
_chemical_formula_sum              "Zn2 H26 C20 N10 O8"
_cell_length_a       9.06119
_cell_length_b       9.58715
_cell_length_c       10.4805
_cell_angle_alpha    105.211
_cell_angle_beta     90
_cell_angle_gamma    89.9999

_space_group_name_H-M_alt    "P 1"
_space_group_IT_number       1

loop_
  _space_group_symop_operation_xyz
  'x, y, z'

loop_
  _atom_site_type_symbol
  _atom_site_label
  _atom_site_symmetry_multiplicity
  _atom_site_fract_x
  _atom_site_fract_y
  _atom_site_fract_z
  _atom_site_occupancy
  Zn  Zn1       1.0  0.47870  0.84579  0.08426  1.0000
  Zn  Zn2       1.0  0.97870  0.15421  0.91574  1.0000
  H   H1        1.0  0.50432  0.34819  0.95172  1.0000
  H   H2        1.0  0.00432  0.65181  0.04828  1.0000
  H   H3        1.0  0.33646  0.44301  0.16781  1.0000
  H   H4        1.0  0.83646  0.55699  0.83219  1.0000
  H   H5        1.0  0.14390  0.43175  0.13136  1.0000
  H   H6        1.0  0.64390  0.56826  0.86865  1.0000
  H   H7        1.0  0.16545  0.89579  0.96611  1.0000
  H   H8        1.0  0.66545  0.10422  0.03389  1.0000
  H   H9        1.0  0.43231  0.80598  0.31895  1.0000
  H   H10       1.0  0.93232  0.19401  0.68104  1.0000
  H   H11       1.0  0.61168  0.79376  0.28709  1.0000
  H   H12       1.0  0.11168  0.20624  0.71291  1.0000
  H   H13       1.0  0.65844  0.14846  0.57152  1.0000
  H   H14       1.0  0.15844  0.85154  0.42848  1.0000
  H   H15       1.0  0.62785  0.18694  0.80063  1.0000
  H   H16       1.0  0.12785  0.81305  0.19937  1.0000
  H   H17       1.0  0.49111  0.05028  0.77027  1.0000
  H   H18       1.0  0.99113  0.94971  0.22973  1.0000
  H   H19       1.0  0.46524  0.07586  0.33768  1.0000
  H   H20       1.0  0.96526  0.92413  0.66232  1.0000
  H   H21       1.0  0.65303  0.03225  0.36312  1.0000
  H   H22       1.0  0.15304  0.96775  0.63688  1.0000
  H   H23       1.0  0.47171  0.19723  0.18133  1.0000
  H   H24       1.0  0.97171  0.80277  0.81868  1.0000
  H   H25       1.0  0.18617  0.39396  0.89702  1.0000
  H   H26       1.0  0.68617  0.60604  0.10298  1.0000
  C   C1        1.0  0.25296  0.38870  0.09556  1.0000
  C   C2        1.0  0.75296  0.61130  0.90444  1.0000
  C   C3        1.0  0.29860  0.59022  0.98891  1.0000
  C   C4        1.0  0.79859  0.40978  0.01109  1.0000
  C   C5        1.0  0.21780  0.99856  0.01148  1.0000
  C   C6        1.0  0.71780  0.00144  0.98852  1.0000
  C   C7        1.0  0.52956  0.14664  0.74130  1.0000
  C   C8        1.0  0.02957  0.85336  0.25870  1.0000
  C   C9        1.0  0.53784  0.99858  0.36857  1.0000
  C   C10       1.0  0.03784  0.00142  0.63143  1.0000
  C   C11       1.0  0.37388  0.15498  0.12456  1.0000
  C   C12       1.0  0.87388  0.84502  0.87544  1.0000
  C   C13       1.0  0.26297  0.23023  0.08171  1.0000
  C   C14       1.0  0.76297  0.76977  0.91829  1.0000
  C   C15       1.0  0.49292  0.00503  0.51009  1.0000
  C   C16       1.0  0.99293  0.99496  0.48991  1.0000
  C   C17       1.0  0.40262  0.25620  0.77470  1.0000
  C   C18       1.0  0.90262  0.74381  0.22530  1.0000
  C   C19       1.0  0.28200  0.42604  0.96168  1.0000
  C   C20       1.0  0.78200  0.57397  0.03832  1.0000
  N   N1        1.0  0.40923  0.34644  0.89684  1.0000
  N   N2        1.0  0.90923  0.65356  0.10316  1.0000
  N   N3        1.0  0.16453  0.12923  0.00934  1.0000
  N   N4        1.0  0.66453  0.87078  0.99066  1.0000
  N   N5        1.0  0.34458  0.00838  0.08017  1.0000
  N   N6        1.0  0.84458  0.99162  0.91983  1.0000
  N   N7        1.0  0.51721  0.85287  0.28020  1.0000
  N   N8        1.0  0.01722  0.14712  0.71980  1.0000
  N   N9        1.0  0.56692  0.10524  0.60250  1.0000
  N   N10       1.0  0.06693  0.89475  0.39751  1.0000
  O   O1        1.0  0.43028  0.63842  0.01853  1.0000
  O   O2        1.0  0.93028  0.36158  0.98147  1.0000
  O   O3        1.0  0.18692  0.66685  0.98720  1.0000
  O   O4        1.0  0.68692  0.33315  0.01280  1.0000
  O   O5        1.0  0.39263  0.92636  0.53327  1.0000
  O   O6        1.0  0.89262  0.07363  0.46673  1.0000
  O   O7        1.0  0.29945  0.25191  0.69495  1.0000
  O   O8        1.0  0.79946  0.74810  0.30505  1.0000
