data_image0
_chemical_formula_structural       Zn4H52C40N20O16
_chemical_formula_sum              "Zn4 H52 C40 N20 O16"
_cell_length_a       7.18515
_cell_length_b       9.13761
_cell_length_c       19.0252
_cell_angle_alpha    90
_cell_angle_beta     90.8961
_cell_angle_gamma    90

_space_group_name_H-M_alt    "P 1"
_space_group_IT_number       1

loop_
  _space_group_symop_operation_xyz
  'x, y, z'

loop_
  _atom_site_type_symbol
  _atom_site_label
  _atom_site_symmetry_multiplicity
  _atom_site_fract_x
  _atom_site_fract_y
  _atom_site_fract_z
  _atom_site_occupancy
  Zn  Zn1       1.0  0.66176  0.29704  0.83950  1.0000
  Zn  Zn2       1.0  0.33824  0.79704  0.16050  1.0000
  Zn  Zn3       1.0  0.39908  0.79253  0.66535  1.0000
  Zn  Zn4       1.0  0.60091  0.29253  0.33465  1.0000
  H   H1        1.0  0.78172  0.30570  0.67563  1.0000
  H   H2        1.0  0.21828  0.80570  0.32437  1.0000
  H   H3        1.0  0.49019  0.60685  0.79959  1.0000
  H   H4        1.0  0.50981  0.10685  0.20041  1.0000
  H   H5        1.0  0.74372  0.43834  0.54993  1.0000
  H   H6        1.0  0.25628  0.93834  0.45007  1.0000
  H   H7        1.0  0.68275  0.62696  0.54952  1.0000
  H   H8        1.0  0.31725  0.12696  0.45048  1.0000
  H   H9        1.0  0.35245  0.57501  0.54054  1.0000
  H   H10       1.0  0.64755  0.07501  0.45946  1.0000
  H   H11       1.0  0.23539  0.39898  0.73172  1.0000
  H   H12       1.0  0.76461  0.89898  0.26828  1.0000
  H   H13       1.0  0.92117  0.35987  0.93163  1.0000
  H   H14       1.0  0.07882  0.85987  0.06837  1.0000
  H   H15       1.0  0.93920  0.18599  0.90988  1.0000
  H   H16       1.0  0.06080  0.68599  0.09012  1.0000
  H   H17       1.0  0.21275  0.30165  0.86917  1.0000
  H   H18       1.0  0.78725  0.80164  0.13083  1.0000
  H   H19       1.0  0.07602  0.44727  0.83384  1.0000
  H   H20       1.0  0.92398  0.94727  0.16616  1.0000
  H   H21       1.0  0.44945  0.26266  0.57027  1.0000
  H   H22       1.0  0.55055  0.76266  0.42973  1.0000
  H   H23       1.0  0.03778  0.19006  0.64091  1.0000
  H   H24       1.0  0.96223  0.69006  0.35909  1.0000
  H   H25       1.0  0.28191  0.15428  0.64877  1.0000
  H   H26       1.0  0.71810  0.65428  0.35123  1.0000
  H   H27       1.0  0.60053  0.10170  0.70479  1.0000
  H   H28       1.0  0.39947  0.60170  0.29521  1.0000
  H   H29       1.0  0.29354  0.95004  0.94693  1.0000
  H   H30       1.0  0.70646  0.45004  0.05307  1.0000
  H   H31       1.0  0.34737  0.13824  0.94529  1.0000
  H   H32       1.0  0.65263  0.63823  0.05471  1.0000
  H   H33       1.0  0.66825  0.10105  0.97687  1.0000
  H   H34       1.0  0.33175  0.60106  0.02313  1.0000
  H   H35       1.0  0.29967  0.80235  0.82646  1.0000
  H   H36       1.0  0.70033  0.30234  0.17354  1.0000
  H   H37       1.0  0.09622  0.81195  0.59284  1.0000
  H   H38       1.0  0.90377  0.31195  0.40716  1.0000
  H   H39       1.0  0.09741  0.65434  0.63394  1.0000
  H   H40       1.0  0.90259  0.15434  0.36606  1.0000
  H   H41       1.0  0.83453  0.80051  0.67048  1.0000
  H   H42       1.0  0.16547  0.30051  0.32952  1.0000
  H   H43       1.0  0.99099  0.94320  0.69475  1.0000
  H   H44       1.0  0.00900  0.44319  0.30525  1.0000
  H   H45       1.0  0.89415  0.93664  0.80697  1.0000
  H   H46       1.0  0.10585  0.43664  0.19303  1.0000
  H   H47       1.0  0.60908  0.78594  0.94003  1.0000
  H   H48       1.0  0.39091  0.28594  0.05997  1.0000
  H   H49       1.0  0.07304  0.74243  0.90262  1.0000
  H   H50       1.0  0.92696  0.24243  0.09738  1.0000
  H   H51       1.0  0.84197  0.67315  0.89013  1.0000
  H   H52       1.0  0.15803  0.17315  0.10987  1.0000
  C   C1        1.0  0.69922  0.40055  0.68890  1.0000
  C   C2        1.0  0.30078  0.90055  0.31111  1.0000
  C   C3        1.0  0.63016  0.50907  0.64543  1.0000
  C   C4        1.0  0.36984  0.00907  0.35457  1.0000
  C   C5        1.0  0.54665  0.55426  0.75351  1.0000
  C   C6        1.0  0.45335  0.05425  0.24649  1.0000
  C   C7        1.0  0.47395  0.46861  0.45250  1.0000
  C   C8        1.0  0.52605  0.96862  0.54750  1.0000
  C   C9        1.0  0.63951  0.51797  0.56738  1.0000
  C   C10       1.0  0.36049  0.01797  0.43262  1.0000
  C   C11       1.0  0.44783  0.48361  0.53174  1.0000
  C   C12       1.0  0.55216  0.98361  0.46826  1.0000
  C   C13       1.0  0.07796  0.32886  0.84405  1.0000
  C   C14       1.0  0.92204  0.82886  0.15595  1.0000
  C   C15       1.0  0.06330  0.24804  0.77437  1.0000
  C   C16       1.0  0.93670  0.74804  0.22563  1.0000
  C   C17       1.0  0.17443  0.23952  0.65253  1.0000
  C   C18       1.0  0.82558  0.73952  0.34747  1.0000
  C   C19       1.0  0.20979  0.36452  0.60112  1.0000
  C   C20       1.0  0.79022  0.86452  0.39888  1.0000
  C   C21       1.0  0.53523  0.05227  0.74988  1.0000
  C   C22       1.0  0.46477  0.55226  0.25012  1.0000
  C   C23       1.0  0.43524  0.01261  0.85624  1.0000
  C   C24       1.0  0.56476  0.51261  0.14376  1.0000
  C   C25       1.0  0.40135  0.02929  0.93267  1.0000
  C   C26       1.0  0.59865  0.52929  0.06733  1.0000
  C   C27       1.0  0.57736  0.00492  0.97951  1.0000
  C   C28       1.0  0.42263  0.50492  0.02049  1.0000
  C   C29       1.0  0.50854  0.99050  0.05473  1.0000
  C   C30       1.0  0.49146  0.49050  0.94527  1.0000
  C   C31       1.0  0.37702  0.89992  0.81326  1.0000
  C   C32       1.0  0.62299  0.39992  0.18674  1.0000
  C   C33       1.0  0.97704  0.82395  0.68973  1.0000
  C   C34       1.0  0.02296  0.32395  0.31027  1.0000
  C   C35       1.0  0.99874  0.75284  0.76165  1.0000
  C   C36       1.0  0.00126  0.25284  0.23835  1.0000
  C   C37       1.0  0.85864  0.89245  0.93476  1.0000
  C   C38       1.0  0.14136  0.39245  0.06524  1.0000
  C   C39       1.0  0.92952  0.77156  0.88692  1.0000
  C   C40       1.0  0.07048  0.27157  0.11308  1.0000
  N   N1        1.0  0.64684  0.42968  0.75701  1.0000
  N   N2        1.0  0.35316  0.92968  0.24299  1.0000
  N   N3        1.0  0.53183  0.60585  0.68718  1.0000
  N   N4        1.0  0.46817  0.10585  0.31282  1.0000
  N   N5        1.0  0.17064  0.30129  0.72309  1.0000
  N   N6        1.0  0.82937  0.80129  0.27691  1.0000
  N   N7        1.0  0.92053  0.29011  0.88947  1.0000
  N   N8        1.0  0.07947  0.79011  0.11053  1.0000
  N   N9        1.0  0.36773  0.35498  0.56432  1.0000
  N   N10       1.0  0.63227  0.85498  0.43568  1.0000
  N   N11       1.0  0.53777  0.10832  0.81546  1.0000
  N   N12       1.0  0.46223  0.60832  0.18454  1.0000
  N   N13       1.0  0.43855  0.92616  0.74598  1.0000
  N   N14       1.0  0.56145  0.42616  0.25402  1.0000
  N   N15       1.0  0.11723  0.76573  0.64129  1.0000
  N   N16       1.0  0.88277  0.26573  0.35871  1.0000
  N   N17       1.0  0.92392  0.82836  0.81513  1.0000
  N   N18       1.0  0.07608  0.32836  0.18487  1.0000
  N   N19       1.0  0.68074  0.88013  0.95395  1.0000
  N   N20       1.0  0.31925  0.38013  0.04605  1.0000
  O   O1        1.0  0.52145  0.33988  0.43169  1.0000
  O   O2        1.0  0.47854  0.83988  0.56831  1.0000
  O   O3        1.0  0.45581  0.57931  0.41405  1.0000
  O   O4        1.0  0.54419  0.07931  0.58595  1.0000
  O   O5        1.0  0.95812  0.14027  0.76612  1.0000
  O   O6        1.0  0.04188  0.64027  0.23388  1.0000
  O   O7        1.0  0.09943  0.46990  0.59733  1.0000
  O   O8        1.0  0.90057  0.96990  0.40268  1.0000
  O   O9        1.0  0.48922  0.85885  0.07733  1.0000
  O   O10       1.0  0.51077  0.35885  0.92267  1.0000
  O   O11       1.0  0.07829  0.63271  0.76931  1.0000
  O   O12       1.0  0.92171  0.13271  0.23069  1.0000
  O   O13       1.0  0.96087  0.99929  0.95067  1.0000
  O   O14       1.0  0.03913  0.49929  0.04933  1.0000
  O   O15       1.0  0.46499  0.10498  0.08696  1.0000
  O   O16       1.0  0.53501  0.60498  0.91304  1.0000
