data_image0
_chemical_formula_structural       V4H16C8O24
_chemical_formula_sum              "V4 H16 C8 O24"
_cell_length_a       7.06256
_cell_length_b       8.12902
_cell_length_c       8.8902
_cell_angle_alpha    90.0004
_cell_angle_beta     90.001
_cell_angle_gamma    90.0008

_space_group_name_H-M_alt    "P 1"
_space_group_IT_number       1

loop_
  _space_group_symop_operation_xyz
  'x, y, z'

loop_
  _atom_site_type_symbol
  _atom_site_label
  _atom_site_symmetry_multiplicity
  _atom_site_fract_x
  _atom_site_fract_y
  _atom_site_fract_z
  _atom_site_occupancy
  V   V1        1.0  0.77506  1.00000  0.75000  1.0000
  V   V2        1.0  0.22498  0.50000  0.75000  1.0000
  V   V3        1.0  0.22496  1.00000  0.25001  1.0000
  V   V4        1.0  0.77505  0.50000  0.25000  1.0000
  H   H1        1.0  0.83560  0.15273  0.43566  1.0000
  H   H2        1.0  0.16439  0.34729  0.43567  1.0000
  H   H3        1.0  0.16439  0.65270  0.06431  1.0000
  H   H4        1.0  0.83560  0.84727  0.06434  1.0000
  H   H5        1.0  0.16438  0.84725  0.56432  1.0000
  H   H6        1.0  0.83560  0.65271  0.56432  1.0000
  H   H7        1.0  0.83558  0.34729  0.93568  1.0000
  H   H8        1.0  0.16437  0.15273  0.93568  1.0000
  H   H9        1.0  0.38529  0.91159  0.79132  1.0000
  H   H10       1.0  0.61474  0.58841  0.79133  1.0000
  H   H11       1.0  0.61475  0.41160  0.70868  1.0000
  H   H12       1.0  0.38529  0.08841  0.70869  1.0000
  H   H13       1.0  0.61474  0.08841  0.20868  1.0000
  H   H14       1.0  0.38524  0.41159  0.20868  1.0000
  H   H15       1.0  0.38524  0.58842  0.29132  1.0000
  H   H16       1.0  0.61473  0.91159  0.29133  1.0000
  C   C1        1.0  0.76858  0.24880  0.50538  1.0000
  C   C2        1.0  0.23140  0.25121  0.50539  1.0000
  C   C3        1.0  0.23141  0.74880  0.99461  1.0000
  C   C4        1.0  0.76858  0.75121  0.99462  1.0000
  C   C5        1.0  0.23140  0.75118  0.49461  1.0000
  C   C6        1.0  0.76857  0.74883  0.49462  1.0000
  C   C7        1.0  0.76859  0.25119  0.00537  1.0000
  C   C8        1.0  0.23140  0.24881  0.00538  1.0000
  O   O1        1.0  0.00313  1.00000  0.75001  1.0000
  O   O2        1.0  0.99695  0.50000  0.75000  1.0000
  O   O3        1.0  0.99692  0.00000  0.25000  1.0000
  O   O4        1.0  0.00309  0.49999  0.25000  1.0000
  O   O5        1.0  0.46527  0.00000  0.75000  1.0000
  O   O6        1.0  0.53476  0.50000  0.75000  1.0000
  O   O7        1.0  0.53475  1.00000  0.25000  1.0000
  O   O8        1.0  0.46523  0.50001  0.24999  1.0000
  O   O9        1.0  0.72576  0.21642  0.64212  1.0000
  O   O10       1.0  0.27427  0.28357  0.64215  1.0000
  O   O11       1.0  0.27428  0.71645  0.85785  1.0000
  O   O12       1.0  0.72574  0.78358  0.85788  1.0000
  O   O13       1.0  0.27428  0.78357  0.35788  1.0000
  O   O14       1.0  0.72570  0.71645  0.35788  1.0000
  O   O15       1.0  0.72571  0.28356  0.14212  1.0000
  O   O16       1.0  0.27428  0.21642  0.14211  1.0000
  O   O17       1.0  0.73427  0.11086  0.95115  1.0000
  O   O18       1.0  0.26578  0.38919  0.95118  1.0000
  O   O19       1.0  0.26578  0.61080  0.54882  1.0000
  O   O20       1.0  0.73426  0.88913  0.54884  1.0000
  O   O21       1.0  0.26576  0.88912  0.04885  1.0000
  O   O22       1.0  0.73419  0.61083  0.04882  1.0000
  O   O23       1.0  0.73418  0.38915  0.45117  1.0000
  O   O24       1.0  0.26576  0.11087  0.45116  1.0000
