data_image0
_chemical_formula_structural       Cu4H48C80I4N8
_chemical_formula_sum              "Cu4 H48 C80 I4 N8"
_cell_length_a       10.9708
_cell_length_b       12.1718
_cell_length_c       13.2421
_cell_angle_alpha    90
_cell_angle_beta     106.414
_cell_angle_gamma    90

_space_group_name_H-M_alt    "P 1"
_space_group_IT_number       1

loop_
  _space_group_symop_operation_xyz
  'x, y, z'

loop_
  _atom_site_type_symbol
  _atom_site_label
  _atom_site_symmetry_multiplicity
  _atom_site_fract_x
  _atom_site_fract_y
  _atom_site_fract_z
  _atom_site_occupancy
  Cu  Cu1       1.0  0.87334  0.01653  0.99320  1.0000
  Cu  Cu2       1.0  0.62666  0.51653  0.50680  1.0000
  Cu  Cu3       1.0  0.12666  0.98348  0.00680  1.0000
  Cu  Cu4       1.0  0.37334  0.48347  0.49320  1.0000
  H   H1        1.0  0.94081  0.19373  0.15396  1.0000
  H   H2        1.0  0.55919  0.69373  0.34604  1.0000
  H   H3        1.0  0.05919  0.80627  0.84604  1.0000
  H   H4        1.0  0.44081  0.30627  0.65396  1.0000
  H   H5        1.0  0.84771  0.27843  0.28792  1.0000
  H   H6        1.0  0.65230  0.77844  0.21208  1.0000
  H   H7        1.0  0.15230  0.72156  0.71208  1.0000
  H   H8        1.0  0.34770  0.22156  0.78792  1.0000
  H   H9        1.0  0.64757  0.19776  0.31400  1.0000
  H   H10       1.0  0.85243  0.69777  0.18600  1.0000
  H   H11       1.0  0.35244  0.80223  0.68600  1.0000
  H   H12       1.0  0.14757  0.30223  0.81400  1.0000
  H   H13       1.0  0.55403  0.03105  0.20661  1.0000
  H   H14       1.0  0.94597  0.53106  0.29339  1.0000
  H   H15       1.0  0.44597  0.96895  0.79339  1.0000
  H   H16       1.0  0.05402  0.46895  0.70661  1.0000
  H   H17       1.0  0.67216  0.72940  0.87591  1.0000
  H   H18       1.0  0.82785  0.22940  0.62410  1.0000
  H   H19       1.0  0.32784  0.27060  0.12410  1.0000
  H   H20       1.0  0.17216  0.77060  0.37590  1.0000
  H   H21       1.0  0.56040  0.56278  0.78510  1.0000
  H   H22       1.0  0.93961  0.06278  0.71490  1.0000
  H   H23       1.0  0.43960  0.43722  0.21490  1.0000
  H   H24       1.0  0.06040  0.93722  0.28510  1.0000
  H   H25       1.0  0.37447  0.48812  0.83492  1.0000
  H   H26       1.0  0.12554  0.98812  0.66508  1.0000
  H   H27       1.0  0.62554  0.51188  0.16509  1.0000
  H   H28       1.0  0.87446  0.01188  0.33492  1.0000
  H   H29       1.0  0.29228  0.58372  0.96734  1.0000
  H   H30       1.0  0.20773  0.08372  0.53266  1.0000
  H   H31       1.0  0.70772  0.41628  0.03266  1.0000
  H   H32       1.0  0.79228  0.91628  0.46734  1.0000
  H   H33       1.0  0.43788  0.83181  0.33995  1.0000
  H   H34       1.0  0.06211  0.33182  0.16004  1.0000
  H   H35       1.0  0.56211  0.16818  0.66004  1.0000
  H   H36       1.0  0.93789  0.66819  0.83996  1.0000
  H   H37       1.0  0.40224  0.97961  0.45782  1.0000
  H   H38       1.0  0.09776  0.47962  0.04218  1.0000
  H   H39       1.0  0.59776  0.02038  0.54218  1.0000
  H   H40       1.0  0.90224  0.52038  0.95782  1.0000
  H   H41       1.0  0.27384  0.14660  0.37524  1.0000
  H   H42       1.0  0.22617  0.64660  0.12476  1.0000
  H   H43       1.0  0.72617  0.85340  0.62477  1.0000
  H   H44       1.0  0.77384  0.35340  0.87524  1.0000
  H   H45       1.0  0.16842  0.14436  0.18132  1.0000
  H   H46       1.0  0.33158  0.64436  0.31868  1.0000
  H   H47       1.0  0.83158  0.85564  0.81868  1.0000
  H   H48       1.0  0.66843  0.35564  0.68132  1.0000
  C   C1        1.0  0.85612  0.15967  0.16978  1.0000
  C   C2        1.0  0.64388  0.65967  0.33022  1.0000
  C   C3        1.0  0.14388  0.84033  0.83022  1.0000
  C   C4        1.0  0.35612  0.34033  0.66978  1.0000
  C   C5        1.0  0.80315  0.20688  0.24325  1.0000
  C   C6        1.0  0.69686  0.70689  0.25676  1.0000
  C   C7        1.0  0.19686  0.79311  0.75676  1.0000
  C   C8        1.0  0.30314  0.29311  0.74324  1.0000
  C   C9        1.0  0.69247  0.16143  0.25805  1.0000
  C   C10       1.0  0.80753  0.66143  0.24195  1.0000
  C   C11       1.0  0.30754  0.83857  0.74195  1.0000
  C   C12       1.0  0.19247  0.33857  0.75805  1.0000
  C   C13       1.0  0.64056  0.06962  0.19904  1.0000
  C   C14       1.0  0.85944  0.56962  0.30096  1.0000
  C   C15       1.0  0.35944  0.93038  0.80096  1.0000
  C   C16       1.0  0.14056  0.43038  0.69904  1.0000
  C   C17       1.0  0.69988  0.02563  0.12657  1.0000
  C   C18       1.0  0.80012  0.52563  0.37343  1.0000
  C   C19       1.0  0.30012  0.97437  0.87343  1.0000
  C   C20       1.0  0.19987  0.47437  0.62658  1.0000
  C   C21       1.0  0.64902  0.93192  0.06661  1.0000
  C   C22       1.0  0.85098  0.43192  0.43339  1.0000
  C   C23       1.0  0.35098  0.06808  0.93339  1.0000
  C   C24       1.0  0.14902  0.56808  0.56661  1.0000
  C   C25       1.0  0.60222  0.84889  0.02002  1.0000
  C   C26       1.0  0.89778  0.34889  0.47998  1.0000
  C   C27       1.0  0.39778  0.15110  0.97998  1.0000
  C   C28       1.0  0.10222  0.65110  0.52002  1.0000
  C   C29       1.0  0.54389  0.75223  0.97069  1.0000
  C   C30       1.0  0.95611  0.25223  0.52931  1.0000
  C   C31       1.0  0.45610  0.24777  0.02931  1.0000
  C   C32       1.0  0.04389  0.74777  0.47069  1.0000
  C   C33       1.0  0.58886  0.69693  0.89508  1.0000
  C   C34       1.0  0.91114  0.19693  0.60492  1.0000
  C   C35       1.0  0.41114  0.30307  0.10492  1.0000
  C   C36       1.0  0.08886  0.80306  0.39508  1.0000
  C   C37       1.0  0.52698  0.60340  0.84553  1.0000
  C   C38       1.0  0.97302  0.10340  0.65446  1.0000
  C   C39       1.0  0.47302  0.39660  0.15447  1.0000
  C   C40       1.0  0.02698  0.89660  0.34553  1.0000
  C   C41       1.0  0.42117  0.56240  0.87230  1.0000
  C   C42       1.0  0.07883  0.06240  0.62770  1.0000
  C   C43       1.0  0.57883  0.43760  0.12770  1.0000
  C   C44       1.0  0.92117  0.93760  0.37230  1.0000
  C   C45       1.0  0.37520  0.61555  0.94715  1.0000
  C   C46       1.0  0.12480  0.11555  0.55285  1.0000
  C   C47       1.0  0.62480  0.38445  0.05285  1.0000
  C   C48       1.0  0.87520  0.88445  0.44715  1.0000
  C   C49       1.0  0.43445  0.71123  0.99693  1.0000
  C   C50       1.0  0.06555  0.21123  0.50307  1.0000
  C   C51       1.0  0.56555  0.28877  0.00307  1.0000
  C   C52       1.0  0.93445  0.78877  0.49693  1.0000
  C   C53       1.0  0.38770  0.77162  0.06952  1.0000
  C   C54       1.0  0.11230  0.27162  0.43048  1.0000
  C   C55       1.0  0.61229  0.22838  0.93048  1.0000
  C   C56       1.0  0.88771  0.72838  0.56952  1.0000
  C   C57       1.0  0.35215  0.83339  0.12811  1.0000
  C   C58       1.0  0.14784  0.33339  0.37189  1.0000
  C   C59       1.0  0.64785  0.16661  0.87189  1.0000
  C   C60       1.0  0.85215  0.66661  0.62812  1.0000
  C   C61       1.0  0.32372  0.91114  0.19814  1.0000
  C   C62       1.0  0.17628  0.41114  0.30185  1.0000
  C   C63       1.0  0.67628  0.08886  0.80185  1.0000
  C   C64       1.0  0.82372  0.58886  0.69815  1.0000
  C   C65       1.0  0.38002  0.90300  0.30721  1.0000
  C   C66       1.0  0.11997  0.40301  0.19279  1.0000
  C   C67       1.0  0.61997  0.09700  0.69279  1.0000
  C   C68       1.0  0.88003  0.59700  0.80721  1.0000
  C   C69       1.0  0.36082  0.98628  0.37291  1.0000
  C   C70       1.0  0.13918  0.48629  0.12709  1.0000
  C   C71       1.0  0.63918  0.01371  0.62709  1.0000
  C   C72       1.0  0.86082  0.51372  0.87291  1.0000
  C   C73       1.0  0.28789  0.07710  0.32808  1.0000
  C   C74       1.0  0.21211  0.57710  0.17192  1.0000
  C   C75       1.0  0.71211  0.92290  0.67192  1.0000
  C   C76       1.0  0.78789  0.42290  0.82808  1.0000
  C   C77       1.0  0.23043  0.07732  0.21994  1.0000
  C   C78       1.0  0.26957  0.57733  0.28006  1.0000
  C   C79       1.0  0.76957  0.92268  0.78006  1.0000
  C   C80       1.0  0.73043  0.42268  0.71994  1.0000
  I   I1        1.0  0.97680  0.81850  0.03958  1.0000
  I   I2        1.0  0.52319  0.31849  0.46042  1.0000
  I   I3        1.0  0.02319  0.18151  0.96042  1.0000
  I   I4        1.0  0.47680  0.68150  0.53958  1.0000
  N   N1        1.0  0.80711  0.07121  0.11135  1.0000
  N   N2        1.0  0.69289  0.57121  0.38865  1.0000
  N   N3        1.0  0.19289  0.92879  0.88865  1.0000
  N   N4        1.0  0.30710  0.42879  0.61135  1.0000
  N   N5        1.0  0.24449  0.99606  0.15514  1.0000
  N   N6        1.0  0.25551  0.49606  0.34486  1.0000
  N   N7        1.0  0.75552  0.00394  0.84486  1.0000
  N   N8        1.0  0.74449  0.50394  0.65514  1.0000
