data_image0
_chemical_formula_structural       K4B4H16C16N32O16
_chemical_formula_sum              "K4 B4 H16 C16 N32 O16"
_cell_length_a       9.77354
_cell_length_b       10.5143
_cell_length_c       10.8938
_cell_angle_alpha    90.0001
_cell_angle_beta     90.0005
_cell_angle_gamma    106.288

_space_group_name_H-M_alt    "P 1"
_space_group_IT_number       1

loop_
  _space_group_symop_operation_xyz
  'x, y, z'

loop_
  _atom_site_type_symbol
  _atom_site_label
  _atom_site_symmetry_multiplicity
  _atom_site_fract_x
  _atom_site_fract_y
  _atom_site_fract_z
  _atom_site_occupancy
  K   K1        1.0  0.55371  0.80587  0.87186  1.0000
  K   K2        1.0  0.94629  0.19413  0.37186  1.0000
  K   K3        1.0  0.44629  0.19413  0.12814  1.0000
  K   K4        1.0  0.05371  0.80587  0.62815  1.0000
  B   B1        1.0  0.05850  0.28566  0.01266  1.0000
  B   B2        1.0  0.44149  0.71434  0.51267  1.0000
  B   B3        1.0  0.94150  0.71434  0.98733  1.0000
  B   B4        1.0  0.55851  0.28566  0.48733  1.0000
  H   H1        1.0  0.97346  0.32159  0.95107  1.0000
  H   H2        1.0  0.52653  0.67842  0.45107  1.0000
  H   H3        1.0  0.02653  0.67841  0.04893  1.0000
  H   H4        1.0  0.47347  0.32159  0.54893  1.0000
  H   H5        1.0  0.97448  0.16191  0.77495  1.0000
  H   H6        1.0  0.52552  0.83808  0.27496  1.0000
  H   H7        1.0  0.02553  0.83809  0.22505  1.0000
  H   H8        1.0  0.47448  0.16192  0.72505  1.0000
  H   H9        1.0  0.01466  0.24347  0.11249  1.0000
  H   H10       1.0  0.48534  0.75652  0.61249  1.0000
  H   H11       1.0  0.98534  0.75653  0.88751  1.0000
  H   H12       1.0  0.51467  0.24348  0.38751  1.0000
  H   H13       1.0  0.15822  0.54999  0.90154  1.0000
  H   H14       1.0  0.34178  0.45001  0.40154  1.0000
  H   H15       1.0  0.84178  0.45002  0.09846  1.0000
  H   H16       1.0  0.65822  0.54999  0.59846  1.0000
  C   C1        1.0  0.04923  0.12426  0.82738  1.0000
  C   C2        1.0  0.45077  0.87575  0.32738  1.0000
  C   C3        1.0  0.95078  0.87575  0.17262  1.0000
  C   C4        1.0  0.54923  0.12425  0.67262  1.0000
  C   C5        1.0  0.18852  0.02272  0.89070  1.0000
  C   C6        1.0  0.31147  0.97728  0.39070  1.0000
  C   C7        1.0  0.81148  0.97728  0.10930  1.0000
  C   C8        1.0  0.68852  0.02272  0.60931  1.0000
  C   C9        1.0  0.22485  0.52560  0.97250  1.0000
  C   C10       1.0  0.27515  0.47440  0.47251  1.0000
  C   C11       1.0  0.77514  0.47440  0.02749  1.0000
  C   C12       1.0  0.72486  0.52560  0.52749  1.0000
  C   C13       1.0  0.38297  0.52840  0.10023  1.0000
  C   C14       1.0  0.11703  0.47160  0.60023  1.0000
  C   C15       1.0  0.61702  0.47160  0.89977  1.0000
  C   C16       1.0  0.88298  0.52840  0.39977  1.0000
  N   N1        1.0  0.09891  0.17412  0.93917  1.0000
  N   N2        1.0  0.40109  0.82589  0.43918  1.0000
  N   N3        1.0  0.90110  0.82589  0.06083  1.0000
  N   N4        1.0  0.59891  0.17411  0.56083  1.0000
  N   N5        1.0  0.18935  0.10830  0.98131  1.0000
  N   N6        1.0  0.31065  0.89170  0.48131  1.0000
  N   N7        1.0  0.81066  0.89170  0.01869  1.0000
  N   N8        1.0  0.68935  0.10830  0.51869  1.0000
  N   N9        1.0  0.10421  0.02721  0.79362  1.0000
  N   N10       1.0  0.39578  0.97280  0.29362  1.0000
  N   N11       1.0  0.89580  0.97280  0.20638  1.0000
  N   N12       1.0  0.60421  0.02720  0.70638  1.0000
  N   N13       1.0  0.27573  0.93325  0.89787  1.0000
  N   N14       1.0  0.22426  0.06675  0.39787  1.0000
  N   N15       1.0  0.72427  0.06676  0.10213  1.0000
  N   N16       1.0  0.77573  0.93324  0.60213  1.0000
  N   N17       1.0  0.19209  0.40615  0.03045  1.0000
  N   N18       1.0  0.30791  0.59385  0.53045  1.0000
  N   N19       1.0  0.80791  0.59385  0.96955  1.0000
  N   N20       1.0  0.69210  0.40615  0.46955  1.0000
  N   N21       1.0  0.29433  0.40704  0.11379  1.0000
  N   N22       1.0  0.20566  0.59296  0.61380  1.0000
  N   N23       1.0  0.70566  0.59296  0.88620  1.0000
  N   N24       1.0  0.79435  0.40704  0.38621  1.0000
  N   N25       1.0  0.34678  0.60597  0.01435  1.0000
  N   N26       1.0  0.15323  0.39404  0.51435  1.0000
  N   N27       1.0  0.65322  0.39404  0.98565  1.0000
  N   N28       1.0  0.84678  0.60597  0.48565  1.0000
  N   N29       1.0  0.51047  0.57177  0.17365  1.0000
  N   N30       1.0  0.98953  0.42822  0.67365  1.0000
  N   N31       1.0  0.48953  0.42822  0.82634  1.0000
  N   N32       1.0  0.01047  0.57178  0.32635  1.0000
  O   O1        1.0  0.27143  0.85510  0.81108  1.0000
  O   O2        1.0  0.22857  0.14491  0.31108  1.0000
  O   O3        1.0  0.72857  0.14491  0.18892  1.0000
  O   O4        1.0  0.77142  0.85509  0.68892  1.0000
  O   O5        1.0  0.35246  0.93995  0.99009  1.0000
  O   O6        1.0  0.14754  0.06006  0.49008  1.0000
  O   O7        1.0  0.64755  0.06005  0.00991  1.0000
  O   O8        1.0  0.85245  0.93994  0.50992  1.0000
  O   O9        1.0  0.53516  0.49291  0.24976  1.0000
  O   O10       1.0  0.96483  0.50708  0.74976  1.0000
  O   O11       1.0  0.46482  0.50708  0.75023  1.0000
  O   O12       1.0  0.03518  0.49292  0.25024  1.0000
  O   O13       1.0  0.58874  0.68599  0.15591  1.0000
  O   O14       1.0  0.91127  0.31399  0.65592  1.0000
  O   O15       1.0  0.41127  0.31399  0.84408  1.0000
  O   O16       1.0  0.08874  0.68601  0.34408  1.0000
