data_image0
_chemical_formula_structural       Na4B4H32C32N16O4
_chemical_formula_sum              "Na4 B4 H32 C32 N16 O4"
_cell_length_a       8.76647
_cell_length_b       9.24184
_cell_length_c       13.2775
_cell_angle_alpha    90
_cell_angle_beta     89.9986
_cell_angle_gamma    90.0014

_space_group_name_H-M_alt    "P 1"
_space_group_IT_number       1

loop_
  _space_group_symop_operation_xyz
  'x, y, z'

loop_
  _atom_site_type_symbol
  _atom_site_label
  _atom_site_symmetry_multiplicity
  _atom_site_fract_x
  _atom_site_fract_y
  _atom_site_fract_z
  _atom_site_occupancy
  Na  Na1       1.0  0.40619  0.75002  0.93283  1.0000
  Na  Na2       1.0  0.90622  0.24999  0.56716  1.0000
  Na  Na3       1.0  0.59380  0.24998  0.06716  1.0000
  Na  Na4       1.0  0.09384  0.75000  0.43282  1.0000
  B   B1        1.0  0.90287  0.74999  0.72780  1.0000
  B   B2        1.0  0.40289  0.25003  0.77222  1.0000
  B   B3        1.0  0.09712  0.25000  0.27221  1.0000
  B   B4        1.0  0.59716  0.74998  0.22773  1.0000
  H   H1        1.0  0.22303  0.96539  0.06417  1.0000
  H   H2        1.0  0.72301  0.03459  0.43582  1.0000
  H   H3        1.0  0.77695  0.46541  0.93582  1.0000
  H   H4        1.0  0.27697  0.53462  0.56417  1.0000
  H   H5        1.0  0.77695  0.03465  0.93584  1.0000
  H   H6        1.0  0.27697  0.96539  0.56417  1.0000
  H   H7        1.0  0.22305  0.53462  0.06418  1.0000
  H   H8        1.0  0.72302  0.46536  0.43583  1.0000
  H   H9        1.0  0.21161  0.90209  0.19127  1.0000
  H   H10       1.0  0.71159  0.09790  0.30873  1.0000
  H   H11       1.0  0.78840  0.40211  0.80873  1.0000
  H   H12       1.0  0.28838  0.59792  0.69126  1.0000
  H   H13       1.0  0.78839  0.09793  0.80874  1.0000
  H   H14       1.0  0.28838  0.90209  0.69126  1.0000
  H   H15       1.0  0.21162  0.59793  0.19127  1.0000
  H   H16       1.0  0.71158  0.40205  0.30874  1.0000
  H   H17       1.0  0.94803  0.87914  0.16022  1.0000
  H   H18       1.0  0.44801  0.12083  0.33978  1.0000
  H   H19       1.0  0.05197  0.37919  0.83980  1.0000
  H   H20       1.0  0.55197  0.62085  0.66021  1.0000
  H   H21       1.0  0.05196  0.12088  0.83980  1.0000
  H   H22       1.0  0.55196  0.87915  0.66023  1.0000
  H   H23       1.0  0.94804  0.62083  0.16022  1.0000
  H   H24       1.0  0.44800  0.37913  0.33982  1.0000
  H   H25       1.0  0.97189  0.87527  0.02782  1.0000
  H   H26       1.0  0.47186  0.12467  0.47218  1.0000
  H   H27       1.0  0.02809  0.37532  0.97220  1.0000
  H   H28       1.0  0.52811  0.62473  0.52781  1.0000
  H   H29       1.0  0.02809  0.12475  0.97221  1.0000
  H   H30       1.0  0.52813  0.87530  0.52783  1.0000
  H   H31       1.0  0.97190  0.62470  0.02782  1.0000
  H   H32       1.0  0.47189  0.37524  0.47221  1.0000
  C   C1        1.0  0.76029  0.75000  0.80128  1.0000
  C   C2        1.0  0.26027  0.25002  0.69877  1.0000
  C   C3        1.0  0.23970  0.25000  0.19873  1.0000
  C   C4        1.0  0.73978  0.74997  0.30119  1.0000
  C   C5        1.0  0.90026  0.88963  0.65890  1.0000
  C   C6        1.0  0.40029  0.11039  0.84112  1.0000
  C   C7        1.0  0.09972  0.38963  0.34111  1.0000
  C   C8        1.0  0.59975  0.61035  0.15883  1.0000
  C   C9        1.0  0.09972  0.11036  0.34110  1.0000
  C   C10       1.0  0.59975  0.88962  0.15884  1.0000
  C   C11       1.0  0.90027  0.61035  0.65890  1.0000
  C   C12       1.0  0.40029  0.38966  0.84112  1.0000
  C   C13       1.0  0.05219  0.75001  0.79452  1.0000
  C   C14       1.0  0.55220  0.25003  0.70549  1.0000
  C   C15       1.0  0.94780  0.25000  0.20548  1.0000
  C   C16       1.0  0.44785  0.74996  0.29448  1.0000
  C   C17       1.0  0.18568  0.87552  0.11219  1.0000
  C   C18       1.0  0.68566  0.12446  0.38781  1.0000
  C   C19       1.0  0.81431  0.37553  0.88781  1.0000
  C   C20       1.0  0.31431  0.62449  0.61219  1.0000
  C   C21       1.0  0.81430  0.12452  0.88782  1.0000
  C   C22       1.0  0.31431  0.87551  0.61219  1.0000
  C   C23       1.0  0.18570  0.62450  0.11220  1.0000
  C   C24       1.0  0.68567  0.37548  0.38782  1.0000
  C   C25       1.0  0.01743  0.83383  0.09912  1.0000
  C   C26       1.0  0.51741  0.16613  0.40089  1.0000
  C   C27       1.0  0.98256  0.33387  0.90090  1.0000
  C   C28       1.0  0.48257  0.66617  0.59911  1.0000
  C   C29       1.0  0.98256  0.16619  0.90090  1.0000
  C   C30       1.0  0.48257  0.83385  0.59913  1.0000
  C   C31       1.0  0.01744  0.66616  0.09912  1.0000
  C   C32       1.0  0.51741  0.33381  0.40090  1.0000
  N   N1        1.0  0.65753  0.75000  0.85679  1.0000
  N   N2        1.0  0.15754  0.25001  0.64327  1.0000
  N   N3        1.0  0.34247  0.25000  0.14323  1.0000
  N   N4        1.0  0.84253  0.74997  0.35668  1.0000
  N   N5        1.0  0.89911  0.99250  0.60836  1.0000
  N   N6        1.0  0.39917  0.00749  0.89163  1.0000
  N   N7        1.0  0.10087  0.49251  0.39164  1.0000
  N   N8        1.0  0.60087  0.50746  0.10832  1.0000
  N   N9        1.0  0.10087  0.00748  0.39163  1.0000
  N   N10       1.0  0.60087  0.99252  0.10834  1.0000
  N   N11       1.0  0.89913  0.50747  0.60837  1.0000
  N   N12       1.0  0.39913  0.49255  0.89165  1.0000
  N   N13       1.0  0.16154  0.75001  0.84418  1.0000
  N   N14       1.0  0.66156  0.25001  0.65581  1.0000
  N   N15       1.0  0.83846  0.25000  0.15582  1.0000
  N   N16       1.0  0.33851  0.74997  0.34417  1.0000
  O   O1        1.0  0.27336  0.75001  0.08285  1.0000
  O   O2        1.0  0.77334  0.24997  0.41715  1.0000
  O   O3        1.0  0.72663  0.25003  0.91715  1.0000
  O   O4        1.0  0.22663  0.75000  0.58284  1.0000
