data_image0
_chemical_formula_structural       Cu2H12C12N4O8
_chemical_formula_sum              "Cu2 H12 C12 N4 O8"
_cell_length_a       7.74442
_cell_length_b       8.24631
_cell_length_c       8.05082
_cell_angle_alpha    63.119
_cell_angle_beta     61.1987
_cell_angle_gamma    62.0066

_space_group_name_H-M_alt    "P 1"
_space_group_IT_number       1

loop_
  _space_group_symop_operation_xyz
  'x, y, z'

loop_
  _atom_site_type_symbol
  _atom_site_label
  _atom_site_symmetry_multiplicity
  _atom_site_fract_x
  _atom_site_fract_y
  _atom_site_fract_z
  _atom_site_occupancy
  Cu  Cu1       1.0  1.00000  0.00000  0.50000  1.0000
  Cu  Cu2       1.0  0.50000  0.50000  0.00000  1.0000
  H   H1        1.0  0.09421  0.78355  0.96432  1.0000
  H   H2        1.0  0.84303  0.71590  0.53517  1.0000
  H   H3        1.0  0.90580  0.21645  0.03567  1.0000
  H   H4        1.0  0.15697  0.28409  0.46483  1.0000
  H   H5        1.0  0.56001  0.04388  0.58264  1.0000
  H   H6        1.0  0.18631  0.45561  0.91805  1.0000
  H   H7        1.0  0.43997  0.95613  0.41737  1.0000
  H   H8        1.0  0.81369  0.54439  0.08196  1.0000
  H   H9        1.0  0.20269  0.24986  0.75020  1.0000
  H   H10       1.0  0.79730  0.75015  0.24981  1.0000
  H   H11       1.0  0.83160  0.24931  0.75070  1.0000
  H   H12       1.0  0.16840  0.75069  0.24930  1.0000
  C   C1        1.0  0.20951  0.84689  0.83189  1.0000
  C   C2        1.0  0.88882  0.65270  0.66768  1.0000
  C   C3        1.0  0.79049  0.15311  0.16811  1.0000
  C   C4        1.0  0.11118  0.34730  0.33232  1.0000
  C   C5        1.0  0.53834  0.13652  0.65816  1.0000
  C   C6        1.0  0.33288  0.36288  0.84259  1.0000
  C   C7        1.0  0.46166  0.86348  0.34183  1.0000
  C   C8        1.0  0.66712  0.63712  0.15741  1.0000
  C   C9        1.0  0.34308  0.24977  0.75032  1.0000
  C   C10       1.0  0.65691  0.75025  0.24968  1.0000
  C   C11       1.0  0.69102  0.24948  0.75059  1.0000
  C   C12       1.0  0.30899  0.75052  0.24940  1.0000
  N   N1        1.0  0.71175  0.13950  0.65645  1.0000
  N   N2        1.0  0.50754  0.35967  0.84454  1.0000
  N   N3        1.0  0.28825  0.86050  0.34354  1.0000
  N   N4        1.0  0.49244  0.64033  0.15547  1.0000
  O   O1        1.0  0.14914  0.00365  0.71046  1.0000
  O   O2        1.0  0.86352  0.49594  0.78914  1.0000
  O   O3        1.0  0.85087  0.99635  0.28954  1.0000
  O   O4        1.0  0.13648  0.50406  0.21087  1.0000
  O   O5        1.0  0.40295  0.75228  0.81092  1.0000
  O   O6        1.0  0.96646  0.74742  0.68876  1.0000
  O   O7        1.0  0.59706  0.24772  0.18908  1.0000
  O   O8        1.0  0.03353  0.25258  0.31125  1.0000
