data_image0
_chemical_formula_structural       Ho2H8C4O12F2
_chemical_formula_sum              "Ho2 H8 C4 O12 F2"
_cell_length_a       7.79087
_cell_length_b       8.40928
_cell_length_c       8.40941
_cell_angle_alpha    83.6489
_cell_angle_beta     62.5149
_cell_angle_gamma    62.5308

_space_group_name_H-M_alt    "P 1"
_space_group_IT_number       1

loop_
  _space_group_symop_operation_xyz
  'x, y, z'

loop_
  _atom_site_type_symbol
  _atom_site_label
  _atom_site_symmetry_multiplicity
  _atom_site_fract_x
  _atom_site_fract_y
  _atom_site_fract_z
  _atom_site_occupancy
  Ho  Ho1       1.0  0.25000  0.07719  0.92286  1.0000
  Ho  Ho2       1.0  0.75000  0.92280  0.07714  1.0000
  H   H1        1.0  0.18149  0.04590  0.29833  1.0000
  H   H2        1.0  0.31855  0.70165  0.95411  1.0000
  H   H3        1.0  0.81854  0.95408  0.70166  1.0000
  H   H4        1.0  0.68141  0.29839  0.04591  1.0000
  H   H5        1.0  0.97485  0.04613  0.29784  1.0000
  H   H6        1.0  0.52511  0.70218  0.95389  1.0000
  H   H7        1.0  0.02517  0.95386  0.70216  1.0000
  H   H8        1.0  0.47487  0.29783  0.04612  1.0000
  C   C1        1.0  0.09946  0.50020  0.00028  1.0000
  C   C2        1.0  0.40056  0.99971  0.49976  1.0000
  C   C3        1.0  0.90053  0.49982  0.99974  1.0000
  C   C4        1.0  0.59947  0.00027  0.50022  1.0000
  O   O1        1.0  0.26425  0.34781  0.96864  1.0000
  O   O2        1.0  0.23583  0.03134  0.65216  1.0000
  O   O3        1.0  0.73572  0.65215  0.03135  1.0000
  O   O4        1.0  0.76420  0.96865  0.34785  1.0000
  O   O5        1.0  0.91985  0.34714  0.96802  1.0000
  O   O6        1.0  0.58019  0.03197  0.65290  1.0000
  O   O7        1.0  0.08012  0.65289  0.03197  1.0000
  O   O8        1.0  0.41986  0.96801  0.34709  1.0000
  O   O9        1.0  0.08062  0.09466  0.24483  1.0000
  O   O10       1.0  0.41937  0.75518  0.90534  1.0000
  O   O11       1.0  0.91938  0.90532  0.75517  1.0000
  O   O12       1.0  0.58059  0.24484  0.09468  1.0000
  F   F1        1.0  1.00000  1.00000  0.99999  1.0000
  F   F2        1.0  0.50000  0.00000  1.00000  1.0000
