data_image0
_chemical_formula_structural       Ag4H12C16N12O12
_chemical_formula_sum              "Ag4 H12 C16 N12 O12"
_cell_length_a       7.16458
_cell_length_b       7.16456
_cell_length_c       12.9443
_cell_angle_alpha    91.347
_cell_angle_beta     91.3478
_cell_angle_gamma    109.892

_space_group_name_H-M_alt    "P 1"
_space_group_IT_number       1

loop_
  _space_group_symop_operation_xyz
  'x, y, z'

loop_
  _atom_site_type_symbol
  _atom_site_label
  _atom_site_symmetry_multiplicity
  _atom_site_fract_x
  _atom_site_fract_y
  _atom_site_fract_z
  _atom_site_occupancy
  Ag  Ag1       1.0  0.41148  0.50946  0.85524  1.0000
  Ag  Ag2       1.0  0.49054  0.58852  0.64476  1.0000
  Ag  Ag3       1.0  0.58851  0.49053  0.14476  1.0000
  Ag  Ag4       1.0  0.50946  0.41149  0.35524  1.0000
  H   H1        1.0  0.71097  0.28798  0.90935  1.0000
  H   H2        1.0  0.71202  0.28903  0.59065  1.0000
  H   H3        1.0  0.28903  0.71201  0.09066  1.0000
  H   H4        1.0  0.28797  0.71097  0.40935  1.0000
  H   H5        1.0  0.70955  0.93718  0.91147  1.0000
  H   H6        1.0  0.06282  0.29046  0.58853  1.0000
  H   H7        1.0  0.29046  0.06281  0.08853  1.0000
  H   H8        1.0  0.93718  0.70954  0.41147  1.0000
  H   H9        1.0  0.17949  0.10069  0.73626  1.0000
  H   H10       1.0  0.89931  0.82051  0.76374  1.0000
  H   H11       1.0  0.82052  0.89931  0.26374  1.0000
  H   H12       1.0  0.10069  0.17950  0.23626  1.0000
  C   C1        1.0  0.59063  0.16713  0.87176  1.0000
  C   C2        1.0  0.83287  0.40938  0.62824  1.0000
  C   C3        1.0  0.40938  0.83287  0.12824  1.0000
  C   C4        1.0  0.16713  0.59063  0.37176  1.0000
  C   C5        1.0  0.59027  0.97272  0.87221  1.0000
  C   C6        1.0  0.02728  0.40973  0.62780  1.0000
  C   C7        1.0  0.40973  0.02727  0.12780  1.0000
  C   C8        1.0  0.97272  0.59027  0.37221  1.0000
  C   C9        1.0  0.29459  0.86743  0.77673  1.0000
  C   C10       1.0  0.13258  0.70541  0.72327  1.0000
  C   C11       1.0  0.70541  0.13257  0.22327  1.0000
  C   C12       1.0  0.86742  0.29459  0.27673  1.0000
  C   C13       1.0  0.29627  0.06312  0.77648  1.0000
  C   C14       1.0  0.93688  0.70373  0.72351  1.0000
  C   C15       1.0  0.70374  0.93688  0.22351  1.0000
  C   C16       1.0  0.06312  0.29627  0.27649  1.0000
  N   N1        1.0  0.44178  0.21118  0.82543  1.0000
  N   N2        1.0  0.78882  0.55823  0.67457  1.0000
  N   N3        1.0  0.55824  0.78882  0.17457  1.0000
  N   N4        1.0  0.21118  0.44177  0.32543  1.0000
  N   N5        1.0  0.44113  0.82289  0.82661  1.0000
  N   N6        1.0  0.17711  0.55887  0.67339  1.0000
  N   N7        1.0  0.55887  0.17711  0.17339  1.0000
  N   N8        1.0  0.82289  0.44113  0.32661  1.0000
  N   N9        1.0  0.07655  0.28475  0.98495  1.0000
  N   N10       1.0  0.71525  0.92345  0.51505  1.0000
  N   N11       1.0  0.92345  0.71525  0.01505  1.0000
  N   N12       1.0  0.28474  0.07655  0.48495  1.0000
  O   O1        1.0  0.25154  0.38163  0.02296  1.0000
  O   O2        1.0  0.61837  0.74845  0.47703  1.0000
  O   O3        1.0  0.74845  0.61837  0.97703  1.0000
  O   O4        1.0  0.38163  0.25155  0.52296  1.0000
  O   O5        1.0  0.04218  0.29676  0.88901  1.0000
  O   O6        1.0  0.70325  0.95782  0.61099  1.0000
  O   O7        1.0  0.95782  0.70324  0.11098  1.0000
  O   O8        1.0  0.29674  0.04218  0.38901  1.0000
  O   O9        1.0  0.94433  0.18150  0.04192  1.0000
  O   O10       1.0  0.81851  0.05567  0.45808  1.0000
  O   O11       1.0  0.05566  0.81850  0.95808  1.0000
  O   O12       1.0  0.18149  0.94433  0.54192  1.0000
