data_image0
_chemical_formula_structural       Ga4P6H22C24N4O24
_chemical_formula_sum              "Ga4 P6 H22 C24 N4 O24"
_cell_length_a       7.69574
_cell_length_b       11.8489
_cell_length_c       12.064
_cell_angle_alpha    113.928
_cell_angle_beta     102.066
_cell_angle_gamma    103.331

_space_group_name_H-M_alt    "P 1"
_space_group_IT_number       1

loop_
  _space_group_symop_operation_xyz
  'x, y, z'

loop_
  _atom_site_type_symbol
  _atom_site_label
  _atom_site_symmetry_multiplicity
  _atom_site_fract_x
  _atom_site_fract_y
  _atom_site_fract_z
  _atom_site_occupancy
  Ga  Ga1       1.0  0.80380  0.82582  0.47884  1.0000
  Ga  Ga2       1.0  0.19620  0.17418  0.52116  1.0000
  Ga  Ga3       1.0  0.63723  0.38065  0.36393  1.0000
  Ga  Ga4       1.0  0.36277  0.61934  0.63607  1.0000
  P   P1        1.0  0.96002  0.67879  0.60723  1.0000
  P   P2        1.0  0.03997  0.32121  0.39277  1.0000
  P   P3        1.0  0.18384  0.88882  0.41953  1.0000
  P   P4        1.0  0.81616  0.11118  0.58047  1.0000
  P   P5        1.0  0.43523  0.59622  0.37605  1.0000
  P   P6        1.0  0.56476  0.40378  0.62395  1.0000
  H   H1        1.0  0.80435  0.63252  0.72152  1.0000
  H   H2        1.0  0.19565  0.36748  0.27848  1.0000
  H   H3        1.0  0.23817  0.81478  0.56398  1.0000
  H   H4        1.0  0.76183  0.18522  0.43602  1.0000
  H   H5        1.0  0.23819  0.67896  0.29804  1.0000
  H   H6        1.0  0.76182  0.32104  0.70196  1.0000
  H   H7        1.0  0.90473  0.58136  0.30648  1.0000
  H   H8        1.0  0.09527  0.41864  0.69353  1.0000
  H   H9        1.0  0.91157  0.59945  0.10857  1.0000
  H   H10       1.0  0.08843  0.40055  0.89144  1.0000
  H   H11       1.0  0.68824  0.41316  0.89186  1.0000
  H   H12       1.0  0.31176  0.58684  0.10814  1.0000
  H   H13       1.0  0.43362  0.18236  0.76639  1.0000
  H   H14       1.0  0.56639  0.81764  0.23361  1.0000
  H   H15       1.0  0.21858  0.99245  0.76788  1.0000
  H   H16       1.0  0.78142  0.00755  0.23212  1.0000
  H   H17       1.0  0.11154  0.88045  0.89798  1.0000
  H   H18       1.0  0.88847  0.11955  0.10202  1.0000
  H   H19       1.0  0.15329  0.89410  0.11584  1.0000
  H   H20       1.0  0.84671  0.10590  0.88416  1.0000
  H   H21       1.0  0.37570  0.10076  0.31256  1.0000
  H   H22       1.0  0.62430  0.89924  0.68744  1.0000
  C   C1        1.0  0.80866  0.50368  0.21189  1.0000
  C   C2        1.0  0.19133  0.49633  0.78811  1.0000
  C   C3        1.0  0.81140  0.51171  0.09917  1.0000
  C   C4        1.0  0.18860  0.48829  0.90083  1.0000
  C   C5        1.0  0.68843  0.40914  0.98057  1.0000
  C   C6        1.0  0.31157  0.59086  0.01943  1.0000
  C   C7        1.0  0.56216  0.29705  0.97444  1.0000
  C   C8        1.0  0.43785  0.70295  0.02557  1.0000
  C   C9        1.0  0.43280  0.18369  0.85701  1.0000
  C   C10       1.0  0.56720  0.81631  0.14299  1.0000
  C   C11       1.0  0.31559  0.07815  0.85808  1.0000
  C   C12       1.0  0.68441  0.92186  0.14192  1.0000
  C   C13       1.0  0.31972  0.07681  0.97683  1.0000
  C   C14       1.0  0.68028  0.92318  0.02317  1.0000
  C   C15       1.0  0.20983  0.96898  0.98555  1.0000
  C   C16       1.0  0.79017  0.03102  0.01445  1.0000
  C   C17       1.0  0.23114  0.97626  0.10531  1.0000
  C   C18       1.0  0.76886  0.02374  0.89469  1.0000
  C   C19       1.0  0.35587  0.09222  0.21720  1.0000
  C   C20       1.0  0.64413  0.90778  0.78280  1.0000
  C   C21       1.0  0.56743  0.29861  0.09296  1.0000
  C   C22       1.0  0.43257  0.70139  0.90704  1.0000
  C   C23       1.0  0.44431  0.18857  0.09417  1.0000
  C   C24       1.0  0.55568  0.81143  0.90583  1.0000
  N   N1        1.0  0.68901  0.40061  0.20841  1.0000
  N   N2        1.0  0.31099  0.59939  0.79159  1.0000
  N   N3        1.0  0.45631  0.19585  0.21089  1.0000
  N   N4        1.0  0.54369  0.80415  0.78911  1.0000
  O   O1        1.0  0.96464  0.85125  0.39100  1.0000
  O   O2        1.0  0.03536  0.14875  0.60900  1.0000
  O   O3        1.0  0.91746  0.80366  0.61520  1.0000
  O   O4        1.0  0.08253  0.19634  0.38480  1.0000
  O   O5        1.0  0.26992  0.03309  0.44621  1.0000
  O   O6        1.0  0.73008  0.96691  0.55380  1.0000
  O   O7        1.0  0.60149  0.67802  0.35361  1.0000
  O   O8        1.0  0.39851  0.32198  0.64639  1.0000
  O   O9        1.0  0.82293  0.55578  0.48514  1.0000
  O   O10       1.0  0.17707  0.44421  0.51486  1.0000
  O   O11       1.0  0.16917  0.70529  0.61646  1.0000
  O   O12       1.0  0.83083  0.29471  0.38355  1.0000
  O   O13       1.0  0.45899  0.66713  0.51969  1.0000
  O   O14       1.0  0.54101  0.33287  0.48031  1.0000
  O   O15       1.0  0.42521  0.45159  0.32803  1.0000
  O   O16       1.0  0.57478  0.54841  0.67197  1.0000
  O   O17       1.0  0.94205  0.67319  0.73293  1.0000
  O   O18       1.0  0.05794  0.32681  0.26707  1.0000
  O   O19       1.0  0.28103  0.89425  0.55179  1.0000
  O   O20       1.0  0.71897  0.10575  0.44821  1.0000
  O   O21       1.0  0.24652  0.58609  0.28738  1.0000
  O   O22       1.0  0.75348  0.41391  0.71262  1.0000
  O   O23       1.0  0.22342  0.79628  0.30612  1.0000
  O   O24       1.0  0.77658  0.20372  0.69387  1.0000
