data_image0
_chemical_formula_structural       Sn4H44C36N4O20
_chemical_formula_sum              "Sn4 H44 C36 N4 O20"
_cell_length_a       11.2011
_cell_length_b       11.4849
_cell_length_c       12.2314
_cell_angle_alpha    90
_cell_angle_beta     90
_cell_angle_gamma    111.346

_space_group_name_H-M_alt    "P 1"
_space_group_IT_number       1

loop_
  _space_group_symop_operation_xyz
  'x, y, z'

loop_
  _atom_site_type_symbol
  _atom_site_label
  _atom_site_symmetry_multiplicity
  _atom_site_fract_x
  _atom_site_fract_y
  _atom_site_fract_z
  _atom_site_occupancy
  Sn  Sn1       1.0  0.59316  0.24929  0.08055  1.0000
  Sn  Sn2       1.0  0.90684  0.75071  0.58055  1.0000
  Sn  Sn3       1.0  0.40684  0.75071  0.91946  1.0000
  Sn  Sn4       1.0  0.09316  0.24929  0.41945  1.0000
  H   H1        1.0  0.51211  0.06126  0.89139  1.0000
  H   H2        1.0  0.98789  0.93874  0.39139  1.0000
  H   H3        1.0  0.48789  0.93874  0.10861  1.0000
  H   H4        1.0  0.01211  0.06127  0.60861  1.0000
  H   H5        1.0  0.53498  0.20083  0.86304  1.0000
  H   H6        1.0  0.96502  0.79916  0.36304  1.0000
  H   H7        1.0  0.46502  0.79916  0.13696  1.0000
  H   H8        1.0  0.03498  0.20084  0.63696  1.0000
  H   H9        1.0  0.50945  0.09830  0.49553  1.0000
  H   H10       1.0  0.99055  0.90170  0.99553  1.0000
  H   H11       1.0  0.49055  0.90170  0.50447  1.0000
  H   H12       1.0  0.00945  0.09830  0.00447  1.0000
  H   H13       1.0  0.62521  0.30338  0.58711  1.0000
  H   H14       1.0  0.87478  0.69662  0.08711  1.0000
  H   H15       1.0  0.37479  0.69662  0.41289  1.0000
  H   H16       1.0  0.12521  0.30338  0.91289  1.0000
  H   H17       1.0  0.72426  0.46852  0.26707  1.0000
  H   H18       1.0  0.77574  0.53149  0.76707  1.0000
  H   H19       1.0  0.27574  0.53149  0.73293  1.0000
  H   H20       1.0  0.22426  0.46851  0.23293  1.0000
  H   H21       1.0  0.76708  0.15226  0.14504  1.0000
  H   H22       1.0  0.73292  0.84774  0.64504  1.0000
  H   H23       1.0  0.23292  0.84774  0.85496  1.0000
  H   H24       1.0  0.26708  0.15226  0.35496  1.0000
  H   H25       1.0  0.83671  0.26974  0.04234  1.0000
  H   H26       1.0  0.66330  0.73026  0.54234  1.0000
  H   H27       1.0  0.16330  0.73026  0.95766  1.0000
  H   H28       1.0  0.33670  0.26974  0.45766  1.0000
  H   H29       1.0  0.72964  0.11623  0.00354  1.0000
  H   H30       1.0  0.77037  0.88377  0.50353  1.0000
  H   H31       1.0  0.27037  0.88377  0.99646  1.0000
  H   H32       1.0  0.22963  0.11623  0.49646  1.0000
  H   H33       1.0  0.44548  0.37647  0.14448  1.0000
  H   H34       1.0  0.05451  0.62353  0.64448  1.0000
  H   H35       1.0  0.55452  0.62353  0.85552  1.0000
  H   H36       1.0  0.94548  0.37647  0.35552  1.0000
  H   H37       1.0  0.34635  0.22329  0.09606  1.0000
  H   H38       1.0  0.15364  0.77671  0.59607  1.0000
  H   H39       1.0  0.65365  0.77671  0.90393  1.0000
  H   H40       1.0  0.84635  0.22328  0.40394  1.0000
  H   H41       1.0  0.42536  0.34529  0.00015  1.0000
  H   H42       1.0  0.07464  0.65470  0.50015  1.0000
  H   H43       1.0  0.57464  0.65471  0.99984  1.0000
  H   H44       1.0  0.92536  0.34529  0.49984  1.0000
  C   C1        1.0  0.55610  0.17611  0.33325  1.0000
  C   C2        1.0  0.94390  0.82390  0.83325  1.0000
  C   C3        1.0  0.44390  0.82390  0.66675  1.0000
  C   C4        1.0  0.05610  0.17610  0.16675  1.0000
  C   C5        1.0  0.55694  0.18193  0.44720  1.0000
  C   C6        1.0  0.94306  0.81807  0.94720  1.0000
  C   C7        1.0  0.44306  0.81807  0.55280  1.0000
  C   C8        1.0  0.05694  0.18193  0.05280  1.0000
  C   C9        1.0  0.62126  0.29620  0.49822  1.0000
  C   C10       1.0  0.87874  0.70380  0.99822  1.0000
  C   C11       1.0  0.37874  0.70380  0.50178  1.0000
  C   C12       1.0  0.12126  0.29620  0.00178  1.0000
  C   C13       1.0  0.68357  0.40146  0.43380  1.0000
  C   C14       1.0  0.81643  0.59854  0.93380  1.0000
  C   C15       1.0  0.31643  0.59854  0.56620  1.0000
  C   C16       1.0  0.18357  0.40146  0.06620  1.0000
  C   C17       1.0  0.67709  0.38881  0.32011  1.0000
  C   C18       1.0  0.82291  0.61119  0.82011  1.0000
  C   C19       1.0  0.32292  0.61119  0.67988  1.0000
  C   C20       1.0  0.17708  0.38881  0.17989  1.0000
  C   C21       1.0  0.49232  0.05437  0.27209  1.0000
  C   C22       1.0  0.00768  0.94563  0.77209  1.0000
  C   C23       1.0  0.50768  0.94563  0.72791  1.0000
  C   C24       1.0  0.99232  0.05437  0.22791  1.0000
  C   C25       1.0  0.76199  0.52566  0.48151  1.0000
  C   C26       1.0  0.73801  0.47435  0.98151  1.0000
  C   C27       1.0  0.23801  0.47434  0.51849  1.0000
  C   C28       1.0  0.26199  0.52565  0.01849  1.0000
  C   C29       1.0  0.75193  0.18951  0.06593  1.0000
  C   C30       1.0  0.74808  0.81050  0.56592  1.0000
  C   C31       1.0  0.24808  0.81049  0.93407  1.0000
  C   C32       1.0  0.25192  0.18950  0.43408  1.0000
  C   C33       1.0  0.43213  0.30614  0.08050  1.0000
  C   C34       1.0  0.06787  0.69386  0.58050  1.0000
  C   C35       1.0  0.56787  0.69386  0.91950  1.0000
  C   C36       1.0  0.93213  0.30614  0.41950  1.0000
  N   N1        1.0  0.61461  0.27885  0.27172  1.0000
  N   N2        1.0  0.88539  0.72115  0.77172  1.0000
  N   N3        1.0  0.38539  0.72115  0.72828  1.0000
  N   N4        1.0  0.11461  0.27885  0.22828  1.0000
  O   O1        1.0  0.48406  0.06526  0.16585  1.0000
  O   O2        1.0  0.01594  0.93474  0.66585  1.0000
  O   O3        1.0  0.51594  0.93474  0.83415  1.0000
  O   O4        1.0  0.98406  0.06526  0.33415  1.0000
  O   O5        1.0  0.45473  0.95415  0.32256  1.0000
  O   O6        1.0  0.04527  0.04586  0.82256  1.0000
  O   O7        1.0  0.54527  0.04586  0.67744  1.0000
  O   O8        1.0  0.95473  0.95414  0.17744  1.0000
  O   O9        1.0  0.76638  0.53825  0.58570  1.0000
  O   O10       1.0  0.73362  0.46175  0.08570  1.0000
  O   O11       1.0  0.23362  0.46175  0.41431  1.0000
  O   O12       1.0  0.26638  0.53825  0.91431  1.0000
  O   O13       1.0  0.82336  0.61450  0.41761  1.0000
  O   O14       1.0  0.67664  0.38550  0.91761  1.0000
  O   O15       1.0  0.17664  0.38550  0.58239  1.0000
  O   O16       1.0  0.32336  0.61450  0.08239  1.0000
  O   O17       1.0  0.49836  0.13804  0.91968  1.0000
  O   O18       1.0  0.00164  0.86196  0.41968  1.0000
  O   O19       1.0  0.50164  0.86196  0.08032  1.0000
  O   O20       1.0  0.99836  0.13804  0.58032  1.0000
