data_image0
_chemical_formula_structural       Li2H44C20N4
_chemical_formula_sum              "Li2 H44 C20 N4"
_cell_length_a       7.80408
_cell_length_b       8.72905
_cell_length_c       9.19139
_cell_angle_alpha    107.758
_cell_angle_beta     113.082
_cell_angle_gamma    90.9091

_space_group_name_H-M_alt    "P 1"
_space_group_IT_number       1

loop_
  _space_group_symop_operation_xyz
  'x, y, z'

loop_
  _atom_site_type_symbol
  _atom_site_label
  _atom_site_symmetry_multiplicity
  _atom_site_fract_x
  _atom_site_fract_y
  _atom_site_fract_z
  _atom_site_occupancy
  Li  Li1       1.0  0.44700  0.62419  0.48932  1.0000
  Li  Li2       1.0  0.55300  0.37581  0.51068  1.0000
  H   H1        1.0  0.58682  0.50412  0.89848  1.0000
  H   H2        1.0  0.41318  0.49588  0.10152  1.0000
  H   H3        1.0  0.36975  0.77808  0.82546  1.0000
  H   H4        1.0  0.63025  0.22193  0.17454  1.0000
  H   H5        1.0  0.38971  0.69546  0.98416  1.0000
  H   H6        1.0  0.61029  0.30454  0.01584  1.0000
  H   H7        1.0  0.62428  0.95598  0.09412  1.0000
  H   H8        1.0  0.37572  0.04402  0.90588  1.0000
  H   H9        1.0  0.73246  0.78571  0.12664  1.0000
  H   H10       1.0  0.26754  0.21429  0.87335  1.0000
  H   H11       1.0  0.90337  0.92269  0.01575  1.0000
  H   H12       1.0  0.09663  0.07731  0.98425  1.0000
  H   H13       1.0  0.69152  0.91840  0.84343  1.0000
  H   H14       1.0  0.30848  0.08160  0.15657  1.0000
  H   H15       1.0  0.85648  0.62208  0.91695  1.0000
  H   H16       1.0  0.14352  0.37792  0.08306  1.0000
  H   H17       1.0  0.04623  0.77073  0.83159  1.0000
  H   H18       1.0  0.95377  0.22927  0.16841  1.0000
  H   H19       1.0  0.84643  0.77045  0.65122  1.0000
  H   H20       1.0  0.15357  0.22955  0.34878  1.0000
  H   H21       1.0  0.92787  0.58458  0.66588  1.0000
  H   H22       1.0  0.07214  0.41542  0.33412  1.0000
  H   H23       1.0  0.24430  0.42765  0.77720  1.0000
  H   H24       1.0  0.75570  0.57235  0.22280  1.0000
  H   H25       1.0  0.32858  0.32677  0.62563  1.0000
  H   H26       1.0  0.67142  0.67323  0.37437  1.0000
  H   H27       1.0  0.21380  0.49896  0.60835  1.0000
  H   H28       1.0  0.78620  0.50104  0.39165  1.0000
  H   H29       1.0  0.44486  0.02332  0.64775  1.0000
  H   H30       1.0  0.55514  0.97668  0.35225  1.0000
  H   H31       1.0  0.31515  0.07229  0.46478  1.0000
  H   H32       1.0  0.68485  0.92771  0.53522  1.0000
  H   H33       1.0  0.35394  0.76531  0.20884  1.0000
  H   H34       1.0  0.64606  0.23469  0.79116  1.0000
  H   H35       1.0  0.14296  0.84874  0.19739  1.0000
  H   H36       1.0  0.85704  0.15126  0.80261  1.0000
  H   H37       1.0  0.16136  0.64332  0.19446  1.0000
  H   H38       1.0  0.83864  0.35668  0.80555  1.0000
  H   H39       1.0  0.20601  0.84846  0.61699  1.0000
  H   H40       1.0  0.79399  0.15154  0.38301  1.0000
  H   H41       1.0  0.08354  0.68151  0.42698  1.0000
  H   H42       1.0  0.91646  0.31849  0.57303  1.0000
  H   H43       1.0  0.04711  0.88341  0.43141  1.0000
  H   H44       1.0  0.95289  0.11659  0.56859  1.0000
  C   C1        1.0  0.49833  0.56067  0.80551  1.0000
  C   C2        1.0  0.50167  0.43933  0.19449  1.0000
  C   C3        1.0  0.46417  0.72113  0.91210  1.0000
  C   C4        1.0  0.53583  0.27887  0.08790  1.0000
  C   C5        1.0  0.64927  0.83597  0.02853  1.0000
  C   C6        1.0  0.35073  0.16402  0.97147  1.0000
  C   C7        1.0  0.76251  0.85184  0.92978  1.0000
  C   C8        1.0  0.23749  0.14816  0.07023  1.0000
  C   C9        1.0  0.77958  0.68269  0.82329  1.0000
  C   C10       1.0  0.22042  0.31731  0.17671  1.0000
  C   C11       1.0  0.90689  0.70289  0.73824  1.0000
  C   C12       1.0  0.09311  0.29711  0.26176  1.0000
  C   C13       1.0  0.31144  0.44711  0.69787  1.0000
  C   C14       1.0  0.68856  0.55289  0.30213  1.0000
  C   C15       1.0  0.41055  0.98913  0.51301  1.0000
  C   C16       1.0  0.58945  0.01087  0.48699  1.0000
  C   C17       1.0  0.23850  0.76763  0.24858  1.0000
  C   C18       1.0  0.76151  0.23237  0.75142  1.0000
  C   C19       1.0  0.15385  0.80826  0.47972  1.0000
  C   C20       1.0  0.84615  0.19174  0.52028  1.0000
  N   N1        1.0  0.59692  0.58401  0.70583  1.0000
  N   N2        1.0  0.40308  0.41599  0.29417  1.0000
  N   N3        1.0  0.31190  0.82012  0.43286  1.0000
  N   N4        1.0  0.68810  0.17988  0.56714  1.0000
