data_image0
_chemical_formula_structural       H48Ru8C32N4O44
_chemical_formula_sum              "H48 Ru8 C32 N4 O44"
_cell_length_a       7.42903
_cell_length_b       13.9891
_cell_length_c       14.325
_cell_angle_alpha    90
_cell_angle_beta     101.249
_cell_angle_gamma    90

_space_group_name_H-M_alt    "P 1"
_space_group_IT_number       1

loop_
  _space_group_symop_operation_xyz
  'x, y, z'

loop_
  _atom_site_type_symbol
  _atom_site_label
  _atom_site_symmetry_multiplicity
  _atom_site_fract_x
  _atom_site_fract_y
  _atom_site_fract_z
  _atom_site_occupancy
  H   H1        1.0  0.02257  0.98944  0.18766  1.0000
  H   H2        1.0  0.47744  0.48943  0.31233  1.0000
  H   H3        1.0  0.97743  0.01057  0.81233  1.0000
  H   H4        1.0  0.52255  0.51057  0.68767  1.0000
  H   H5        1.0  0.17120  0.08893  0.21518  1.0000
  H   H6        1.0  0.32881  0.58892  0.28481  1.0000
  H   H7        1.0  0.82880  0.91107  0.78482  1.0000
  H   H8        1.0  0.67119  0.41108  0.71519  1.0000
  H   H9        1.0  0.04400  0.04566  0.30127  1.0000
  H   H10       1.0  0.45602  0.54565  0.19871  1.0000
  H   H11       1.0  0.95600  0.95434  0.69872  1.0000
  H   H12       1.0  0.54398  0.45435  0.80128  1.0000
  H   H13       1.0  0.25970  0.98603  0.02444  1.0000
  H   H14       1.0  0.24032  0.48604  0.47556  1.0000
  H   H15       1.0  0.74032  0.01397  0.97556  1.0000
  H   H16       1.0  0.75969  0.51397  0.52445  1.0000
  H   H17       1.0  0.11012  0.08501  0.99401  1.0000
  H   H18       1.0  0.38990  0.58502  0.50599  1.0000
  H   H19       1.0  0.88988  0.91498  0.00599  1.0000
  H   H20       1.0  0.61010  0.41499  0.49402  1.0000
  H   H21       1.0  0.25507  0.04912  0.91442  1.0000
  H   H22       1.0  0.24494  0.54914  0.58558  1.0000
  H   H23       1.0  0.74493  0.95087  0.08558  1.0000
  H   H24       1.0  0.75506  0.45087  0.41443  1.0000
  H   H25       1.0  0.19372  0.44634  0.94454  1.0000
  H   H26       1.0  0.30627  0.94633  0.55546  1.0000
  H   H27       1.0  0.80629  0.55367  0.05546  1.0000
  H   H28       1.0  0.69372  0.05367  0.44454  1.0000
  H   H29       1.0  0.08936  0.42187  0.04533  1.0000
  H   H30       1.0  0.41063  0.92187  0.45467  1.0000
  H   H31       1.0  0.91065  0.57813  0.95467  1.0000
  H   H32       1.0  0.58936  0.07813  0.54533  1.0000
  H   H33       1.0  0.24804  0.51763  0.04928  1.0000
  H   H34       1.0  0.25195  0.01763  0.45072  1.0000
  H   H35       1.0  0.75196  0.48237  0.95072  1.0000
  H   H36       1.0  0.74804  0.98237  0.54928  1.0000
  H   H37       1.0  0.99959  0.45686  0.33141  1.0000
  H   H38       1.0  0.50040  0.95686  0.16859  1.0000
  H   H39       1.0  0.00041  0.54313  0.66860  1.0000
  H   H40       1.0  0.49960  0.04313  0.83140  1.0000
  H   H41       1.0  0.14443  0.41552  0.25400  1.0000
  H   H42       1.0  0.35556  0.91552  0.24600  1.0000
  H   H43       1.0  0.85557  0.58448  0.74600  1.0000
  H   H44       1.0  0.64444  0.08447  0.75399  1.0000
  H   H45       1.0  0.99978  0.51578  0.21998  1.0000
  H   H46       1.0  0.50022  0.01578  0.28002  1.0000
  H   H47       1.0  0.00022  0.48421  0.78002  1.0000
  H   H48       1.0  0.49978  0.98421  0.71997  1.0000
  Ru  Ru1       1.0  0.68318  0.25995  0.05512  1.0000
  Ru  Ru2       1.0  0.81682  0.75994  0.44487  1.0000
  Ru  Ru3       1.0  0.31682  0.74005  0.94488  1.0000
  Ru  Ru4       1.0  0.18318  0.24005  0.55513  1.0000
  Ru  Ru5       1.0  0.57176  0.24344  0.19235  1.0000
  Ru  Ru6       1.0  0.92824  0.74344  0.30764  1.0000
  Ru  Ru7       1.0  0.42823  0.75656  0.80765  1.0000
  Ru  Ru8       1.0  0.07177  0.25655  0.69236  1.0000
  C   C1        1.0  0.88770  0.12457  0.18656  1.0000
  C   C2        1.0  0.61230  0.62456  0.31343  1.0000
  C   C3        1.0  0.11230  0.87543  0.81344  1.0000
  C   C4        1.0  0.38770  0.37544  0.68657  1.0000
  C   C5        1.0  0.04083  0.05807  0.22568  1.0000
  C   C6        1.0  0.45918  0.55806  0.27431  1.0000
  C   C7        1.0  0.95917  0.94193  0.77432  1.0000
  C   C8        1.0  0.54082  0.44194  0.72569  1.0000
  C   C9        1.0  0.38961  0.12317  0.03813  1.0000
  C   C10       1.0  0.11040  0.62318  0.46187  1.0000
  C   C11       1.0  0.61039  0.87683  0.96187  1.0000
  C   C12       1.0  0.88960  0.37682  0.53814  1.0000
  C   C13       1.0  0.24558  0.05613  0.98926  1.0000
  C   C14       1.0  0.25444  0.55614  0.51074  1.0000
  C   C15       1.0  0.75443  0.94387  0.01074  1.0000
  C   C16       1.0  0.74557  0.44387  0.48927  1.0000
  C   C17       1.0  0.36780  0.37862  0.06107  1.0000
  C   C18       1.0  0.13219  0.87862  0.43892  1.0000
  C   C19       1.0  0.63220  0.62138  0.93892  1.0000
  C   C20       1.0  0.86781  0.12138  0.56108  1.0000
  C   C21       1.0  0.21471  0.44490  0.02224  1.0000
  C   C22       1.0  0.28529  0.94490  0.47776  1.0000
  C   C23       1.0  0.78530  0.55511  0.97775  1.0000
  C   C24       1.0  0.71471  0.05510  0.52224  1.0000
  C   C25       1.0  0.86442  0.38052  0.20890  1.0000
  C   C26       1.0  0.63557  0.88051  0.29109  1.0000
  C   C27       1.0  0.13558  0.61949  0.79110  1.0000
  C   C28       1.0  0.36442  0.11948  0.70890  1.0000
  C   C29       1.0  0.01003  0.44678  0.25712  1.0000
  C   C30       1.0  0.48997  0.94678  0.24287  1.0000
  C   C31       1.0  0.98998  0.55322  0.74288  1.0000
  C   C32       1.0  0.51003  0.05322  0.75711  1.0000
  N   N1        1.0  0.87685  0.25974  0.87394  1.0000
  N   N2        1.0  0.62315  0.75974  0.62607  1.0000
  N   N3        1.0  0.12316  0.74026  0.12607  1.0000
  N   N4        1.0  0.37684  0.24026  0.37394  1.0000
  O   O1        1.0  0.76798  0.14378  0.23758  1.0000
  O   O2        1.0  0.73203  0.64377  0.26241  1.0000
  O   O3        1.0  0.23201  0.85622  0.76241  1.0000
  O   O4        1.0  0.26798  0.35622  0.73759  1.0000
  O   O5        1.0  0.88051  0.16091  0.10331  1.0000
  O   O6        1.0  0.61950  0.66090  0.39668  1.0000
  O   O7        1.0  0.11949  0.83909  0.89668  1.0000
  O   O8        1.0  0.38050  0.33909  0.60332  1.0000
  O   O9        1.0  0.39247  0.14377  0.12582  1.0000
  O   O10       1.0  0.10755  0.64378  0.37418  1.0000
  O   O11       1.0  0.60753  0.85624  0.87418  1.0000
  O   O12       1.0  0.89245  0.35622  0.62582  1.0000
  O   O13       1.0  0.50504  0.15861  0.99142  1.0000
  O   O14       1.0  0.99497  0.65861  0.50858  1.0000
  O   O15       1.0  0.49496  0.84139  0.00858  1.0000
  O   O16       1.0  0.00503  0.34139  0.49143  1.0000
  O   O17       1.0  0.37613  0.34281  0.14467  1.0000
  O   O18       1.0  0.12386  0.84281  0.35532  1.0000
  O   O19       1.0  0.62388  0.65720  0.85533  1.0000
  O   O20       1.0  0.87613  0.15719  0.64467  1.0000
  O   O21       1.0  0.48674  0.35895  0.00970  1.0000
  O   O22       1.0  0.01324  0.85895  0.49029  1.0000
  O   O23       1.0  0.51325  0.64106  0.99029  1.0000
  O   O24       1.0  0.98676  0.14105  0.50971  1.0000
  O   O25       1.0  0.74998  0.34458  0.25592  1.0000
  O   O26       1.0  0.75001  0.84457  0.24407  1.0000
  O   O27       1.0  0.25002  0.65541  0.74408  1.0000
  O   O28       1.0  0.24999  0.15541  0.75592  1.0000
  O   O29       1.0  0.86034  0.36036  0.12092  1.0000
  O   O30       1.0  0.63965  0.86036  0.37907  1.0000
  O   O31       1.0  0.13966  0.63964  0.87908  1.0000
  O   O32       1.0  0.36035  0.13964  0.62092  1.0000
  O   O33       1.0  0.78398  0.30932  0.92320  1.0000
  O   O34       1.0  0.71602  0.80931  0.57681  1.0000
  O   O35       1.0  0.21605  0.69070  0.07682  1.0000
  O   O36       1.0  0.28395  0.19069  0.42318  1.0000
  O   O37       1.0  0.87807  0.17099  0.87545  1.0000
  O   O38       1.0  0.62193  0.67100  0.62457  1.0000
  O   O39       1.0  0.12192  0.82901  0.12456  1.0000
  O   O40       1.0  0.37810  0.32901  0.37546  1.0000
  O   O41       1.0  0.96813  0.30825  0.82302  1.0000
  O   O42       1.0  0.53187  0.80825  0.67698  1.0000
  O   O43       1.0  0.03189  0.69175  0.17698  1.0000
  O   O44       1.0  0.46810  0.19176  0.32301  1.0000
