data_image0
_chemical_formula_structural       CuH30C24N4O4
_chemical_formula_sum              "Cu1 H30 C24 N4 O4"
_cell_length_a       5.35609
_cell_length_b       9.41101
_cell_length_c       10.5952
_cell_angle_alpha    94.9638
_cell_angle_beta     87.0503
_cell_angle_gamma    89.7208

_space_group_name_H-M_alt    "P 1"
_space_group_IT_number       1

loop_
  _space_group_symop_operation_xyz
  'x, y, z'

loop_
  _atom_site_type_symbol
  _atom_site_label
  _atom_site_symmetry_multiplicity
  _atom_site_fract_x
  _atom_site_fract_y
  _atom_site_fract_z
  _atom_site_occupancy
  Cu  Cu1       1.0  0.50000  0.99999  0.50000  1.0000
  H   H1        1.0  0.91942  0.30472  0.92622  1.0000
  H   H2        1.0  0.08057  0.69528  0.07378  1.0000
  H   H3        1.0  0.61362  0.38284  0.94113  1.0000
  H   H4        1.0  0.38638  0.61716  0.05887  1.0000
  H   H5        1.0  0.75188  0.13838  0.07575  1.0000
  H   H6        1.0  0.24811  0.86162  0.92425  1.0000
  H   H7        1.0  0.25837  0.52010  0.59053  1.0000
  H   H8        1.0  0.74164  0.47989  0.40945  1.0000
  H   H9        1.0  0.72312  0.21987  0.72747  1.0000
  H   H10       1.0  0.27690  0.78013  0.27252  1.0000
  H   H11       1.0  0.88030  0.61132  0.71044  1.0000
  H   H12       1.0  0.11971  0.38868  0.28955  1.0000
  H   H13       1.0  0.63072  0.49276  0.74431  1.0000
  H   H14       1.0  0.36929  0.50723  0.25568  1.0000
  H   H15       1.0  0.99566  0.02534  0.62903  1.0000
  H   H16       1.0  0.00434  0.97466  0.37097  1.0000
  H   H17       1.0  0.31368  0.23153  0.09465  1.0000
  H   H18       1.0  0.68631  0.76847  0.90536  1.0000
  H   H19       1.0  0.20170  0.05945  0.11946  1.0000
  H   H20       1.0  0.79830  0.94055  0.88055  1.0000
  H   H21       1.0  0.84562  0.88550  0.10442  1.0000
  H   H22       1.0  0.15437  0.11450  0.89559  1.0000
  H   H23       1.0  0.52354  0.84986  0.12266  1.0000
  H   H24       1.0  0.47645  0.15015  0.87734  1.0000
  H   H25       1.0  0.20601  0.64608  0.84780  1.0000
  H   H26       1.0  0.79399  0.35393  0.15220  1.0000
  H   H27       1.0  0.27959  0.46505  0.87123  1.0000
  H   H28       1.0  0.72041  0.53496  0.12876  1.0000
  H   H29       1.0  0.50184  0.30734  0.48249  1.0000
  H   H30       1.0  0.49817  0.69264  0.51750  1.0000
  C   C1        1.0  0.81211  0.40435  0.95594  1.0000
  C   C2        1.0  0.18789  0.59565  0.04405  1.0000
  C   C3        1.0  0.60357  0.07289  0.11636  1.0000
  C   C4        1.0  0.39643  0.92712  0.88365  1.0000
  C   C5        1.0  0.19390  0.41154  0.59980  1.0000
  C   C6        1.0  0.80611  0.58842  0.40018  1.0000
  C   C7        1.0  0.89683  0.24690  0.67756  1.0000
  C   C8        1.0  0.10314  0.75310  0.32245  1.0000
  C   C9        1.0  0.83345  0.50924  0.74883  1.0000
  C   C10       1.0  0.16655  0.49075  0.25117  1.0000
  C   C11       1.0  0.04625  0.13620  0.62015  1.0000
  C   C12       1.0  0.95376  0.86376  0.37985  1.0000
  C   C13       1.0  0.35003  0.11703  0.06968  1.0000
  C   C14       1.0  0.64997  0.88297  0.93033  1.0000
  C   C15       1.0  0.66083  0.91544  0.07359  1.0000
  C   C16       1.0  0.33916  0.08457  0.92642  1.0000
  C   C17       1.0  0.15354  0.55656  0.90352  1.0000
  C   C18       1.0  0.84646  0.44344  0.09647  1.0000
  C   C19       1.0  0.60712  0.09906  0.26063  1.0000
  C   C20       1.0  0.39288  0.90094  0.73937  1.0000
  C   C21       1.0  0.33053  0.29594  0.54102  1.0000
  C   C22       1.0  0.66944  0.70406  0.45899  1.0000
  C   C23       1.0  0.97311  0.38839  0.67176  1.0000
  C   C24       1.0  0.02692  0.61161  0.32823  1.0000
  N   N1        1.0  0.26069  0.16039  0.55390  1.0000
  N   N2        1.0  0.73932  0.83960  0.44610  1.0000
  N   N3        1.0  0.89228  0.52230  0.88319  1.0000
  N   N4        1.0  0.10772  0.47770  0.11681  1.0000
  O   O1        1.0  0.74846  0.18872  0.31392  1.0000
  O   O2        1.0  0.25154  0.81129  0.68609  1.0000
  O   O3        1.0  0.45438  0.01760  0.31996  1.0000
  O   O4        1.0  0.54564  0.98240  0.68005  1.0000
