data_image0
_chemical_formula_structural       CuH30C24N4O8
_chemical_formula_sum              "Cu1 H30 C24 N4 O8"
_cell_length_a       6.75447
_cell_length_b       10.8921
_cell_length_c       11.195
_cell_angle_alpha    114.765
_cell_angle_beta     98.9741
_cell_angle_gamma    103.103

_space_group_name_H-M_alt    "P 1"
_space_group_IT_number       1

loop_
  _space_group_symop_operation_xyz
  'x, y, z'

loop_
  _atom_site_type_symbol
  _atom_site_label
  _atom_site_symmetry_multiplicity
  _atom_site_fract_x
  _atom_site_fract_y
  _atom_site_fract_z
  _atom_site_occupancy
  Cu  Cu1       1.0  0.50002  0.00000  0.00002  1.0000
  H   H1        1.0  0.19960  0.54987  0.72633  1.0000
  H   H2        1.0  0.80040  0.45015  0.27368  1.0000
  H   H3        1.0  0.92143  0.46130  0.65058  1.0000
  H   H4        1.0  0.07857  0.53872  0.34943  1.0000
  H   H5        1.0  0.33606  0.42003  0.32622  1.0000
  H   H6        1.0  0.66391  0.57995  0.67375  1.0000
  H   H7        1.0  0.24633  0.36586  0.01921  1.0000
  H   H8        1.0  0.75368  0.63413  0.98078  1.0000
  H   H9        1.0  0.17632  0.48592  0.15545  1.0000
  H   H10       1.0  0.82369  0.51406  0.84455  1.0000
  H   H11       1.0  0.89429  0.29348  0.85963  1.0000
  H   H12       1.0  0.10572  0.70653  0.14038  1.0000
  H   H13       1.0  0.36203  0.10647  0.46378  1.0000
  H   H14       1.0  0.63796  0.89354  0.53624  1.0000
  H   H15       1.0  0.79863  0.30499  0.39371  1.0000
  H   H16       1.0  0.20136  0.69502  0.60629  1.0000
  H   H17       1.0  0.98894  0.28340  0.30151  1.0000
  H   H18       1.0  0.01104  0.71662  0.69848  1.0000
  H   H19       1.0  0.43731  0.27317  0.12292  1.0000
  H   H20       1.0  0.56269  0.72680  0.87706  1.0000
  H   H21       1.0  0.46830  0.97190  0.25145  1.0000
  H   H22       1.0  0.53170  0.02810  0.74858  1.0000
  H   H23       1.0  0.78117  0.49678  0.10588  1.0000
  H   H24       1.0  0.21884  0.50321  0.89413  1.0000
  H   H25       1.0  0.60916  0.38269  0.93918  1.0000
  H   H26       1.0  0.39085  0.61731  0.06082  1.0000
  H   H27       1.0  0.10272  0.93410  0.89264  1.0000
  H   H28       1.0  0.89731  0.06591  0.10732  1.0000
  H   H29       1.0  0.12412  0.08673  0.91804  1.0000
  H   H30       1.0  0.87589  0.91328  0.08194  1.0000
  C   C1        1.0  0.06871  0.51346  0.63537  1.0000
  C   C2        1.0  0.93128  0.48657  0.36464  1.0000
  C   C3        1.0  0.35856  0.32017  0.31417  1.0000
  C   C4        1.0  0.64143  0.67982  0.68582  1.0000
  C   C5        1.0  0.14974  0.43672  0.04341  1.0000
  C   C6        1.0  0.85026  0.56327  0.95659  1.0000
  C   C7        1.0  0.33006  0.27076  0.40891  1.0000
  C   C8        1.0  0.66993  0.72924  0.59109  1.0000
  C   C9        1.0  0.91427  0.34950  0.97166  1.0000
  C   C10       1.0  0.08575  0.65050  0.02835  1.0000
  C   C11       1.0  0.37490  0.14534  0.38921  1.0000
  C   C12       1.0  0.62508  0.85467  0.61080  1.0000
  C   C13       1.0  0.26950  0.35504  0.53454  1.0000
  C   C14       1.0  0.73047  0.64495  0.46546  1.0000
  C   C15       1.0  0.95171  0.36068  0.38763  1.0000
  C   C16       1.0  0.04828  0.63934  0.61238  1.0000
  C   C17       1.0  0.41649  0.23954  0.20018  1.0000
  C   C18       1.0  0.58348  0.76044  0.79982  1.0000
  C   C19       1.0  0.43314  0.07056  0.27288  1.0000
  C   C20       1.0  0.56685  0.92943  0.72714  1.0000
  C   C21       1.0  0.84265  0.22893  0.00797  1.0000
  C   C22       1.0  0.15735  0.77106  0.99201  1.0000
  C   C23       1.0  0.77562  0.44641  0.99649  1.0000
  C   C24       1.0  0.22440  0.55358  0.00351  1.0000
  N   N1        1.0  0.11132  0.41017  0.51673  1.0000
  N   N2        1.0  0.88869  0.58984  0.48327  1.0000
  N   N3        1.0  0.44896  0.11576  0.17834  1.0000
  N   N4        1.0  0.55105  0.88423  0.82167  1.0000
  O   O1        1.0  0.97905  0.17936  0.04424  1.0000
  O   O2        1.0  0.02099  0.82062  0.95573  1.0000
  O   O3        1.0  0.37115  0.37861  0.64893  1.0000
  O   O4        1.0  0.62882  0.62139  0.35109  1.0000
  O   O5        1.0  0.64413  0.18328  0.99643  1.0000
  O   O6        1.0  0.35588  0.81672  0.00359  1.0000
  O   O7        1.0  0.16699  0.00502  0.86338  1.0000
  O   O8        1.0  0.83304  0.99500  0.13661  1.0000
