data_image0
_chemical_formula_structural       Cu2H40C32N4O8
_chemical_formula_sum              "Cu2 H40 C32 N4 O8"
_cell_length_a       8.60009
_cell_length_b       8.7809
_cell_length_c       11.9695
_cell_angle_alpha    96.6001
_cell_angle_beta     104.492
_cell_angle_gamma    106.632

_space_group_name_H-M_alt    "P 1"
_space_group_IT_number       1

loop_
  _space_group_symop_operation_xyz
  'x, y, z'

loop_
  _atom_site_type_symbol
  _atom_site_label
  _atom_site_symmetry_multiplicity
  _atom_site_fract_x
  _atom_site_fract_y
  _atom_site_fract_z
  _atom_site_occupancy
  Cu  Cu1       1.0  0.46880  0.02339  0.39236  1.0000
  Cu  Cu2       1.0  0.53121  0.97661  0.60766  1.0000
  H   H1        1.0  0.48266  0.50181  0.62236  1.0000
  H   H2        1.0  0.51734  0.49820  0.37762  1.0000
  H   H3        1.0  0.22659  0.54668  0.52782  1.0000
  H   H4        1.0  0.77340  0.45332  0.47218  1.0000
  H   H5        1.0  0.27392  0.42883  0.41924  1.0000
  H   H6        1.0  0.72607  0.57120  0.58075  1.0000
  H   H7        1.0  0.96311  0.32732  0.40256  1.0000
  H   H8        1.0  0.03689  0.67270  0.59744  1.0000
  H   H9        1.0  0.05981  0.17877  0.43246  1.0000
  H   H10       1.0  0.94018  0.82123  0.56752  1.0000
  H   H11       1.0  0.99270  0.40439  0.61605  1.0000
  H   H12       1.0  0.00729  0.59562  0.38394  1.0000
  H   H13       1.0  0.13922  0.12720  0.64216  1.0000
  H   H14       1.0  0.86078  0.87281  0.35784  1.0000
  H   H15       1.0  0.08596  0.23193  0.75386  1.0000
  H   H16       1.0  0.91405  0.76808  0.24614  1.0000
  H   H17       1.0  0.29149  0.49508  0.74026  1.0000
  H   H18       1.0  0.70852  0.50494  0.25973  1.0000
  H   H19       1.0  0.39609  0.35296  0.77580  1.0000
  H   H20       1.0  0.60391  0.64704  0.22418  1.0000
  H   H21       1.0  0.69252  0.00220  0.24286  1.0000
  H   H22       1.0  0.30747  0.99779  0.75715  1.0000
  H   H23       1.0  0.79997  0.13991  0.09132  1.0000
  H   H24       1.0  0.20000  0.86008  0.90868  1.0000
  H   H25       1.0  0.36836  0.30899  0.02656  1.0000
  H   H26       1.0  0.63164  0.69102  0.97346  1.0000
  H   H27       1.0  0.28066  0.16775  0.18166  1.0000
  H   H28       1.0  0.71934  0.83225  0.81836  1.0000
  H   H29       1.0  0.60040  0.24097  0.87002  1.0000
  H   H30       1.0  0.39960  0.75902  0.12999  1.0000
  H   H31       1.0  0.59970  0.42487  0.94754  1.0000
  H   H32       1.0  0.40031  0.57513  0.05246  1.0000
  H   H33       1.0  0.88159  0.46631  0.16267  1.0000
  H   H34       1.0  0.11841  0.53367  0.83734  1.0000
  H   H35       1.0  0.87457  0.61716  0.07535  1.0000
  H   H36       1.0  0.12545  0.38282  0.92466  1.0000
  H   H37       1.0  0.84447  0.53680  0.85867  1.0000
  H   H38       1.0  0.15554  0.46318  0.14134  1.0000
  H   H39       1.0  0.83173  0.33273  0.80676  1.0000
  H   H40       1.0  0.16828  0.66725  0.19325  1.0000
  C   C1        1.0  0.41985  0.25109  0.55925  1.0000
  C   C2        1.0  0.58016  0.74891  0.44075  1.0000
  C   C3        1.0  0.36569  0.39566  0.59797  1.0000
  C   C4        1.0  0.63431  0.60435  0.40202  1.0000
  C   C5        1.0  0.23247  0.42549  0.49877  1.0000
  C   C6        1.0  0.76753  0.57452  0.50123  1.0000
  C   C7        1.0  0.05648  0.29807  0.47010  1.0000
  C   C8        1.0  0.94351  0.70193  0.52989  1.0000
  C   C9        1.0  0.99867  0.28448  0.58081  1.0000
  C   C10       1.0  0.00133  0.71553  0.41918  1.0000
  C   C11       1.0  0.12918  0.24531  0.67567  1.0000
  C   C12       1.0  0.87083  0.75470  0.32433  1.0000
  C   C13       1.0  0.30221  0.37775  0.70621  1.0000
  C   C14       1.0  0.69780  0.62226  0.29378  1.0000
  C   C15       1.0  0.81649  0.17095  0.55539  1.0000
  C   C16       1.0  0.18351  0.82905  0.44461  1.0000
  C   C17       1.0  0.62432  0.07158  0.19251  1.0000
  C   C18       1.0  0.37567  0.92843  0.80751  1.0000
  C   C19       1.0  0.68363  0.14768  0.10861  1.0000
  C   C20       1.0  0.31635  0.85230  0.89140  1.0000
  C   C21       1.0  0.59335  0.23704  0.04707  1.0000
  C   C22       1.0  0.40665  0.76296  0.95293  1.0000
  C   C23       1.0  0.44427  0.24174  0.07228  1.0000
  C   C24       1.0  0.55573  0.75827  0.92773  1.0000
  C   C25       1.0  0.39416  0.16264  0.15813  1.0000
  C   C26       1.0  0.60583  0.83737  0.84187  1.0000
  C   C27       1.0  0.65354  0.32412  0.95666  1.0000
  C   C28       1.0  0.34646  0.67587  0.04335  1.0000
  C   C29       1.0  0.91855  0.51095  0.08794  1.0000
  C   C30       1.0  0.08146  0.48903  0.91206  1.0000
  C   C31       1.0  0.88915  0.43432  0.88304  1.0000
  C   C32       1.0  0.11086  0.56566  0.11697  1.0000
  N   N1        1.0  0.48303  0.07948  0.21867  1.0000
  N   N2        1.0  0.51696  0.92051  0.78134  1.0000
  N   N3        1.0  0.83746  0.38134  0.98328  1.0000
  N   N4        1.0  0.16253  0.61864  0.01672  1.0000
  O   O1        1.0  0.47371  0.17917  0.63977  1.0000
  O   O2        1.0  0.52632  0.82086  0.36023  1.0000
  O   O3        1.0  0.41001  0.21572  0.45098  1.0000
  O   O4        1.0  0.58997  0.78426  0.54901  1.0000
  O   O5        1.0  0.77506  0.11105  0.63989  1.0000
  O   O6        1.0  0.22496  0.88894  0.36010  1.0000
  O   O7        1.0  0.71834  0.15076  0.45190  1.0000
  O   O8        1.0  0.28165  0.84926  0.54810  1.0000
