data_image0
_chemical_formula_structural       Zn2H22C34N6O8
_chemical_formula_sum              "Zn2 H22 C34 N6 O8"
_cell_length_a       7.69765
_cell_length_b       9.2335
_cell_length_c       10.5355
_cell_angle_alpha    90.0001
_cell_angle_beta     95.9596
_cell_angle_gamma    90

_space_group_name_H-M_alt    "P 1"
_space_group_IT_number       1

loop_
  _space_group_symop_operation_xyz
  'x, y, z'

loop_
  _atom_site_type_symbol
  _atom_site_label
  _atom_site_symmetry_multiplicity
  _atom_site_fract_x
  _atom_site_fract_y
  _atom_site_fract_z
  _atom_site_occupancy
  Zn  Zn1       1.0  0.45391  0.25725  0.23308  1.0000
  Zn  Zn2       1.0  0.95391  0.74275  0.73308  1.0000
  H   H1        1.0  0.44931  0.34066  0.94050  1.0000
  H   H2        1.0  0.94931  0.65934  0.44050  1.0000
  H   H3        1.0  0.42352  0.20891  0.73274  1.0000
  H   H4        1.0  0.92352  0.79109  0.23274  1.0000
  H   H5        1.0  0.38867  0.93445  0.73540  1.0000
  H   H6        1.0  0.88868  0.06555  0.23540  1.0000
  H   H7        1.0  0.37790  0.81066  0.93990  1.0000
  H   H8        1.0  0.87790  0.18934  0.43990  1.0000
  H   H9        1.0  0.35476  0.72170  0.11995  1.0000
  H   H10       1.0  0.85475  0.27830  0.61995  1.0000
  H   H11       1.0  0.34770  0.63063  0.33795  1.0000
  H   H12       1.0  0.84770  0.36937  0.83795  1.0000
  H   H13       1.0  0.40129  0.80461  0.52447  1.0000
  H   H14       1.0  0.90129  0.19539  0.02447  1.0000
  H   H15       1.0  0.45172  0.06640  0.47517  1.0000
  H   H16       1.0  0.95172  0.93360  0.97517  1.0000
  H   H17       1.0  0.68277  0.41252  0.45111  1.0000
  H   H18       1.0  0.18277  0.58748  0.95111  1.0000
  H   H19       1.0  0.09127  0.43511  0.58746  1.0000
  H   H20       1.0  0.59127  0.56489  0.08746  1.0000
  H   H21       1.0  0.16243  0.28506  0.40241  1.0000
  H   H22       1.0  0.66243  0.71494  0.90241  1.0000
  C   C1        1.0  0.43523  0.22302  0.93736  1.0000
  C   C2        1.0  0.93523  0.77698  0.43736  1.0000
  C   C3        1.0  0.41984  0.14861  0.82134  1.0000
  C   C4        1.0  0.91984  0.85139  0.32133  1.0000
  C   C5        1.0  0.40037  0.99858  0.82265  1.0000
  C   C6        1.0  0.90037  0.00142  0.32265  1.0000
  C   C7        1.0  0.39496  0.92776  0.93916  1.0000
  C   C8        1.0  0.89496  0.07225  0.43916  1.0000
  C   C9        1.0  0.41052  0.00936  0.05164  1.0000
  C   C10       1.0  0.91052  0.99064  0.55164  1.0000
  C   C11       1.0  0.40521  0.94451  0.18014  1.0000
  C   C12       1.0  0.90521  0.05549  0.68014  1.0000
  C   C13       1.0  0.37564  0.79696  0.19955  1.0000
  C   C14       1.0  0.87563  0.20304  0.69955  1.0000
  C   C15       1.0  0.37219  0.74532  0.32346  1.0000
  C   C16       1.0  0.87219  0.25468  0.82346  1.0000
  C   C17       1.0  0.39991  0.84099  0.42606  1.0000
  C   C18       1.0  0.89991  0.15901  0.92606  1.0000
  C   C19       1.0  0.42888  0.98607  0.39936  1.0000
  C   C20       1.0  0.92888  0.01393  0.89936  1.0000
  C   C21       1.0  0.55387  0.41684  0.48578  1.0000
  C   C22       1.0  0.05387  0.58316  0.98578  1.0000
  C   C23       1.0  0.52567  0.50505  0.58915  1.0000
  C   C24       1.0  0.02567  0.49495  0.08915  1.0000
  C   C25       1.0  0.35740  0.51107  0.62933  1.0000
  C   C26       1.0  0.85740  0.48893  0.12933  1.0000
  C   C27       1.0  0.22488  0.42962  0.56232  1.0000
  C   C28       1.0  0.72488  0.57038  0.06232  1.0000
  C   C29       1.0  0.26364  0.34558  0.45955  1.0000
  C   C30       1.0  0.76364  0.65442  0.95955  1.0000
  C   C31       1.0  0.66917  0.60127  0.64745  1.0000
  C   C32       1.0  0.16917  0.39873  0.14746  1.0000
  C   C33       1.0  0.31877  0.59828  0.74398  1.0000
  C   C34       1.0  0.81877  0.40173  0.24398  1.0000
  N   N1        1.0  0.42540  0.33927  0.42090  1.0000
  N   N2        1.0  0.92540  0.66073  0.92090  1.0000
  N   N3        1.0  0.43114  0.15450  0.04898  1.0000
  N   N4        1.0  0.93114  0.84550  0.54898  1.0000
  N   N5        1.0  0.43033  0.03651  0.28022  1.0000
  N   N6        1.0  0.93033  0.96349  0.78022  1.0000
  O   O1        1.0  0.62947  0.72610  0.68388  1.0000
  O   O2        1.0  0.12947  0.27390  0.18388  1.0000
  O   O3        1.0  0.82681  0.55341  0.65496  1.0000
  O   O4        1.0  0.32681  0.44659  0.15497  1.0000
  O   O5        1.0  0.20863  0.70171  0.72140  1.0000
  O   O6        1.0  0.70863  0.29830  0.22140  1.0000
  O   O7        1.0  0.39251  0.56100  0.85032  1.0000
  O   O8        1.0  0.89251  0.43900  0.35032  1.0000
