data_image0
_chemical_formula_structural       Cd4H44C68N12O16
_chemical_formula_sum              "Cd4 H44 C68 N12 O16"
_cell_length_a       7.1004
_cell_length_b       12.1856
_cell_length_c       17.733
_cell_angle_alpha    90
_cell_angle_beta     90
_cell_angle_gamma    97.6198

_space_group_name_H-M_alt    "P 1"
_space_group_IT_number       1

loop_
  _space_group_symop_operation_xyz
  'x, y, z'

loop_
  _atom_site_type_symbol
  _atom_site_label
  _atom_site_symmetry_multiplicity
  _atom_site_fract_x
  _atom_site_fract_y
  _atom_site_fract_z
  _atom_site_occupancy
  Cd  Cd1       1.0  0.72458  0.84050  0.89779  1.0000
  Cd  Cd2       1.0  0.77541  0.65950  0.39778  1.0000
  Cd  Cd3       1.0  0.27541  0.15950  0.10221  1.0000
  Cd  Cd4       1.0  0.22459  0.34050  0.60221  1.0000
  H   H1        1.0  0.49269  0.64138  0.79968  1.0000
  H   H2        1.0  0.00731  0.85862  0.29968  1.0000
  H   H3        1.0  0.50731  0.35862  0.20032  1.0000
  H   H4        1.0  0.99269  0.14138  0.70032  1.0000
  H   H5        1.0  0.06972  0.74746  0.82203  1.0000
  H   H6        1.0  0.43028  0.75254  0.32202  1.0000
  H   H7        1.0  0.93028  0.25254  0.17798  1.0000
  H   H8        1.0  0.56971  0.24746  0.67798  1.0000
  H   H9        1.0  0.29911  0.70676  0.89875  1.0000
  H   H10       1.0  0.20089  0.79323  0.39875  1.0000
  H   H11       1.0  0.70088  0.29324  0.10125  1.0000
  H   H12       1.0  0.79912  0.20677  0.60125  1.0000
  H   H13       1.0  0.12522  0.90723  0.98206  1.0000
  H   H14       1.0  0.37477  0.59276  0.48206  1.0000
  H   H15       1.0  0.87478  0.09276  0.01794  1.0000
  H   H16       1.0  0.62522  0.40724  0.51795  1.0000
  H   H17       1.0  0.80363  0.64461  0.16620  1.0000
  H   H18       1.0  0.69638  0.85539  0.66619  1.0000
  H   H19       1.0  0.19637  0.35539  0.83380  1.0000
  H   H20       1.0  0.30363  0.14461  0.33380  1.0000
  H   H21       1.0  0.54073  0.57722  0.13829  1.0000
  H   H22       1.0  0.95927  0.92278  0.63829  1.0000
  H   H23       1.0  0.45928  0.42278  0.86171  1.0000
  H   H24       1.0  0.04072  0.07722  0.36171  1.0000
  H   H25       1.0  0.21843  0.49703  0.09621  1.0000
  H   H26       1.0  0.28157  0.00297  0.59620  1.0000
  H   H27       1.0  0.78157  0.50297  0.90379  1.0000
  H   H28       1.0  0.71843  0.99703  0.40379  1.0000
  H   H29       1.0  0.15028  0.59209  0.74048  1.0000
  H   H30       1.0  0.34973  0.90792  0.24048  1.0000
  H   H31       1.0  0.84973  0.40792  0.25952  1.0000
  H   H32       1.0  0.65027  0.09208  0.75953  1.0000
  H   H33       1.0  0.13117  0.72802  0.19288  1.0000
  H   H34       1.0  0.36883  0.77198  0.69288  1.0000
  H   H35       1.0  0.86882  0.27198  0.80712  1.0000
  H   H36       1.0  0.63118  0.22802  0.30712  1.0000
  H   H37       1.0  0.09282  0.56078  0.97213  1.0000
  H   H38       1.0  0.40719  0.93922  0.47212  1.0000
  H   H39       1.0  0.90718  0.43922  0.02787  1.0000
  H   H40       1.0  0.59282  0.06079  0.52787  1.0000
  H   H41       1.0  0.29953  0.86758  0.09962  1.0000
  H   H42       1.0  0.20048  0.63242  0.59962  1.0000
  H   H43       1.0  0.70047  0.13242  0.90038  1.0000
  H   H44       1.0  0.79953  0.36758  0.40038  1.0000
  C   C1        1.0  0.63728  0.62836  0.78542  1.0000
  C   C2        1.0  0.86272  0.87163  0.28541  1.0000
  C   C3        1.0  0.36272  0.37163  0.21458  1.0000
  C   C4        1.0  0.13727  0.12836  0.71458  1.0000
  C   C5        1.0  0.59250  0.68173  0.03905  1.0000
  C   C6        1.0  0.90750  0.81827  0.53905  1.0000
  C   C7        1.0  0.40749  0.31827  0.96094  1.0000
  C   C8        1.0  0.09251  0.18173  0.46094  1.0000
  C   C9        1.0  0.85661  0.52896  0.71908  1.0000
  C   C10       1.0  0.64340  0.97104  0.21907  1.0000
  C   C11       1.0  0.14340  0.47103  0.28093  1.0000
  C   C12       1.0  0.35659  0.02896  0.78093  1.0000
  C   C13       1.0  0.66825  0.54276  0.73634  1.0000
  C   C14       1.0  0.83175  0.95724  0.23633  1.0000
  C   C15       1.0  0.33175  0.45724  0.26366  1.0000
  C   C16       1.0  0.16824  0.04276  0.76366  1.0000
  C   C17       1.0  0.95877  0.68660  0.79851  1.0000
  C   C18       1.0  0.54123  0.81340  0.29851  1.0000
  C   C19       1.0  0.04123  0.31340  0.20149  1.0000
  C   C20       1.0  0.45876  0.18660  0.70149  1.0000
  C   C21       1.0  0.78923  0.73072  0.05927  1.0000
  C   C22       1.0  0.71077  0.76927  0.55926  1.0000
  C   C23       1.0  0.21077  0.26928  0.94073  1.0000
  C   C24       1.0  0.28923  0.23072  0.44073  1.0000
  C   C25       1.0  0.34670  0.67305  0.95139  1.0000
  C   C26       1.0  0.15330  0.82695  0.45139  1.0000
  C   C27       1.0  0.65329  0.32696  0.04861  1.0000
  C   C28       1.0  0.84671  0.17305  0.54861  1.0000
  C   C29       1.0  0.05956  0.84999  0.02470  1.0000
  C   C30       1.0  0.44043  0.65001  0.52470  1.0000
  C   C31       1.0  0.94043  0.15002  0.97530  1.0000
  C   C32       1.0  0.55957  0.34998  0.47530  1.0000
  C   C33       1.0  0.87754  0.70258  0.12584  1.0000
  C   C34       1.0  0.62247  0.79741  0.62583  1.0000
  C   C35       1.0  0.12246  0.29742  0.87416  1.0000
  C   C36       1.0  0.37754  0.20259  0.37416  1.0000
  C   C37       1.0  0.48458  0.60290  0.08479  1.0000
  C   C38       1.0  0.01542  0.89709  0.58479  1.0000
  C   C39       1.0  0.51543  0.39710  0.91521  1.0000
  C   C40       1.0  0.98458  0.10291  0.41521  1.0000
  C   C41       1.0  0.30384  0.55794  0.06096  1.0000
  C   C42       1.0  0.19616  0.94206  0.56095  1.0000
  C   C43       1.0  0.69617  0.44206  0.93905  1.0000
  C   C44       1.0  0.80384  0.05794  0.43905  1.0000
  C   C45       1.0  0.00285  0.60267  0.75145  1.0000
  C   C46       1.0  0.49716  0.89733  0.25145  1.0000
  C   C47       1.0  0.99716  0.39733  0.24855  1.0000
  C   C48       1.0  0.50283  0.10267  0.74855  1.0000
  C   C49       1.0  0.06304  0.75082  0.14101  1.0000
  C   C50       1.0  0.43696  0.74918  0.64101  1.0000
  C   C51       1.0  0.93695  0.24918  0.85899  1.0000
  C   C52       1.0  0.56305  0.25082  0.35899  1.0000
  C   C53       1.0  0.23366  0.59274  0.99280  1.0000
  C   C54       1.0  0.26634  0.90725  0.49280  1.0000
  C   C55       1.0  0.76634  0.40726  0.00720  1.0000
  C   C56       1.0  0.73366  0.09275  0.50720  1.0000
  C   C57       1.0  0.15603  0.82604  0.08988  1.0000
  C   C58       1.0  0.34397  0.67396  0.58987  1.0000
  C   C59       1.0  0.84397  0.17397  0.91012  1.0000
  C   C60       1.0  0.65604  0.32604  0.41013  1.0000
  C   C61       1.0  0.49670  0.47322  0.70342  1.0000
  C   C62       1.0  0.00330  0.02677  0.20342  1.0000
  C   C63       1.0  0.50329  0.52677  0.29658  1.0000
  C   C64       1.0  0.99669  0.97323  0.79657  1.0000
  C   C65       1.0  0.91577  0.43622  0.67183  1.0000
  C   C66       1.0  0.58424  0.06378  0.17183  1.0000
  C   C67       1.0  0.08424  0.56378  0.32817  1.0000
  C   C68       1.0  0.41576  0.93622  0.82817  1.0000
  N   N1        1.0  0.77776  0.69902  0.81568  1.0000
  N   N2        1.0  0.72224  0.80098  0.31568  1.0000
  N   N3        1.0  0.22224  0.30097  0.18432  1.0000
  N   N4        1.0  0.27776  0.19902  0.68432  1.0000
  N   N5        1.0  0.88155  0.80351  0.00982  1.0000
  N   N6        1.0  0.61845  0.69649  0.50982  1.0000
  N   N7        1.0  0.11845  0.19649  0.99018  1.0000
  N   N8        1.0  0.38155  0.30351  0.49018  1.0000
  N   N9        1.0  0.52123  0.71550  0.97383  1.0000
  N   N10       1.0  0.97877  0.78450  0.47383  1.0000
  N   N11       1.0  0.47876  0.28450  0.02617  1.0000
  N   N12       1.0  0.02123  0.21550  0.52617  1.0000
  O   O1        1.0  0.51253  0.43955  0.63556  1.0000
  O   O2        1.0  0.98748  0.06045  0.13555  1.0000
  O   O3        1.0  0.48747  0.56044  0.36445  1.0000
  O   O4        1.0  0.01251  0.93956  0.86444  1.0000
  O   O5        1.0  0.34927  0.45545  0.74351  1.0000
  O   O6        1.0  0.15072  0.04455  0.24351  1.0000
  O   O7        1.0  0.65072  0.54455  0.25649  1.0000
  O   O8        1.0  0.84927  0.95545  0.75648  1.0000
  O   O9        1.0  0.02521  0.46788  0.61615  1.0000
  O   O10       1.0  0.47481  0.03212  0.11614  1.0000
  O   O11       1.0  0.97480  0.53212  0.38386  1.0000
  O   O12       1.0  0.52519  0.96788  0.88386  1.0000
  O   O13       1.0  0.87062  0.33805  0.69339  1.0000
  O   O14       1.0  0.62938  0.16195  0.19339  1.0000
  O   O15       1.0  0.12938  0.66195  0.30661  1.0000
  O   O16       1.0  0.37062  0.83805  0.80661  1.0000
