data_image0
_chemical_formula_structural       Na2H72PtC48S4N4O12
_chemical_formula_sum              "Na2 H72 Pt1 C48 S4 N4 O12"
_cell_length_a       10.0208
_cell_length_b       11.8133
_cell_length_c       12.638
_cell_angle_alpha    103.091
_cell_angle_beta     109.603
_cell_angle_gamma    98.8643

_space_group_name_H-M_alt    "P 1"
_space_group_IT_number       1

loop_
  _space_group_symop_operation_xyz
  'x, y, z'

loop_
  _atom_site_type_symbol
  _atom_site_label
  _atom_site_symmetry_multiplicity
  _atom_site_fract_x
  _atom_site_fract_y
  _atom_site_fract_z
  _atom_site_occupancy
  Na  Na1       1.0  0.45784  0.71428  0.26671  1.0000
  Na  Na2       1.0  0.54216  0.28572  0.73329  1.0000
  H   H1        1.0  0.70338  0.87649  0.61925  1.0000
  H   H2        1.0  0.29661  0.12352  0.38074  1.0000
  H   H3        1.0  0.95893  0.94986  0.63574  1.0000
  H   H4        1.0  0.04108  0.05014  0.36426  1.0000
  H   H5        1.0  0.93912  0.83642  0.70184  1.0000
  H   H6        1.0  0.06088  0.16359  0.29815  1.0000
  H   H7        1.0  0.09654  0.79849  0.58950  1.0000
  H   H8        1.0  0.90346  0.20151  0.41050  1.0000
  H   H9        1.0  0.95717  0.79957  0.45884  1.0000
  H   H10       1.0  0.04283  0.20044  0.54116  1.0000
  H   H11       1.0  0.95395  0.58840  0.45828  1.0000
  H   H12       1.0  0.04605  0.41160  0.54172  1.0000
  H   H13       1.0  0.93881  0.61851  0.59667  1.0000
  H   H14       1.0  0.06119  0.38149  0.40333  1.0000
  H   H15       1.0  0.69126  0.51973  0.43229  1.0000
  H   H16       1.0  0.30873  0.48027  0.56771  1.0000
  H   H17       1.0  0.71516  0.63504  0.36793  1.0000
  H   H18       1.0  0.28484  0.36496  0.63207  1.0000
  H   H19       1.0  0.69770  0.66820  0.61057  1.0000
  H   H20       1.0  0.30230  0.33181  0.38943  1.0000
  H   H21       1.0  0.46735  0.80370  0.54878  1.0000
  H   H22       1.0  0.53265  0.19630  0.45121  1.0000
  H   H23       1.0  0.45594  0.67449  0.60051  1.0000
  H   H24       1.0  0.54407  0.32551  0.39949  1.0000
  H   H25       1.0  0.25382  0.55902  0.40185  1.0000
  H   H26       1.0  0.74618  0.44098  0.59815  1.0000
  H   H27       1.0  0.20780  0.68002  0.48529  1.0000
  H   H28       1.0  0.79220  0.31998  0.51471  1.0000
  H   H29       1.0  0.03027  0.68800  0.28665  1.0000
  H   H30       1.0  0.96973  0.31200  0.71335  1.0000
  H   H31       1.0  0.09068  0.56143  0.22837  1.0000
  H   H32       1.0  0.90933  0.43857  0.77163  1.0000
  H   H33       1.0  0.99186  0.67064  0.08313  1.0000
  H   H34       1.0  0.00814  0.32937  0.91687  1.0000
  H   H35       1.0  0.13405  0.80183  0.17404  1.0000
  H   H36       1.0  0.86596  0.19817  0.82596  1.0000
  H   H37       1.0  0.05670  0.63238  0.93135  1.0000
  H   H38       1.0  0.94330  0.36762  0.06865  1.0000
  H   H39       1.0  0.36455  0.59219  0.98644  1.0000
  H   H40       1.0  0.63545  0.40781  0.01356  1.0000
  H   H41       1.0  0.19930  0.47960  0.92972  1.0000
  H   H42       1.0  0.80070  0.52040  0.07028  1.0000
  H   H43       1.0  0.11419  0.53478  0.74534  1.0000
  H   H44       1.0  0.88581  0.46522  0.25466  1.0000
  H   H45       1.0  0.28989  0.50822  0.77265  1.0000
  H   H46       1.0  0.71011  0.49179  0.22735  1.0000
  H   H47       1.0  0.26438  0.69400  0.70761  1.0000
  H   H48       1.0  0.73563  0.30600  0.29239  1.0000
  H   H49       1.0  0.40422  0.72747  0.84860  1.0000
  H   H50       1.0  0.59578  0.27253  0.15140  1.0000
  H   H51       1.0  0.09093  0.75513  0.79997  1.0000
  H   H52       1.0  0.90907  0.24487  0.20003  1.0000
  H   H53       1.0  0.24761  0.87443  0.85024  1.0000
  H   H54       1.0  0.75239  0.12558  0.14976  1.0000
  H   H55       1.0  0.17232  0.84598  0.01145  1.0000
  H   H56       1.0  0.82768  0.15402  0.98855  1.0000
  H   H57       1.0  0.37806  0.99786  0.03821  1.0000
  H   H58       1.0  0.62194  0.00214  0.96179  1.0000
  H   H59       1.0  0.55177  0.97571  0.11533  1.0000
  H   H60       1.0  0.44823  0.02429  0.88467  1.0000
  H   H61       1.0  0.44515  0.09730  0.24374  1.0000
  H   H62       1.0  0.55486  0.90270  0.75626  1.0000
  H   H63       1.0  0.29776  0.96927  0.20093  1.0000
  H   H64       1.0  0.70224  0.03073  0.79908  1.0000
  H   H65       1.0  0.67316  0.09802  0.35894  1.0000
  H   H66       1.0  0.32684  0.90198  0.64106  1.0000
  H   H67       1.0  0.69306  0.95637  0.28696  1.0000
  H   H68       1.0  0.30694  0.04363  0.71304  1.0000
  H   H69       1.0  0.83664  0.02682  0.50385  1.0000
  H   H70       1.0  0.16336  0.97318  0.49614  1.0000
  H   H71       1.0  0.67055  0.02191  0.52906  1.0000
  H   H72       1.0  0.32946  0.97809  0.47093  1.0000
  Pt  Pt1       1.0  1.00000  0.99999  0.00000  1.0000
  C   C1        1.0  0.74455  0.82503  0.55766  1.0000
  C   C2        1.0  0.25545  0.17498  0.44234  1.0000
  C   C3        1.0  0.91152  0.85344  0.61587  1.0000
  C   C4        1.0  0.08848  0.14656  0.38413  1.0000
  C   C5        1.0  0.97729  0.77703  0.54198  1.0000
  C   C6        1.0  0.02271  0.22297  0.45802  1.0000
  C   C7        1.0  0.90945  0.64327  0.51411  1.0000
  C   C8        1.0  0.09055  0.35672  0.48589  1.0000
  C   C9        1.0  0.74313  0.61510  0.45245  1.0000
  C   C10       1.0  0.25687  0.38490  0.54755  1.0000
  C   C11       1.0  0.67722  0.69007  0.52664  1.0000
  C   C12       1.0  0.32278  0.30993  0.47336  1.0000
  C   C13       1.0  0.43813  0.70454  0.52116  1.0000
  C   C14       1.0  0.56187  0.29547  0.47884  1.0000
  C   C15       1.0  0.27974  0.65770  0.43802  1.0000
  C   C16       1.0  0.72026  0.34230  0.56198  1.0000
  C   C17       1.0  0.11351  0.66046  0.25412  1.0000
  C   C18       1.0  0.88649  0.33955  0.74588  1.0000
  C   C19       1.0  0.10558  0.70280  0.14869  1.0000
  C   C20       1.0  0.89442  0.29721  0.85131  1.0000
  C   C21       1.0  0.17646  0.65881  0.98273  1.0000
  C   C22       1.0  0.82354  0.34119  0.01727  1.0000
  C   C23       1.0  0.24786  0.56937  0.92948  1.0000
  C   C24       1.0  0.75214  0.43063  0.07052  1.0000
  C   C25       1.0  0.23071  0.56965  0.80455  1.0000
  C   C26       1.0  0.76929  0.43035  0.19545  1.0000
  C   C27       1.0  0.28500  0.69572  0.79934  1.0000
  C   C28       1.0  0.71500  0.30428  0.20066  1.0000
  C   C29       1.0  0.20978  0.78267  0.85206  1.0000
  C   C30       1.0  0.79022  0.21733  0.14794  1.0000
  C   C31       1.0  0.23295  0.78504  0.97874  1.0000
  C   C32       1.0  0.76705  0.21497  0.02126  1.0000
  C   C33       1.0  0.43513  0.95276  0.10085  1.0000
  C   C34       1.0  0.56487  0.04724  0.89916  1.0000
  C   C35       1.0  0.41362  0.99796  0.21490  1.0000
  C   C36       1.0  0.58638  0.00204  0.78511  1.0000
  C   C37       1.0  0.64816  0.00083  0.34917  1.0000
  C   C38       1.0  0.35184  0.99917  0.65083  1.0000
  C   C39       1.0  0.71869  0.98178  0.46723  1.0000
  C   C40       1.0  0.28131  0.01822  0.53277  1.0000
  C   C41       1.0  0.79106  0.80033  0.99063  1.0000
  C   C42       1.0  0.20893  0.19966  0.00937  1.0000
  C   C43       1.0  0.69318  0.69991  0.98841  1.0000
  C   C44       1.0  0.30681  0.30007  0.01159  1.0000
  C   C45       1.0  0.66062  0.69994  0.08844  1.0000
  C   C46       1.0  0.33938  0.30004  0.91156  1.0000
  C   C47       1.0  0.63074  0.59813  0.88840  1.0000
  C   C48       1.0  0.36926  0.40186  0.11161  1.0000
  S   S1        1.0  0.88019  0.92646  0.10961  1.0000
  S   S2        1.0  0.11980  0.07353  0.89039  1.0000
  S   S3        1.0  0.84303  0.81425  0.87684  1.0000
  S   S4        1.0  0.15696  0.18574  0.12316  1.0000
  N   N1        1.0  0.63595  0.70280  0.17318  1.0000
  N   N2        1.0  0.36405  0.29719  0.82683  1.0000
  N   N3        1.0  0.58124  0.51316  0.80549  1.0000
  N   N4        1.0  0.41875  0.48682  0.19452  1.0000
  O   O1        1.0  0.69546  0.85567  0.44980  1.0000
  O   O2        1.0  0.30454  0.14433  0.55020  1.0000
  O   O3        1.0  0.52279  0.65828  0.45931  1.0000
  O   O4        1.0  0.47721  0.34173  0.54069  1.0000
  O   O5        1.0  0.25697  0.71060  0.34428  1.0000
  O   O6        1.0  0.74303  0.28940  0.65572  1.0000
  O   O7        1.0  0.20203  0.65422  0.10057  1.0000
  O   O8        1.0  0.79797  0.34578  0.89943  1.0000
  O   O9        1.0  0.38586  0.82536  0.05346  1.0000
  O   O10       1.0  0.61415  0.17464  0.94654  1.0000
  O   O11       1.0  0.49319  0.95352  0.30720  1.0000
  O   O12       1.0  0.50681  0.04649  0.69279  1.0000
