data_image0
_chemical_formula_structural       P4H40Au4C52Cl4
_chemical_formula_sum              "P4 H40 Au4 C52 Cl4"
_cell_length_a       11.1602
_cell_length_b       11.2045
_cell_length_c       11.2898
_cell_angle_alpha    86.5126
_cell_angle_beta     70.24
_cell_angle_gamma    70.0414

_space_group_name_H-M_alt    "P 1"
_space_group_IT_number       1

loop_
  _space_group_symop_operation_xyz
  'x, y, z'

loop_
  _atom_site_type_symbol
  _atom_site_label
  _atom_site_symmetry_multiplicity
  _atom_site_fract_x
  _atom_site_fract_y
  _atom_site_fract_z
  _atom_site_occupancy
  P   P1        1.0  0.37094  0.52098  0.71677  1.0000
  P   P2        1.0  0.13005  0.28153  0.47743  1.0000
  P   P3        1.0  0.62906  0.47903  0.28323  1.0000
  P   P4        1.0  0.86995  0.71847  0.52258  1.0000
  H   H1        1.0  0.39296  0.35095  0.91753  1.0000
  H   H2        1.0  0.10767  0.08132  0.64851  1.0000
  H   H3        1.0  0.60704  0.64905  0.08247  1.0000
  H   H4        1.0  0.89232  0.91868  0.35149  1.0000
  H   H5        1.0  0.57081  0.26274  0.01672  1.0000
  H   H6        1.0  0.92917  0.98319  0.73786  1.0000
  H   H7        1.0  0.42919  0.73726  0.98328  1.0000
  H   H8        1.0  0.07083  0.01681  0.26214  1.0000
  H   H9        1.0  0.78090  0.31905  0.93836  1.0000
  H   H10       1.0  0.71897  0.06198  0.68129  1.0000
  H   H11       1.0  0.21910  0.68095  0.06164  1.0000
  H   H12       1.0  0.28103  0.93802  0.31871  1.0000
  H   H13       1.0  0.81168  0.46413  0.76621  1.0000
  H   H14       1.0  0.68825  0.23420  0.53582  1.0000
  H   H15       1.0  0.18832  0.53587  0.23379  1.0000
  H   H16       1.0  0.31175  0.76580  0.46418  1.0000
  H   H17       1.0  0.63493  0.55282  0.66622  1.0000
  H   H18       1.0  0.86546  0.33333  0.44623  1.0000
  H   H19       1.0  0.36507  0.44717  0.33378  1.0000
  H   H20       1.0  0.13454  0.66667  0.55377  1.0000
  H   H21       1.0  0.11583  0.68149  0.88898  1.0000
  H   H22       1.0  0.38555  0.10960  0.31723  1.0000
  H   H23       1.0  0.88417  0.31852  0.11102  1.0000
  H   H24       1.0  0.61445  0.89040  0.68277  1.0000
  H   H25       1.0  0.02205  0.91098  0.95231  1.0000
  H   H26       1.0  0.47880  0.04733  0.08945  1.0000
  H   H27       1.0  0.97795  0.08902  0.04769  1.0000
  H   H28       1.0  0.52120  0.95267  0.91055  1.0000
  H   H29       1.0  0.15682  0.05276  0.85246  1.0000
  H   H30       1.0  0.34245  0.14827  0.94953  1.0000
  H   H31       1.0  0.84318  0.94724  0.14754  1.0000
  H   H32       1.0  0.65754  0.85172  0.05047  1.0000
  H   H33       1.0  0.38072  0.96205  0.68539  1.0000
  H   H34       1.0  0.11782  0.31601  0.04020  1.0000
  H   H35       1.0  0.61928  0.03795  0.31461  1.0000
  H   H36       1.0  0.88217  0.68399  0.95980  1.0000
  H   H37       1.0  0.47345  0.73316  0.61897  1.0000
  H   H38       1.0  0.02532  0.38120  0.26751  1.0000
  H   H39       1.0  0.52656  0.26684  0.38103  1.0000
  H   H40       1.0  0.97467  0.61880  0.73249  1.0000
  Au  Au1       1.0  0.20991  0.43143  0.77195  1.0000
  Au  Au2       1.0  0.29139  0.22633  0.56648  1.0000
  Au  Au3       1.0  0.79009  0.56858  0.22805  1.0000
  Au  Au4       1.0  0.70861  0.77367  0.43352  1.0000
  C   C1        1.0  0.46514  0.50598  0.55573  1.0000
  C   C2        1.0  0.03543  0.44388  0.49334  1.0000
  C   C3        1.0  0.53486  0.49402  0.44427  1.0000
  C   C4        1.0  0.96457  0.55612  0.50667  1.0000
  C   C5        1.0  0.50260  0.45721  0.78656  1.0000
  C   C6        1.0  0.99826  0.21204  0.54147  1.0000
  C   C7        1.0  0.49740  0.54279  0.21344  1.0000
  C   C8        1.0  0.00174  0.78795  0.45853  1.0000
  C   C9        1.0  0.48472  0.37559  0.88492  1.0000
  C   C10       1.0  0.01589  0.11402  0.62376  1.0000
  C   C11       1.0  0.51528  0.62441  0.11508  1.0000
  C   C12       1.0  0.98411  0.88598  0.37625  1.0000
  C   C13       1.0  0.58474  0.32615  0.93995  1.0000
  C   C14       1.0  0.91545  0.05965  0.67388  1.0000
  C   C15       1.0  0.41526  0.67385  0.06005  1.0000
  C   C16       1.0  0.08455  0.94035  0.32612  1.0000
  C   C17       1.0  0.70191  0.35827  0.89659  1.0000
  C   C18       1.0  0.79818  0.10335  0.64177  1.0000
  C   C19       1.0  0.29809  0.64173  0.10340  1.0000
  C   C20       1.0  0.20182  0.89664  0.35823  1.0000
  C   C21       1.0  0.71931  0.44056  0.79914  1.0000
  C   C22       1.0  0.78082  0.20077  0.55918  1.0000
  C   C23       1.0  0.28068  0.55944  0.20086  1.0000
  C   C24       1.0  0.21918  0.79923  0.44082  1.0000
  C   C25       1.0  0.62003  0.49030  0.74369  1.0000
  C   C26       1.0  0.88046  0.25565  0.50881  1.0000
  C   C27       1.0  0.37997  0.50970  0.25631  1.0000
  C   C28       1.0  0.11954  0.74435  0.49119  1.0000
  C   C29       1.0  0.30185  0.69182  0.75204  1.0000
  C   C30       1.0  0.19820  0.24702  0.30785  1.0000
  C   C31       1.0  0.69815  0.30818  0.24796  1.0000
  C   C32       1.0  0.80180  0.75298  0.69215  1.0000
  C   C33       1.0  0.17394  0.74303  0.84457  1.0000
  C   C34       1.0  0.32674  0.15454  0.25649  1.0000
  C   C35       1.0  0.82606  0.25697  0.15542  1.0000
  C   C36       1.0  0.67326  0.84546  0.74351  1.0000
  C   C37       1.0  0.12189  0.87249  0.88069  1.0000
  C   C38       1.0  0.37853  0.11904  0.12795  1.0000
  C   C39       1.0  0.87811  0.12751  0.11930  1.0000
  C   C40       1.0  0.62147  0.88096  0.87205  1.0000
  C   C41       1.0  0.19696  0.95112  0.82503  1.0000
  C   C42       1.0  0.30262  0.17543  0.05036  1.0000
  C   C43       1.0  0.80305  0.04888  0.17497  1.0000
  C   C44       1.0  0.69738  0.82457  0.94964  1.0000
  C   C45       1.0  0.32343  0.90029  0.73095  1.0000
  C   C46       1.0  0.17560  0.26972  0.10127  1.0000
  C   C47       1.0  0.67657  0.09971  0.26905  1.0000
  C   C48       1.0  0.82440  0.73028  0.89874  1.0000
  C   C49       1.0  0.37587  0.77114  0.69413  1.0000
  C   C50       1.0  0.12334  0.30579  0.22955  1.0000
  C   C51       1.0  0.62413  0.22886  0.30587  1.0000
  C   C52       1.0  0.87665  0.69421  0.77045  1.0000
  Cl  Cl1       1.0  0.03369  0.35258  0.84700  1.0000
  Cl  Cl2       1.0  0.46745  0.15291  0.64588  1.0000
  Cl  Cl3       1.0  0.96631  0.64742  0.15300  1.0000
  Cl  Cl4       1.0  0.53255  0.84709  0.35412  1.0000
