data_image0
_chemical_formula_structural       Nd4H12C8S4O20
_chemical_formula_sum              "Nd4 H12 C8 S4 O20"
_cell_length_a       7.97527
_cell_length_b       8.32286
_cell_length_c       9.23557
_cell_angle_alpha    95.1705
_cell_angle_beta     90.0003
_cell_angle_gamma    89.9999

_space_group_name_H-M_alt    "P 1"
_space_group_IT_number       1

loop_
  _space_group_symop_operation_xyz
  'x, y, z'

loop_
  _atom_site_type_symbol
  _atom_site_label
  _atom_site_symmetry_multiplicity
  _atom_site_fract_x
  _atom_site_fract_y
  _atom_site_fract_z
  _atom_site_occupancy
  Nd  Nd1       1.0  0.25018  0.49673  0.43775  1.0000
  Nd  Nd2       1.0  0.75018  0.00327  0.56225  1.0000
  Nd  Nd3       1.0  0.74982  0.50326  0.56225  1.0000
  Nd  Nd4       1.0  0.24982  0.99673  0.43775  1.0000
  H   H1        1.0  0.56469  0.31068  0.13503  1.0000
  H   H2        1.0  0.06469  0.18933  0.86497  1.0000
  H   H3        1.0  0.43532  0.68933  0.86497  1.0000
  H   H4        1.0  0.93531  0.81067  0.13503  1.0000
  H   H5        1.0  0.37834  0.33326  0.03558  1.0000
  H   H6        1.0  0.87834  0.16674  0.96442  1.0000
  H   H7        1.0  0.62166  0.66674  0.96442  1.0000
  H   H8        1.0  0.12166  0.83326  0.03558  1.0000
  H   H9        1.0  0.50587  0.15687  0.99422  1.0000
  H   H10       1.0  0.00587  0.34314  0.00577  1.0000
  H   H11       1.0  0.49413  0.84314  0.00577  1.0000
  H   H12       1.0  0.99413  0.65686  0.99422  1.0000
  C   C1        1.0  0.36250  0.16261  0.19136  1.0000
  C   C2        1.0  0.86250  0.33739  0.80864  1.0000
  C   C3        1.0  0.63750  0.83739  0.80864  1.0000
  C   C4        1.0  0.13750  0.66261  0.19136  1.0000
  C   C5        1.0  0.46002  0.24401  0.08093  1.0000
  C   C6        1.0  0.96002  0.25599  0.91907  1.0000
  C   C7        1.0  0.53998  0.75599  0.91907  1.0000
  C   C8        1.0  0.03998  0.74401  0.08093  1.0000
  S   S1        1.0  0.61764  0.73087  0.31373  1.0000
  S   S2        1.0  0.11764  0.76913  0.68627  1.0000
  S   S3        1.0  0.38236  0.26913  0.68627  1.0000
  S   S4        1.0  0.88235  0.23087  0.31373  1.0000
  O   O1        1.0  0.53063  0.58582  0.37906  1.0000
  O   O2        1.0  0.03063  0.91418  0.62094  1.0000
  O   O3        1.0  0.46936  0.41418  0.62094  1.0000
  O   O4        1.0  0.96936  0.08582  0.37906  1.0000
  O   O5        1.0  0.78776  0.73651  0.39428  1.0000
  O   O6        1.0  0.28776  0.76349  0.60572  1.0000
  O   O7        1.0  0.21224  0.26349  0.60572  1.0000
  O   O8        1.0  0.71223  0.23651  0.39429  1.0000
  O   O9        1.0  0.53149  0.88508  0.38804  1.0000
  O   O10       1.0  0.03149  0.61493  0.61196  1.0000
  O   O11       1.0  0.46851  0.11492  0.61196  1.0000
  O   O12       1.0  0.96851  0.38507  0.38803  1.0000
  O   O13       1.0  0.32888  0.24235  0.31622  1.0000
  O   O14       1.0  0.82888  0.25765  0.68378  1.0000
  O   O15       1.0  0.67112  0.75765  0.68378  1.0000
  O   O16       1.0  0.17112  0.74235  0.31622  1.0000
  O   O17       1.0  0.31334  0.01818  0.17074  1.0000
  O   O18       1.0  0.81334  0.48182  0.82926  1.0000
  O   O19       1.0  0.68667  0.98183  0.82926  1.0000
  O   O20       1.0  0.18666  0.51818  0.17074  1.0000
