data_image0
_chemical_formula_structural       Cu2H32C16N4O8
_chemical_formula_sum              "Cu2 H32 C16 N4 O8"
_cell_length_a       7.68817
_cell_length_b       8.78083
_cell_length_c       9.03329
_cell_angle_alpha    100.226
_cell_angle_beta     91.9217
_cell_angle_gamma    88.3095

_space_group_name_H-M_alt    "P 1"
_space_group_IT_number       1

loop_
  _space_group_symop_operation_xyz
  'x, y, z'

loop_
  _atom_site_type_symbol
  _atom_site_label
  _atom_site_symmetry_multiplicity
  _atom_site_fract_x
  _atom_site_fract_y
  _atom_site_fract_z
  _atom_site_occupancy
  Cu  Cu1       1.0  0.14751  0.27196  0.15192  1.0000
  Cu  Cu2       1.0  0.85250  0.72807  0.84808  1.0000
  H   H1        1.0  0.30599  0.57603  0.32746  1.0000
  H   H2        1.0  0.69402  0.42395  0.67261  1.0000
  H   H3        1.0  0.33855  0.56349  0.13313  1.0000
  H   H4        1.0  0.66148  0.43654  0.86694  1.0000
  H   H5        1.0  0.52438  0.56899  0.25862  1.0000
  H   H6        1.0  0.47564  0.43100  0.74146  1.0000
  H   H7        1.0  0.46647  0.32808  0.98841  1.0000
  H   H8        1.0  0.53354  0.67194  0.01161  1.0000
  H   H9        1.0  0.51889  0.16596  0.07583  1.0000
  H   H10       1.0  0.48113  0.83405  0.92418  1.0000
  H   H11       1.0  0.64727  0.33475  0.12190  1.0000
  H   H12       1.0  0.35274  0.66526  0.87813  1.0000
  H   H13       1.0  0.48620  0.17797  0.32221  1.0000
  H   H14       1.0  0.51378  0.82200  0.67777  1.0000
  H   H15       1.0  0.55060  0.36441  0.41318  1.0000
  H   H16       1.0  0.44941  0.63554  0.58684  1.0000
  H   H17       1.0  0.23844  0.43150  0.48238  1.0000
  H   H18       1.0  0.76156  0.56845  0.51765  1.0000
  H   H19       1.0  0.31553  0.26989  0.55956  1.0000
  H   H20       1.0  0.68446  0.73003  0.44043  1.0000
  H   H21       1.0  0.16734  0.03326  0.48793  1.0000
  H   H22       1.0  0.83263  0.96668  0.51201  1.0000
  H   H23       1.0  0.28225  0.01043  0.31448  1.0000
  H   H24       1.0  0.71772  0.98954  0.68546  1.0000
  H   H25       1.0  0.05372  0.99324  0.30902  1.0000
  H   H26       1.0  0.94625  0.00675  0.69092  1.0000
  H   H27       1.0  0.86768  0.20472  0.37608  1.0000
  H   H28       1.0  0.13231  0.79527  0.62388  1.0000
  H   H29       1.0  0.94519  0.39605  0.41187  1.0000
  H   H30       1.0  0.05481  0.60393  0.58813  1.0000
  H   H31       1.0  0.97054  0.27976  0.55684  1.0000
  H   H32       1.0  0.02944  0.72019  0.44313  1.0000
  C   C1        1.0  0.04533  0.45155  0.92910  1.0000
  C   C2        1.0  0.95467  0.54854  0.07094  1.0000
  C   C3        1.0  0.08954  0.95671  0.98225  1.0000
  C   C4        1.0  0.91048  0.04334  0.01768  1.0000
  C   C5        1.0  0.39081  0.52632  0.23534  1.0000
  C   C6        1.0  0.60921  0.47369  0.76472  1.0000
  C   C7        1.0  0.51481  0.29254  0.09265  1.0000
  C   C8        1.0  0.48520  0.70748  0.90737  1.0000
  C   C9        1.0  0.44097  0.29889  0.35360  1.0000
  C   C10       1.0  0.55903  0.70107  0.64641  1.0000
  C   C11       1.0  0.28386  0.31058  0.45276  1.0000
  C   C12       1.0  0.71613  0.68937  0.54724  1.0000
  C   C13       1.0  0.16277  0.05506  0.37122  1.0000
  C   C14       1.0  0.83720  0.94491  0.62873  1.0000
  C   C15       1.0  0.96997  0.27872  0.43455  1.0000
  C   C16       1.0  0.03002  0.72125  0.56543  1.0000
  N   N1        1.0  0.39293  0.35568  0.21262  1.0000
  N   N2        1.0  0.60708  0.64432  0.78741  1.0000
  N   N3        1.0  0.13887  0.22202  0.37034  1.0000
  N   N4        1.0  0.86112  0.77795  0.62964  1.0000
  O   O1        1.0  0.15139  0.34253  0.95234  1.0000
  O   O2        1.0  0.84864  0.65758  0.04771  1.0000
  O   O3        1.0  0.98919  0.51416  0.19798  1.0000
  O   O4        1.0  0.01079  0.48592  0.80206  1.0000
  O   O5        1.0  0.08409  0.82260  0.89886  1.0000
  O   O6        1.0  0.91593  0.17744  0.10108  1.0000
  O   O7        1.0  0.22672  0.02143  0.03556  1.0000
  O   O8        1.0  0.77329  0.97863  0.96437  1.0000
