data_image0
_chemical_formula_structural       Tb4H28C24O32
_chemical_formula_sum              "Tb4 H28 C24 O32"
_cell_length_a       6.12375
_cell_length_b       10.0843
_cell_length_c       15.3906
_cell_angle_alpha    102.909
_cell_angle_beta     90.0236
_cell_angle_gamma    107.695

_space_group_name_H-M_alt    "P 1"
_space_group_IT_number       1

loop_
  _space_group_symop_operation_xyz
  'x, y, z'

loop_
  _atom_site_type_symbol
  _atom_site_label
  _atom_site_symmetry_multiplicity
  _atom_site_fract_x
  _atom_site_fract_y
  _atom_site_fract_z
  _atom_site_occupancy
  Tb  Tb1       1.0  0.65227  0.18502  0.20426  1.0000
  Tb  Tb2       1.0  0.46773  0.81499  0.29572  1.0000
  Tb  Tb3       1.0  0.34773  0.81498  0.79573  1.0000
  Tb  Tb4       1.0  0.53227  0.18501  0.70428  1.0000
  H   H1        1.0  0.20436  0.49855  0.48577  1.0000
  H   H2        1.0  0.70517  0.50150  0.01415  1.0000
  H   H3        1.0  0.79563  0.50145  0.51423  1.0000
  H   H4        1.0  0.29484  0.49850  0.98585  1.0000
  H   H5        1.0  0.40974  0.42251  0.43475  1.0000
  H   H6        1.0  0.98682  0.57743  0.06513  1.0000
  H   H7        1.0  0.59026  0.57749  0.56525  1.0000
  H   H8        1.0  0.01318  0.42258  0.93487  1.0000
  H   H9        1.0  0.11763  0.19612  0.46064  1.0000
  H   H10       1.0  0.92168  0.80410  0.03943  1.0000
  H   H11       1.0  0.88237  0.80388  0.53936  1.0000
  H   H12       1.0  0.07831  0.19590  0.96057  1.0000
  H   H13       1.0  0.91853  0.28803  0.49283  1.0000
  H   H14       1.0  0.63056  0.71215  0.00710  1.0000
  H   H15       1.0  0.08147  0.71197  0.50717  1.0000
  H   H16       1.0  0.36944  0.28785  0.99290  1.0000
  H   H17       1.0  0.96986  0.45356  0.31614  1.0000
  H   H18       1.0  0.51627  0.54655  0.18384  1.0000
  H   H19       1.0  0.03014  0.54644  0.68386  1.0000
  H   H20       1.0  0.48373  0.45344  0.81616  1.0000
  H   H21       1.0  0.28423  0.05028  0.04567  1.0000
  H   H22       1.0  0.23435  0.94954  0.45432  1.0000
  H   H23       1.0  0.71576  0.94972  0.95433  1.0000
  H   H24       1.0  0.76565  0.05046  0.54568  1.0000
  H   H25       1.0  0.18702  0.12445  0.13780  1.0000
  H   H26       1.0  0.06306  0.87528  0.36216  1.0000
  H   H27       1.0  0.81298  0.87555  0.86220  1.0000
  H   H28       1.0  0.93694  0.12472  0.63784  1.0000
  C   C1        1.0  0.06962  0.32237  0.36977  1.0000
  C   C2        1.0  0.74729  0.67768  0.13017  1.0000
  C   C3        1.0  0.93039  0.67763  0.63023  1.0000
  C   C4        1.0  0.25271  0.32232  0.86983  1.0000
  C   C5        1.0  0.26093  0.45499  0.42058  1.0000
  C   C6        1.0  0.80553  0.54502  0.07935  1.0000
  C   C7        1.0  0.73907  0.54501  0.57942  1.0000
  C   C8        1.0  0.19447  0.45499  0.92065  1.0000
  C   C9        1.0  0.33789  0.57543  0.37265  1.0000
  C   C10       1.0  0.76188  0.42451  0.12722  1.0000
  C   C11       1.0  0.66211  0.42457  0.62735  1.0000
  C   C12       1.0  0.23812  0.57549  0.87278  1.0000
  C   C13       1.0  0.97646  0.22567  0.43442  1.0000
  C   C14       1.0  0.75088  0.77446  0.06556  1.0000
  C   C15       1.0  0.02354  0.77433  0.56558  1.0000
  C   C16       1.0  0.24911  0.22554  0.93444  1.0000
  C   C17       1.0  0.77820  0.09119  0.39790  1.0000
  C   C18       1.0  0.68718  0.90890  0.10206  1.0000
  C   C19       1.0  0.22180  0.90882  0.60209  1.0000
  C   C20       1.0  0.31282  0.09110  0.89794  1.0000
  C   C21       1.0  0.16664  0.23939  0.28960  1.0000
  C   C22       1.0  0.92752  0.76066  0.21035  1.0000
  C   C23       1.0  0.83336  0.76061  0.71040  1.0000
  C   C24       1.0  0.07248  0.23934  0.78965  1.0000
  O   O1        1.0  0.20670  0.57843  0.30772  1.0000
  O   O2        1.0  0.62822  0.42169  0.19229  1.0000
  O   O3        1.0  0.79331  0.42157  0.69228  1.0000
  O   O4        1.0  0.37178  0.57832  0.80771  1.0000
  O   O5        1.0  0.52545  0.67476  0.39794  1.0000
  O   O6        1.0  0.84941  0.32495  0.10177  1.0000
  O   O7        1.0  0.47455  0.32524  0.60206  1.0000
  O   O8        1.0  0.15059  0.67505  0.89823  1.0000
  O   O9        1.0  0.65966  0.07795  0.32629  1.0000
  O   O10       1.0  0.58227  0.92220  0.17373  1.0000
  O   O11       1.0  0.34034  0.92206  0.67371  1.0000
  O   O12       1.0  0.41772  0.07780  0.82627  1.0000
  O   O13       1.0  0.72809  0.98887  0.43724  1.0000
  O   O14       1.0  0.73900  0.01111  0.06263  1.0000
  O   O15       1.0  0.27192  0.01113  0.56276  1.0000
  O   O16       1.0  0.26099  0.98889  0.93737  1.0000
  O   O17       1.0  0.03371  0.18294  0.21810  1.0000
  O   O18       1.0  0.85128  0.81721  0.28183  1.0000
  O   O19       1.0  0.96630  0.81706  0.78190  1.0000
  O   O20       1.0  0.14872  0.18279  0.71817  1.0000
  O   O21       1.0  0.36544  0.23079  0.29924  1.0000
  O   O22       1.0  0.13491  0.76918  0.20074  1.0000
  O   O23       1.0  0.63457  0.76921  0.70076  1.0000
  O   O24       1.0  0.86509  0.23082  0.79927  1.0000
  O   O25       1.0  0.88550  0.36342  0.33600  1.0000
  O   O26       1.0  0.52208  0.63665  0.16395  1.0000
  O   O27       1.0  0.11450  0.63658  0.66400  1.0000
  O   O28       1.0  0.47792  0.36335  0.83605  1.0000
  O   O29       1.0  0.32318  0.10286  0.10979  1.0000
  O   O30       1.0  0.22068  0.89662  0.39030  1.0000
  O   O31       1.0  0.67682  0.89714  0.89021  1.0000
  O   O32       1.0  0.77932  0.10337  0.60970  1.0000
