data_image0
_chemical_formula_structural       Cu4H36C36N8O16
_chemical_formula_sum              "Cu4 H36 C36 N8 O16"
_cell_length_a       8.00899
_cell_length_b       10.1823
_cell_length_c       11.6721
_cell_angle_alpha    98.2678
_cell_angle_beta     90.0001
_cell_angle_gamma    90

_space_group_name_H-M_alt    "P 1"
_space_group_IT_number       1

loop_
  _space_group_symop_operation_xyz
  'x, y, z'

loop_
  _atom_site_type_symbol
  _atom_site_label
  _atom_site_symmetry_multiplicity
  _atom_site_fract_x
  _atom_site_fract_y
  _atom_site_fract_z
  _atom_site_occupancy
  Cu  Cu1       1.0  0.43435  0.44278  0.22350  1.0000
  Cu  Cu2       1.0  0.06564  0.94279  0.22350  1.0000
  Cu  Cu3       1.0  0.56564  0.55721  0.77650  1.0000
  Cu  Cu4       1.0  0.93436  0.05722  0.77651  1.0000
  H   H1        1.0  0.15632  0.35598  0.14001  1.0000
  H   H2        1.0  0.34367  0.85598  0.14001  1.0000
  H   H3        1.0  0.84367  0.64402  0.85999  1.0000
  H   H4        1.0  0.65632  0.14402  0.86000  1.0000
  H   H5        1.0  0.15602  0.62268  0.08347  1.0000
  H   H6        1.0  0.34398  0.12268  0.08347  1.0000
  H   H7        1.0  0.84399  0.37732  0.91653  1.0000
  H   H8        1.0  0.65602  0.87731  0.91653  1.0000
  H   H9        1.0  0.00106  0.54218  0.15631  1.0000
  H   H10       1.0  0.49894  0.04217  0.15631  1.0000
  H   H11       1.0  0.99894  0.45783  0.84369  1.0000
  H   H12       1.0  0.50106  0.95783  0.84369  1.0000
  H   H13       1.0  0.28678  0.49120  0.95840  1.0000
  H   H14       1.0  0.21323  0.99121  0.95841  1.0000
  H   H15       1.0  0.71323  0.50879  0.04160  1.0000
  H   H16       1.0  0.78677  0.00879  0.04160  1.0000
  H   H17       1.0  0.19248  0.33120  0.95178  1.0000
  H   H18       1.0  0.30752  0.83120  0.95178  1.0000
  H   H19       1.0  0.80753  0.66880  0.04822  1.0000
  H   H20       1.0  0.69248  0.16880  0.04823  1.0000
  H   H21       1.0  0.95660  0.12798  0.42527  1.0000
  H   H22       1.0  0.54340  0.62798  0.42527  1.0000
  H   H23       1.0  0.04340  0.87201  0.57473  1.0000
  H   H24       1.0  0.45660  0.37202  0.57473  1.0000
  H   H25       1.0  0.71524  0.16051  0.55382  1.0000
  H   H26       1.0  0.78476  0.66050  0.55381  1.0000
  H   H27       1.0  0.28475  0.83950  0.44618  1.0000
  H   H28       1.0  0.21525  0.33949  0.44618  1.0000
  H   H29       1.0  0.48698  0.82066  0.34290  1.0000
  H   H30       1.0  0.01301  0.32066  0.34291  1.0000
  H   H31       1.0  0.51301  0.17934  0.65709  1.0000
  H   H32       1.0  0.98698  0.67934  0.65709  1.0000
  H   H33       1.0  0.73812  0.80595  0.22223  1.0000
  H   H34       1.0  0.76188  0.30595  0.22223  1.0000
  H   H35       1.0  0.26188  0.19405  0.77777  1.0000
  H   H36       1.0  0.23812  0.69405  0.77777  1.0000
  C   C1        1.0  0.13596  0.55981  0.15096  1.0000
  C   C2        1.0  0.36404  0.05981  0.15096  1.0000
  C   C3        1.0  0.86404  0.44019  0.84904  1.0000
  C   C4        1.0  0.63596  0.94019  0.84904  1.0000
  C   C5        1.0  0.19378  0.63805  0.26573  1.0000
  C   C6        1.0  0.30622  0.13805  0.26574  1.0000
  C   C7        1.0  0.80622  0.36195  0.73426  1.0000
  C   C8        1.0  0.69378  0.86195  0.73426  1.0000
  C   C9        1.0  0.28100  0.40102  0.99974  1.0000
  C   C10       1.0  0.21900  0.90102  0.99974  1.0000
  C   C11       1.0  0.71900  0.59897  0.00026  1.0000
  C   C12       1.0  0.78100  0.09897  0.00026  1.0000
  C   C13       1.0  0.45384  0.33802  0.98919  1.0000
  C   C14       1.0  0.04615  0.83803  0.98919  1.0000
  C   C15       1.0  0.54616  0.66197  0.01082  1.0000
  C   C16       1.0  0.95384  0.16198  0.01082  1.0000
  C   C17       1.0  0.84805  0.06383  0.40948  1.0000
  C   C18       1.0  0.65195  0.56383  0.40947  1.0000
  C   C19       1.0  0.15195  0.93617  0.59052  1.0000
  C   C20       1.0  0.34805  0.43617  0.59053  1.0000
  C   C21       1.0  0.70952  0.08068  0.48121  1.0000
  C   C22       1.0  0.79048  0.58068  0.48121  1.0000
  C   C23       1.0  0.29048  0.91932  0.51879  1.0000
  C   C24       1.0  0.20952  0.41932  0.51879  1.0000
  C   C25       1.0  0.57366  0.99354  0.46141  1.0000
  C   C26       1.0  0.92634  0.49354  0.46141  1.0000
  C   C27       1.0  0.42634  0.00645  0.53859  1.0000
  C   C28       1.0  0.07366  0.50645  0.53859  1.0000
  C   C29       1.0  0.58575  0.89324  0.36553  1.0000
  C   C30       1.0  0.91425  0.39323  0.36553  1.0000
  C   C31       1.0  0.41425  0.10676  0.63446  1.0000
  C   C32       1.0  0.08575  0.60676  0.63446  1.0000
  C   C33       1.0  0.72807  0.88300  0.29674  1.0000
  C   C34       1.0  0.77193  0.38300  0.29674  1.0000
  C   C35       1.0  0.27194  0.11700  0.70326  1.0000
  C   C36       1.0  0.22806  0.61700  0.70326  1.0000
  N   N1        1.0  0.22916  0.43452  0.12184  1.0000
  N   N2        1.0  0.27084  0.93452  0.12185  1.0000
  N   N3        1.0  0.77084  0.56548  0.87816  1.0000
  N   N4        1.0  0.72916  0.06548  0.87816  1.0000
  N   N5        1.0  0.85854  0.96670  0.31807  1.0000
  N   N6        1.0  0.64147  0.46670  0.31807  1.0000
  N   N7        1.0  0.14147  0.03329  0.68193  1.0000
  N   N8        1.0  0.35854  0.53329  0.68193  1.0000
  O   O1        1.0  0.31332  0.58745  0.31957  1.0000
  O   O2        1.0  0.18668  0.08745  0.31957  1.0000
  O   O3        1.0  0.68669  0.41255  0.68043  1.0000
  O   O4        1.0  0.81332  0.91255  0.68043  1.0000
  O   O5        1.0  0.12529  0.74613  0.30284  1.0000
  O   O6        1.0  0.37472  0.24614  0.30284  1.0000
  O   O7        1.0  0.87473  0.25387  0.69715  1.0000
  O   O8        1.0  0.62527  0.75388  0.69714  1.0000
  O   O9        1.0  0.54124  0.34307  0.08314  1.0000
  O   O10       1.0  0.95876  0.84307  0.08314  1.0000
  O   O11       1.0  0.45876  0.65693  0.91686  1.0000
  O   O12       1.0  0.04124  0.15693  0.91687  1.0000
  O   O13       1.0  0.50427  0.28669  0.89137  1.0000
  O   O14       1.0  0.99573  0.78670  0.89137  1.0000
  O   O15       1.0  0.49573  0.71330  0.10864  1.0000
  O   O16       1.0  0.00427  0.21331  0.10863  1.0000
