data_image0
_chemical_formula_structural       Fe2P4H22C20N4O14
_chemical_formula_sum              "Fe2 P4 H22 C20 N4 O14"
_cell_length_a       6.46418
_cell_length_b       10.4638
_cell_length_c       10.5755
_cell_angle_alpha    113.384
_cell_angle_beta     90.0003
_cell_angle_gamma    89.9997

_space_group_name_H-M_alt    "P 1"
_space_group_IT_number       1

loop_
  _space_group_symop_operation_xyz
  'x, y, z'

loop_
  _atom_site_type_symbol
  _atom_site_label
  _atom_site_symmetry_multiplicity
  _atom_site_fract_x
  _atom_site_fract_y
  _atom_site_fract_z
  _atom_site_occupancy
  Fe  Fe1       1.0  0.75000  0.83990  0.31151  1.0000
  Fe  Fe2       1.0  0.25000  0.16008  0.68850  1.0000
  P   P1        1.0  0.75000  0.07061  0.63409  1.0000
  P   P2        1.0  0.25000  0.92936  0.36594  1.0000
  P   P3        1.0  0.75000  0.62736  0.48338  1.0000
  P   P4        1.0  0.25000  0.37264  0.51663  1.0000
  H   H1        1.0  0.75000  0.95209  0.66631  1.0000
  H   H2        1.0  0.25000  0.04792  0.33366  1.0000
  H   H3        1.0  0.06053  0.62077  0.57444  1.0000
  H   H4        1.0  0.56053  0.37923  0.42556  1.0000
  H   H5        1.0  0.93947  0.37923  0.42556  1.0000
  H   H6        1.0  0.43947  0.62077  0.57444  1.0000
  H   H7        1.0  0.75000  0.66623  0.77112  1.0000
  H   H8        1.0  0.25000  0.33376  0.22889  1.0000
  H   H9        1.0  0.75000  0.27373  0.17780  1.0000
  H   H10       1.0  0.25000  0.72626  0.82220  1.0000
  H   H11       1.0  0.75000  0.14238  0.33185  1.0000
  H   H12       1.0  0.25000  0.85762  0.66815  1.0000
  H   H13       1.0  0.75000  0.51038  0.15240  1.0000
  H   H14       1.0  0.25000  0.48962  0.84761  1.0000
  H   H15       1.0  0.75000  0.87639  0.83000  1.0000
  H   H16       1.0  0.25000  0.12362  0.17001  1.0000
  H   H17       1.0  0.75000  0.13458  0.91975  1.0000
  H   H18       1.0  0.25000  0.86541  0.08026  1.0000
  H   H19       1.0  0.75000  0.32978  0.90612  1.0000
  H   H20       1.0  0.25000  0.67024  0.09388  1.0000
  H   H21       1.0  0.75000  0.40989  0.71506  1.0000
  H   H22       1.0  0.25000  0.59012  0.28495  1.0000
  C   C1        1.0  0.75000  0.62802  0.85280  1.0000
  C   C2        1.0  0.25000  0.37197  0.14719  1.0000
  C   C3        1.0  0.75000  0.16035  0.13318  1.0000
  C   C4        1.0  0.25000  0.83965  0.86681  1.0000
  C   C5        1.0  0.75000  0.08928  0.22013  1.0000
  C   C6        1.0  0.25000  0.91073  0.77987  1.0000
  C   C7        1.0  0.75000  0.72144  0.99110  1.0000
  C   C8        1.0  0.25000  0.27855  0.00888  1.0000
  C   C9        1.0  0.75000  0.53908  0.06398  1.0000
  C   C10       1.0  0.25000  0.46091  0.93601  1.0000
  C   C11       1.0  0.75000  0.93841  0.94043  1.0000
  C   C12       1.0  0.25000  0.06161  0.05956  1.0000
  C   C13       1.0  0.75000  0.87385  0.03375  1.0000
  C   C14       1.0  0.25000  0.12617  0.96624  1.0000
  C   C15       1.0  0.75000  0.08307  0.99120  1.0000
  C   C16       1.0  0.25000  0.91694  0.00880  1.0000
  C   C17       1.0  0.75000  0.44040  0.92885  1.0000
  C   C18       1.0  0.25000  0.55961  0.07113  1.0000
  C   C19       1.0  0.75000  0.48558  0.82146  1.0000
  C   C20       1.0  0.25000  0.51442  0.17854  1.0000
  N   N1        1.0  0.75000  0.67615  0.09431  1.0000
  N   N2        1.0  0.25000  0.32384  0.90566  1.0000
  N   N3        1.0  0.75000  0.95006  0.17094  1.0000
  N   N4        1.0  0.25000  0.04996  0.82906  1.0000
  O   O1        1.0  0.75000  0.68411  0.37142  1.0000
  O   O2        1.0  0.25000  0.31589  0.62858  1.0000
  O   O3        1.0  0.75000  0.01523  0.47589  1.0000
  O   O4        1.0  0.25000  0.98482  0.52417  1.0000
  O   O5        1.0  0.94226  0.15739  0.70070  1.0000
  O   O6        1.0  0.44230  0.84258  0.29930  1.0000
  O   O7        1.0  0.05770  0.84258  0.29930  1.0000
  O   O8        1.0  0.55774  0.15739  0.70070  1.0000
  O   O9        1.0  0.75000  0.46759  0.42542  1.0000
  O   O10       1.0  0.25000  0.53242  0.57458  1.0000
  O   O11       1.0  0.94105  0.68800  0.58183  1.0000
  O   O12       1.0  0.44106  0.31200  0.41817  1.0000
  O   O13       1.0  0.05895  0.31200  0.41816  1.0000
  O   O14       1.0  0.55894  0.68800  0.58183  1.0000
