data_image0
_chemical_formula_structural       Cu16H64C32S8I16
_chemical_formula_sum              "Cu16 H64 C32 S8 I16"
_cell_length_a       11.5133
_cell_length_b       11.6772
_cell_length_c       13.3762
_cell_angle_alpha    90
_cell_angle_beta     90
_cell_angle_gamma    90

_space_group_name_H-M_alt    "P 1"
_space_group_IT_number       1

loop_
  _space_group_symop_operation_xyz
  'x, y, z'

loop_
  _atom_site_type_symbol
  _atom_site_label
  _atom_site_symmetry_multiplicity
  _atom_site_fract_x
  _atom_site_fract_y
  _atom_site_fract_z
  _atom_site_occupancy
  Cu  Cu1       1.0  0.50721  0.25892  0.79395  1.0000
  Cu  Cu2       1.0  0.99279  0.74108  0.29394  1.0000
  Cu  Cu3       1.0  0.49279  0.75892  0.70605  1.0000
  Cu  Cu4       1.0  0.00721  0.24108  0.20606  1.0000
  Cu  Cu5       1.0  0.30731  0.24586  0.88290  1.0000
  Cu  Cu6       1.0  0.19269  0.75414  0.38289  1.0000
  Cu  Cu7       1.0  0.69269  0.74586  0.61711  1.0000
  Cu  Cu8       1.0  0.80731  0.25414  0.11711  1.0000
  Cu  Cu9       1.0  0.43071  0.05621  0.85395  1.0000
  Cu  Cu10      1.0  0.06929  0.94379  0.35395  1.0000
  Cu  Cu11      1.0  0.56929  0.55621  0.64605  1.0000
  Cu  Cu12      1.0  0.93071  0.44379  0.14605  1.0000
  Cu  Cu13      1.0  0.50389  0.20332  0.98186  1.0000
  Cu  Cu14      1.0  0.99611  0.79668  0.48186  1.0000
  Cu  Cu15      1.0  0.49611  0.70332  0.51814  1.0000
  Cu  Cu16      1.0  0.00389  0.29668  0.01814  1.0000
  H   H1        1.0  0.50748  0.23982  0.55494  1.0000
  H   H2        1.0  0.99252  0.76018  0.05494  1.0000
  H   H3        1.0  0.49252  0.73982  0.94506  1.0000
  H   H4        1.0  0.00748  0.26018  0.44506  1.0000
  H   H5        1.0  0.59262  0.35015  0.49481  1.0000
  H   H6        1.0  0.90738  0.64985  0.99481  1.0000
  H   H7        1.0  0.40738  0.85014  0.00518  1.0000
  H   H8        1.0  0.09262  0.14985  0.50519  1.0000
  H   H9        1.0  0.71468  0.17540  0.48114  1.0000
  H   H10       1.0  0.78532  0.82460  0.98114  1.0000
  H   H11       1.0  0.28532  0.67539  0.01886  1.0000
  H   H12       1.0  0.21468  0.32460  0.51886  1.0000
  H   H13       1.0  0.68156  0.13730  0.60649  1.0000
  H   H14       1.0  0.81844  0.86270  0.10649  1.0000
  H   H15       1.0  0.31844  0.63730  0.89351  1.0000
  H   H16       1.0  0.18156  0.36270  0.39351  1.0000
  H   H17       1.0  0.87451  0.23182  0.61082  1.0000
  H   H18       1.0  0.62549  0.76818  0.11082  1.0000
  H   H19       1.0  0.12549  0.73182  0.88917  1.0000
  H   H20       1.0  0.37451  0.26818  0.38918  1.0000
  H   H21       1.0  0.82125  0.34720  0.53712  1.0000
  H   H22       1.0  0.67875  0.65280  0.03712  1.0000
  H   H23       1.0  0.17875  0.84720  0.96288  1.0000
  H   H24       1.0  0.32125  0.15280  0.46289  1.0000
  H   H25       1.0  0.79384  0.42983  0.70001  1.0000
  H   H26       1.0  0.70617  0.57017  0.20001  1.0000
  H   H27       1.0  0.20616  0.92983  0.79999  1.0000
  H   H28       1.0  0.29384  0.07017  0.29999  1.0000
  H   H29       1.0  0.76631  0.29332  0.75650  1.0000
  H   H30       1.0  0.73369  0.70668  0.25650  1.0000
  H   H31       1.0  0.23369  0.79332  0.74350  1.0000
  H   H32       1.0  0.26631  0.20668  0.24350  1.0000
  H   H33       1.0  0.08393  0.20867  0.73669  1.0000
  H   H34       1.0  0.41607  0.79133  0.23669  1.0000
  H   H35       1.0  0.91607  0.70867  0.76331  1.0000
  H   H36       1.0  0.58393  0.29133  0.26331  1.0000
  H   H37       1.0  0.95553  0.27740  0.78508  1.0000
  H   H38       1.0  0.54447  0.72260  0.28509  1.0000
  H   H39       1.0  0.04447  0.77741  0.71491  1.0000
  H   H40       1.0  0.45553  0.22260  0.21491  1.0000
  H   H41       1.0  0.15811  0.38854  0.67001  1.0000
  H   H42       1.0  0.34189  0.61146  0.17001  1.0000
  H   H43       1.0  0.84189  0.88854  0.82999  1.0000
  H   H44       1.0  0.65811  0.11146  0.32999  1.0000
  H   H45       1.0  0.00898  0.39456  0.63644  1.0000
  H   H46       1.0  0.49102  0.60545  0.13644  1.0000
  H   H47       1.0  0.99102  0.89456  0.86356  1.0000
  H   H48       1.0  0.50898  0.10545  0.36356  1.0000
  H   H49       1.0  0.96537  0.50891  0.78929  1.0000
  H   H50       1.0  0.53462  0.49109  0.28929  1.0000
  H   H51       1.0  0.03463  0.00891  0.71071  1.0000
  H   H52       1.0  0.46537  0.99109  0.21072  1.0000
  H   H53       1.0  0.08645  0.57511  0.72912  1.0000
  H   H54       1.0  0.41355  0.42489  0.22911  1.0000
  H   H55       1.0  0.91355  0.07511  0.77089  1.0000
  H   H56       1.0  0.58645  0.92489  0.27089  1.0000
  H   H57       1.0  0.10211  0.51856  0.92754  1.0000
  H   H58       1.0  0.39789  0.48144  0.42754  1.0000
  H   H59       1.0  0.89789  0.01856  0.57246  1.0000
  H   H60       1.0  0.60211  0.98143  0.07246  1.0000
  H   H61       1.0  0.22331  0.49355  0.84620  1.0000
  H   H62       1.0  0.27669  0.50645  0.34620  1.0000
  H   H63       1.0  0.77669  0.99355  0.65380  1.0000
  H   H64       1.0  0.72330  0.00645  0.15381  1.0000
  C   C1        1.0  0.59013  0.28658  0.55538  1.0000
  C   C2        1.0  0.90987  0.71342  0.05538  1.0000
  C   C3        1.0  0.40987  0.78658  0.94462  1.0000
  C   C4        1.0  0.09013  0.21342  0.44462  1.0000
  C   C5        1.0  0.69698  0.20997  0.55604  1.0000
  C   C6        1.0  0.80302  0.79003  0.05604  1.0000
  C   C7        1.0  0.30302  0.70996  0.94396  1.0000
  C   C8        1.0  0.19698  0.29003  0.44397  1.0000
  C   C9        1.0  0.79722  0.28373  0.59428  1.0000
  C   C10       1.0  0.70278  0.71627  0.09428  1.0000
  C   C11       1.0  0.20278  0.78373  0.90572  1.0000
  C   C12       1.0  0.29722  0.21627  0.40572  1.0000
  C   C13       1.0  0.75525  0.34499  0.68860  1.0000
  C   C14       1.0  0.74475  0.65501  0.18860  1.0000
  C   C15       1.0  0.24475  0.84499  0.81140  1.0000
  C   C16       1.0  0.25525  0.15501  0.31140  1.0000
  C   C17       1.0  0.04766  0.28846  0.76652  1.0000
  C   C18       1.0  0.45234  0.71154  0.26652  1.0000
  C   C19       1.0  0.95234  0.78846  0.73348  1.0000
  C   C20       1.0  0.54766  0.21154  0.23348  1.0000
  C   C21       1.0  0.06923  0.39224  0.70014  1.0000
  C   C22       1.0  0.43077  0.60776  0.20014  1.0000
  C   C23       1.0  0.93078  0.89224  0.79986  1.0000
  C   C24       1.0  0.56922  0.10776  0.29986  1.0000
  C   C25       1.0  0.05680  0.49717  0.76741  1.0000
  C   C26       1.0  0.44320  0.50283  0.26740  1.0000
  C   C27       1.0  0.94320  0.99717  0.73259  1.0000
  C   C28       1.0  0.55680  0.00283  0.23260  1.0000
  C   C29       1.0  0.13125  0.47462  0.85961  1.0000
  C   C30       1.0  0.36875  0.52538  0.35960  1.0000
  C   C31       1.0  0.86875  0.97462  0.64039  1.0000
  C   C32       1.0  0.63125  0.02538  0.14040  1.0000
  S   S1        1.0  0.59774  0.36540  0.67382  1.0000
  S   S2        1.0  0.90226  0.63460  0.17381  1.0000
  S   S3        1.0  0.40226  0.86540  0.82618  1.0000
  S   S4        1.0  0.09774  0.13460  0.32619  1.0000
  S   S5        1.0  0.12292  0.31968  0.88420  1.0000
  S   S6        1.0  0.37708  0.68032  0.38420  1.0000
  S   S7        1.0  0.87708  0.81968  0.61580  1.0000
  S   S8        1.0  0.62292  0.18031  0.11580  1.0000
  I   I1        1.0  0.32764  0.15908  0.69781  1.0000
  I   I2        1.0  0.17236  0.84091  0.19780  1.0000
  I   I3        1.0  0.67236  0.65909  0.80219  1.0000
  I   I4        1.0  0.82764  0.34091  0.30219  1.0000
  I   I5        1.0  0.45379  0.41502  0.93575  1.0000
  I   I6        1.0  0.04621  0.58498  0.43575  1.0000
  I   I7        1.0  0.54621  0.91502  0.56425  1.0000
  I   I8        1.0  0.95379  0.08498  0.06425  1.0000
  I   I9        1.0  0.31017  0.08651  0.02635  1.0000
  I   I10       1.0  0.18984  0.91348  0.52634  1.0000
  I   I11       1.0  0.68984  0.58651  0.47366  1.0000
  I   I12       1.0  0.81016  0.41348  0.97366  1.0000
  I   I13       1.0  0.65652  0.09282  0.85333  1.0000
  I   I14       1.0  0.84348  0.90718  0.35333  1.0000
  I   I15       1.0  0.34348  0.59282  0.64667  1.0000
  I   I16       1.0  0.15652  0.40718  0.14666  1.0000
