data_image0
_chemical_formula_structural       Cu2H24C16N16Cl4
_chemical_formula_sum              "Cu2 H24 C16 N16 Cl4"
_cell_length_a       8.44407
_cell_length_b       8.68701
_cell_length_c       9.60259
_cell_angle_alpha    90.0001
_cell_angle_beta     105.292
_cell_angle_gamma    90.0004

_space_group_name_H-M_alt    "P 1"
_space_group_IT_number       1

loop_
  _space_group_symop_operation_xyz
  'x, y, z'

loop_
  _atom_site_type_symbol
  _atom_site_label
  _atom_site_symmetry_multiplicity
  _atom_site_fract_x
  _atom_site_fract_y
  _atom_site_fract_z
  _atom_site_occupancy
  Cu  Cu1       1.0  0.00001  0.50000  0.50000  1.0000
  Cu  Cu2       1.0  1.00000  0.00000  1.00000  1.0000
  H   H1        1.0  0.12655  0.74940  0.79567  1.0000
  H   H2        1.0  0.87345  0.24939  0.70433  1.0000
  H   H3        1.0  0.87345  0.25061  0.20433  1.0000
  H   H4        1.0  0.12656  0.75061  0.29568  1.0000
  H   H5        1.0  0.61808  0.65332  0.46915  1.0000
  H   H6        1.0  0.38192  0.15331  0.03085  1.0000
  H   H7        1.0  0.38192  0.34668  0.53085  1.0000
  H   H8        1.0  0.61809  0.84669  0.96916  1.0000
  H   H9        1.0  0.50993  0.79133  0.54558  1.0000
  H   H10       1.0  0.49007  0.29133  0.95442  1.0000
  H   H11       1.0  0.49007  0.20867  0.45442  1.0000
  H   H12       1.0  0.50994  0.70868  0.04559  1.0000
  H   H13       1.0  0.48603  0.86575  0.28832  1.0000
  H   H14       1.0  0.51396  0.36575  0.21168  1.0000
  H   H15       1.0  0.51396  0.13425  0.71167  1.0000
  H   H16       1.0  0.48603  0.63425  0.78833  1.0000
  H   H17       1.0  0.82727  0.00220  0.43736  1.0000
  H   H18       1.0  0.17272  0.50219  0.06261  1.0000
  H   H19       1.0  0.17271  0.99781  0.56261  1.0000
  H   H20       1.0  0.82728  0.49781  0.93739  1.0000
  H   H21       1.0  0.68987  0.05154  0.25794  1.0000
  H   H22       1.0  0.31011  0.55154  0.24204  1.0000
  H   H23       1.0  0.31011  0.94845  0.74204  1.0000
  H   H24       1.0  0.68988  0.44846  0.75796  1.0000
  C   C1        1.0  0.00013  0.78263  0.74907  1.0000
  C   C2        1.0  0.99987  0.28262  0.75093  1.0000
  C   C3        1.0  0.99987  0.21738  0.25093  1.0000
  C   C4        1.0  0.00015  0.71738  0.24908  1.0000
  C   C5        1.0  0.61497  0.77546  0.49957  1.0000
  C   C6        1.0  0.38503  0.27545  0.00043  1.0000
  C   C7        1.0  0.38503  0.22454  0.50043  1.0000
  C   C8        1.0  0.61497  0.72455  0.99958  1.0000
  C   C9        1.0  0.60140  0.87922  0.37233  1.0000
  C   C10       1.0  0.39860  0.37922  0.12766  1.0000
  C   C11       1.0  0.39859  0.12078  0.62766  1.0000
  C   C12       1.0  0.60140  0.62078  0.87235  1.0000
  C   C13       1.0  0.71205  0.98216  0.35564  1.0000
  C   C14       1.0  0.28794  0.48215  0.14434  1.0000
  C   C15       1.0  0.28793  0.01784  0.64434  1.0000
  C   C16       1.0  0.71205  0.51785  0.85566  1.0000
  N   N1        1.0  0.90372  0.72676  0.62719  1.0000
  N   N2        1.0  0.09628  0.22675  0.87280  1.0000
  N   N3        1.0  0.09628  0.27324  0.37280  1.0000
  N   N4        1.0  0.90372  0.77325  0.12720  1.0000
  N   N5        1.0  0.76255  0.80091  0.61664  1.0000
  N   N6        1.0  0.23745  0.30090  0.88336  1.0000
  N   N7        1.0  0.23745  0.19910  0.38336  1.0000
  N   N8        1.0  0.76256  0.69910  0.11665  1.0000
  N   N9        1.0  0.76708  0.89853  0.72276  1.0000
  N   N10       1.0  0.23292  0.39853  0.77723  1.0000
  N   N11       1.0  0.23292  0.10147  0.27723  1.0000
  N   N12       1.0  0.76709  0.60147  0.22277  1.0000
  N   N13       1.0  0.91847  0.88758  0.80842  1.0000
  N   N14       1.0  0.08153  0.38757  0.69158  1.0000
  N   N15       1.0  0.08152  0.11243  0.19158  1.0000
  N   N16       1.0  0.91848  0.61243  0.30843  1.0000
  Cl  Cl1       1.0  0.74942  0.37878  0.46518  1.0000
  Cl  Cl2       1.0  0.25058  0.87878  0.03481  1.0000
  Cl  Cl3       1.0  0.25059  0.62122  0.53482  1.0000
  Cl  Cl4       1.0  0.74942  0.12122  0.96518  1.0000
