data_image0
_chemical_formula_structural       Mn2H44C40N8O10
_chemical_formula_sum              "Mn2 H44 C40 N8 O10"
_cell_length_a       8.70357
_cell_length_b       10.949
_cell_length_c       11.2985
_cell_angle_alpha    95.9198
_cell_angle_beta     107.958
_cell_angle_gamma    107.274

_space_group_name_H-M_alt    "P 1"
_space_group_IT_number       1

loop_
  _space_group_symop_operation_xyz
  'x, y, z'

loop_
  _atom_site_type_symbol
  _atom_site_label
  _atom_site_symmetry_multiplicity
  _atom_site_fract_x
  _atom_site_fract_y
  _atom_site_fract_z
  _atom_site_occupancy
  Mn  Mn1       1.0  0.75229  0.89825  0.10291  1.0000
  Mn  Mn2       1.0  0.24804  0.10131  0.89656  1.0000
  H   H1        1.0  0.29158  0.45628  0.87333  1.0000
  H   H2        1.0  0.20807  0.12276  0.54052  1.0000
  H   H3        1.0  0.70650  0.54471  0.12490  1.0000
  H   H4        1.0  0.79015  0.87571  0.46037  1.0000
  H   H5        1.0  0.39186  0.67310  0.03842  1.0000
  H   H6        1.0  0.10827  0.95629  0.32743  1.0000
  H   H7        1.0  0.60701  0.32835  0.95942  1.0000
  H   H8        1.0  0.89048  0.04179  0.67379  1.0000
  H   H9        1.0  0.84340  0.82276  0.84118  1.0000
  H   H10       1.0  0.65767  0.16557  0.18380  1.0000
  H   H11       1.0  0.15838  0.17570  0.15850  1.0000
  H   H12       1.0  0.34372  0.83442  0.81518  1.0000
  H   H13       1.0  0.84705  0.66574  0.66737  1.0000
  H   H14       1.0  0.65190  0.34017  0.34056  1.0000
  H   H15       1.0  0.15439  0.33188  0.33287  1.0000
  H   H16       1.0  0.34943  0.66052  0.65776  1.0000
  H   H17       1.0  0.63050  0.44207  0.58733  1.0000
  H   H18       1.0  0.86571  0.41562  0.55952  1.0000
  H   H19       1.0  0.36926  0.55613  0.41260  1.0000
  H   H20       1.0  0.13412  0.58454  0.43928  1.0000
  H   H21       1.0  0.40473  0.36501  0.68220  1.0000
  H   H22       1.0  0.09194  0.31489  0.63294  1.0000
  H   H23       1.0  0.59357  0.63473  0.31678  1.0000
  H   H24       1.0  0.90636  0.68408  0.36710  1.0000
  H   H25       1.0  0.32940  0.85139  0.30122  1.0000
  H   H26       1.0  0.17119  0.69818  0.15734  1.0000
  H   H27       1.0  0.67084  0.15115  0.69923  1.0000
  H   H28       1.0  0.82817  0.30167  0.84536  1.0000
  H   H29       1.0  0.41164  0.01427  0.28313  1.0000
  H   H30       1.0  0.10256  0.72235  0.99969  1.0000
  H   H31       1.0  0.58997  0.98786  0.71682  1.0000
  H   H32       1.0  0.89944  0.27781  0.00291  1.0000
  H   H33       1.0  0.67402  0.05119  0.48217  1.0000
  H   H34       1.0  0.82797  0.52309  0.95290  1.0000
  H   H35       1.0  0.32688  0.95070  0.51830  1.0000
  H   H36       1.0  0.17222  0.47776  0.04849  1.0000
  H   H37       1.0  0.57303  0.89032  0.49888  1.0000
  H   H38       1.0  0.92527  0.49692  0.10686  1.0000
  H   H39       1.0  0.42718  0.11164  0.50139  1.0000
  H   H40       1.0  0.07381  0.50313  0.89434  1.0000
  H   H41       1.0  0.64238  0.04307  0.93751  1.0000
  H   H42       1.0  0.84756  0.06336  0.96321  1.0000
  H   H43       1.0  0.35858  0.95737  0.06297  1.0000
  H   H44       1.0  0.15341  0.93693  0.03750  1.0000
  C   C1        1.0  0.44896  0.65650  0.96846  1.0000
  C   C2        1.0  0.05051  0.02819  0.34415  1.0000
  C   C3        1.0  0.55037  0.34425  0.02988  1.0000
  C   C4        1.0  0.94845  0.97019  0.65662  1.0000
  C   C5        1.0  0.74779  0.72455  0.80696  1.0000
  C   C6        1.0  0.75200  0.19774  0.28019  1.0000
  C   C7        1.0  0.25327  0.27420  0.19263  1.0000
  C   C8        1.0  0.24883  0.80220  0.71898  1.0000
  C   C9        1.0  0.74873  0.63580  0.70955  1.0000
  C   C10       1.0  0.75014  0.29552  0.36869  1.0000
  C   C11       1.0  0.25220  0.36244  0.29037  1.0000
  C   C12       1.0  0.25082  0.70488  0.63005  1.0000
  C   C13       1.0  0.62628  0.50794  0.66451  1.0000
  C   C14       1.0  0.87127  0.33802  0.49409  1.0000
  C   C15       1.0  0.37370  0.49062  0.33520  1.0000
  C   C16       1.0  0.12884  0.66205  0.50498  1.0000
  C   C17       1.0  0.49786  0.46419  0.71499  1.0000
  C   C18       1.0  0.99971  0.28452  0.53568  1.0000
  C   C19       1.0  0.50137  0.53525  0.28422  1.0000
  C   C20       1.0  0.99957  0.71488  0.46404  1.0000
  C   C21       1.0  0.49766  0.55305  0.81289  1.0000
  C   C22       1.0  0.00091  0.18636  0.44689  1.0000
  C   C23       1.0  0.50170  0.44690  0.18599  1.0000
  C   C24       1.0  0.99840  0.81272  0.55316  1.0000
  C   C25       1.0  0.62105  0.68176  0.86047  1.0000
  C   C26       1.0  0.87864  0.14100  0.32067  1.0000
  C   C27       1.0  0.37918  0.31788  0.13862  1.0000
  C   C28       1.0  0.12138  0.85830  0.67913  1.0000
  C   C29       1.0  0.55465  0.89243  0.25100  1.0000
  C   C30       1.0  0.95259  0.76057  0.10698  1.0000
  C   C31       1.0  0.44549  0.10775  0.74973  1.0000
  C   C32       1.0  0.04741  0.24018  0.89325  1.0000
  C   C33       1.0  0.44907  0.93444  0.32047  1.0000
  C   C34       1.0  0.05643  0.68346  0.07314  1.0000
  C   C35       1.0  0.55171  0.06756  0.67986  1.0000
  C   C36       1.0  0.94396  0.31681  0.92887  1.0000
  C   C37       1.0  0.54842  0.97529  0.46395  1.0000
  C   C38       1.0  0.95236  0.53722  0.02723  1.0000
  C   C39       1.0  0.45225  0.02684  0.53642  1.0000
  C   C40       1.0  0.04750  0.46314  0.97432  1.0000
  N   N1        1.0  0.39027  0.54172  0.88208  1.0000
  N   N2        1.0  0.10810  0.11412  0.45696  1.0000
  N   N3        1.0  0.60853  0.45896  0.11631  1.0000
  N   N4        1.0  0.89053  0.88436  0.54374  1.0000
  N   N5        1.0  0.58827  0.74375  0.96028  1.0000
  N   N6        1.0  0.91224  0.03924  0.25899  1.0000
  N   N7        1.0  0.41182  0.25643  0.03843  1.0000
  N   N8        1.0  0.08745  0.95952  0.74130  1.0000
  O   O1        1.0  0.74879  0.03102  0.99240  1.0000
  O   O2        1.0  0.25235  0.97005  0.00867  1.0000
  O   O3        1.0  0.54096  0.91671  0.13895  1.0000
  O   O4        1.0  0.96792  0.87364  0.07754  1.0000
  O   O5        1.0  0.45949  0.08234  0.86136  1.0000
  O   O6        1.0  0.03273  0.12679  0.92187  1.0000
  O   O7        1.0  0.65866  0.83809  0.30348  1.0000
  O   O8        1.0  0.84358  0.71515  0.15862  1.0000
  O   O9        1.0  0.34010  0.16144  0.69809  1.0000
  O   O10       1.0  0.15490  0.28659  0.84082  1.0000
