data_image0
_chemical_formula_structural       Tb2H48C70N12O14
_chemical_formula_sum              "Tb2 H48 C70 N12 O14"
_cell_length_a       7.60357
_cell_length_b       12.9321
_cell_length_c       16.103
_cell_angle_alpha    100.116
_cell_angle_beta     99.7189
_cell_angle_gamma    98.7539

_space_group_name_H-M_alt    "P 1"
_space_group_IT_number       1

loop_
  _space_group_symop_operation_xyz
  'x, y, z'

loop_
  _atom_site_type_symbol
  _atom_site_label
  _atom_site_symmetry_multiplicity
  _atom_site_fract_x
  _atom_site_fract_y
  _atom_site_fract_z
  _atom_site_occupancy
  Tb  Tb1       1.0  0.23552  0.15404  0.03910  1.0000
  Tb  Tb2       1.0  0.76449  0.84596  0.96090  1.0000
  H   H1        1.0  0.30789  0.19164  0.84704  1.0000
  H   H2        1.0  0.69209  0.80836  0.15296  1.0000
  H   H3        1.0  0.34555  0.33051  0.75714  1.0000
  H   H4        1.0  0.65444  0.66948  0.24286  1.0000
  H   H5        1.0  0.32841  0.52055  0.82085  1.0000
  H   H6        1.0  0.67157  0.47945  0.17915  1.0000
  H   H7        1.0  0.27907  0.65149  0.94441  1.0000
  H   H8        1.0  0.72092  0.34850  0.05559  1.0000
  H   H9        1.0  0.22132  0.69014  0.09140  1.0000
  H   H10       1.0  0.77869  0.30986  0.90860  1.0000
  H   H11       1.0  0.17576  0.62711  0.22723  1.0000
  H   H12       1.0  0.82424  0.37289  0.77277  1.0000
  H   H13       1.0  0.14314  0.47350  0.30451  1.0000
  H   H14       1.0  0.85687  0.52651  0.69549  1.0000
  H   H15       1.0  0.16400  0.29198  0.22775  1.0000
  H   H16       1.0  0.83602  0.70803  0.77226  1.0000
  H   H17       1.0  0.39227  0.16391  0.25986  1.0000
  H   H18       1.0  0.60773  0.83609  0.74014  1.0000
  H   H19       1.0  0.42153  0.18512  0.42325  1.0000
  H   H20       1.0  0.57847  0.81488  0.57675  1.0000
  H   H21       1.0  0.17465  0.31696  0.38530  1.0000
  H   H22       1.0  0.82535  0.68304  0.61470  1.0000
  H   H23       1.0  0.46244  0.40020  0.49179  1.0000
  H   H24       1.0  0.53756  0.59980  0.50821  1.0000
  H   H25       1.0  0.45044  0.48256  0.64181  1.0000
  H   H26       1.0  0.54956  0.51743  0.35820  1.0000
  H   H27       1.0  0.15072  0.47594  0.68664  1.0000
  H   H28       1.0  0.84927  0.52406  0.31336  1.0000
  H   H29       1.0  0.86652  0.38427  0.58156  1.0000
  H   H30       1.0  0.13348  0.61574  0.41844  1.0000
  H   H31       1.0  0.19121  0.10978  0.32031  1.0000
  H   H32       1.0  0.80879  0.89021  0.67968  1.0000
  H   H33       1.0  0.08840  0.07896  0.45770  1.0000
  H   H34       1.0  0.91160  0.92104  0.54229  1.0000
  H   H35       1.0  0.56534  0.93475  0.45144  1.0000
  H   H36       1.0  0.43467  0.06525  0.54856  1.0000
  H   H37       1.0  0.24523  0.85323  0.44853  1.0000
  H   H38       1.0  0.75478  0.14677  0.55147  1.0000
  H   H39       1.0  0.02298  0.79589  0.30889  1.0000
  H   H40       1.0  0.97702  0.20410  0.69111  1.0000
  H   H41       1.0  0.12291  0.82042  0.17259  1.0000
  H   H42       1.0  0.87709  0.17958  0.82741  1.0000
  H   H43       1.0  0.44382  0.89884  0.17613  1.0000
  H   H44       1.0  0.55618  0.10116  0.82387  1.0000
  H   H45       1.0  0.87558  0.20828  0.05781  1.0000
  H   H46       1.0  0.12443  0.79172  0.94219  1.0000
  H   H47       1.0  0.84281  0.12098  0.97202  1.0000
  H   H48       1.0  0.15719  0.87903  0.02798  1.0000
  C   C1        1.0  0.29904  0.27457  0.87188  1.0000
  C   C2        1.0  0.70095  0.72543  0.12812  1.0000
  C   C3        1.0  0.31969  0.35281  0.82183  1.0000
  C   C4        1.0  0.68029  0.64719  0.17816  1.0000
  C   C5        1.0  0.30970  0.45682  0.85666  1.0000
  C   C6        1.0  0.69028  0.54318  0.14333  1.0000
  C   C7        1.0  0.27701  0.48230  0.94094  1.0000
  C   C8        1.0  0.72298  0.51770  0.05905  1.0000
  C   C9        1.0  0.26389  0.58805  0.98067  1.0000
  C   C10       1.0  0.73610  0.41195  0.01933  1.0000
  C   C11       1.0  0.23223  0.60933  0.06235  1.0000
  C   C12       1.0  0.76776  0.39068  0.93764  1.0000
  C   C13       1.0  0.21371  0.52713  0.11102  1.0000
  C   C14       1.0  0.78628  0.47287  0.88898  1.0000
  C   C15       1.0  0.18462  0.54638  0.19641  1.0000
  C   C16       1.0  0.81539  0.45362  0.80359  1.0000
  C   C17       1.0  0.16831  0.46279  0.23920  1.0000
  C   C18       1.0  0.83171  0.53721  0.76080  1.0000
  C   C19       1.0  0.18156  0.36029  0.19680  1.0000
  C   C20       1.0  0.81845  0.63972  0.80320  1.0000
  C   C21       1.0  0.22655  0.42119  0.07359  1.0000
  C   C22       1.0  0.77345  0.57882  0.92641  1.0000
  C   C23       1.0  0.25757  0.39822  0.98686  1.0000
  C   C24       1.0  0.74242  0.60178  0.01314  1.0000
  C   C25       1.0  0.66065  0.23345  0.17996  1.0000
  C   C26       1.0  0.33937  0.76655  0.82004  1.0000
  C   C27       1.0  0.67286  0.24044  0.27629  1.0000
  C   C28       1.0  0.32715  0.75955  0.72371  1.0000
  C   C29       1.0  0.51782  0.20145  0.30563  1.0000
  C   C30       1.0  0.48218  0.79854  0.69437  1.0000
  C   C31       1.0  0.53476  0.21395  0.39432  1.0000
  C   C32       1.0  0.46524  0.78605  0.60568  1.0000
  C   C33       1.0  0.83201  0.29549  0.41512  1.0000
  C   C34       1.0  0.16800  0.70450  0.58488  1.0000
  C   C35       1.0  0.00319  0.34640  0.47696  1.0000
  C   C36       1.0  0.99680  0.65360  0.52304  1.0000
  C   C37       1.0  0.17167  0.35159  0.45173  1.0000
  C   C38       1.0  0.82832  0.64841  0.54827  1.0000
  C   C39       1.0  0.33173  0.39876  0.51116  1.0000
  C   C40       1.0  0.66827  0.60124  0.48884  1.0000
  C   C41       1.0  0.32512  0.44396  0.59585  1.0000
  C   C42       1.0  0.67487  0.55604  0.40416  1.0000
  C   C43       1.0  0.15763  0.43952  0.62120  1.0000
  C   C44       1.0  0.84237  0.56048  0.37880  1.0000
  C   C45       1.0  0.99804  0.38973  0.56261  1.0000
  C   C46       1.0  0.00195  0.61027  0.43739  1.0000
  C   C47       1.0  0.99037  0.03205  0.15656  1.0000
  C   C48       1.0  0.00964  0.96795  0.84344  1.0000
  C   C49       1.0  0.93273  0.02608  0.24186  1.0000
  C   C50       1.0  0.06727  0.97392  0.75814  1.0000
  C   C51       1.0  0.05493  0.06950  0.31957  1.0000
  C   C52       1.0  0.94507  0.93050  0.68042  1.0000
  C   C53       1.0  0.99694  0.05334  0.39467  1.0000
  C   C54       1.0  0.00306  0.94666  0.60533  1.0000
  C   C55       1.0  0.71597  0.96969  0.31603  1.0000
  C   C56       1.0  0.28403  0.03031  0.68397  1.0000
  C   C57       1.0  0.52576  0.92070  0.31403  1.0000
  C   C58       1.0  0.47425  0.07930  0.68596  1.0000
  C   C59       1.0  0.46759  0.90819  0.39068  1.0000
  C   C60       1.0  0.53242  0.09181  0.60932  1.0000
  C   C61       1.0  0.28791  0.86315  0.38873  1.0000
  C   C62       1.0  0.71209  0.13685  0.61127  1.0000
  C   C63       1.0  0.16398  0.83029  0.31020  1.0000
  C   C64       1.0  0.83603  0.16971  0.68980  1.0000
  C   C65       1.0  0.22023  0.84342  0.23381  1.0000
  C   C66       1.0  0.77978  0.15658  0.76619  1.0000
  C   C67       1.0  0.39998  0.88797  0.23543  1.0000
  C   C68       1.0  0.60002  0.11203  0.76457  1.0000
  C   C69       1.0  0.54170  0.03727  0.97296  1.0000
  C   C70       1.0  0.45830  0.96273  0.02704  1.0000
  N   N1        1.0  0.26945  0.29647  0.95191  1.0000
  N   N2        1.0  0.73054  0.70353  0.04809  1.0000
  N   N3        1.0  0.21121  0.34004  0.11690  1.0000
  N   N4        1.0  0.78880  0.65997  0.88311  1.0000
  N   N5        1.0  0.68877  0.26274  0.44944  1.0000
  N   N6        1.0  0.31123  0.73726  0.55056  1.0000
  N   N7        1.0  0.83126  0.28522  0.33026  1.0000
  N   N8        1.0  0.16875  0.71477  0.66974  1.0000
  N   N9        1.0  0.82839  0.00427  0.39392  1.0000
  N   N10       1.0  0.17162  0.99573  0.60608  1.0000
  N   N11       1.0  0.76413  0.97581  0.23985  1.0000
  N   N12       1.0  0.23587  0.02418  0.76014  1.0000
  O   O1        1.0  0.49918  0.22410  0.13717  1.0000
  O   O2        1.0  0.50083  0.77590  0.86283  1.0000
  O   O3        1.0  0.80421  0.23927  0.15125  1.0000
  O   O4        1.0  0.19581  0.76073  0.84876  1.0000
  O   O5        1.0  0.11966  0.10775  0.15816  1.0000
  O   O6        1.0  0.88035  0.89225  0.84184  1.0000
  O   O7        1.0  0.91001  0.96189  0.09048  1.0000
  O   O8        1.0  0.08999  0.03811  0.90951  1.0000
  O   O9        1.0  0.67369  0.00932  0.94055  1.0000
  O   O10       1.0  0.32632  0.99068  0.05945  1.0000
  O   O11       1.0  0.47729  0.11961  0.96528  1.0000
  O   O12       1.0  0.52271  0.88039  0.03471  1.0000
  O   O13       1.0  0.93106  0.18438  0.00730  1.0000
  O   O14       1.0  0.06895  0.81562  0.99270  1.0000
