data_image0
_chemical_formula_structural       Ba2H20C20S4O16
_chemical_formula_sum              "Ba2 H20 C20 S4 O16"
_cell_length_a       5.62235
_cell_length_b       10.5498
_cell_length_c       11.562
_cell_angle_alpha    91.8528
_cell_angle_beta     104.051
_cell_angle_gamma    89.9903

_space_group_name_H-M_alt    "P 1"
_space_group_IT_number       1

loop_
  _space_group_symop_operation_xyz
  'x, y, z'

loop_
  _atom_site_type_symbol
  _atom_site_label
  _atom_site_symmetry_multiplicity
  _atom_site_fract_x
  _atom_site_fract_y
  _atom_site_fract_z
  _atom_site_occupancy
  Ba  Ba1       1.0  0.34974  0.74986  0.99997  1.0000
  Ba  Ba2       1.0  0.65026  0.25014  0.00002  1.0000
  H   H1        1.0  0.78512  0.90008  0.87952  1.0000
  H   H2        1.0  0.90585  0.59967  0.12042  1.0000
  H   H3        1.0  0.21487  0.09991  0.12049  1.0000
  H   H4        1.0  0.09414  0.40034  0.87958  1.0000
  H   H5        1.0  0.53968  0.97762  0.86314  1.0000
  H   H6        1.0  0.67682  0.52222  0.13695  1.0000
  H   H7        1.0  0.46031  0.02238  0.13686  1.0000
  H   H8        1.0  0.32317  0.47778  0.86305  1.0000
  H   H9        1.0  0.98657  0.31625  0.32604  1.0000
  H   H10       1.0  0.66107  0.18411  0.67427  1.0000
  H   H11       1.0  0.01342  0.68375  0.67396  1.0000
  H   H12       1.0  0.33893  0.81589  0.32573  1.0000
  H   H13       1.0  0.01323  0.29802  0.54318  1.0000
  H   H14       1.0  0.47022  0.20213  0.45710  1.0000
  H   H15       1.0  0.98678  0.70200  0.45682  1.0000
  H   H16       1.0  0.52983  0.79787  0.54290  1.0000
  H   H17       1.0  0.34262  0.40398  0.69196  1.0000
  H   H18       1.0  0.65008  0.09587  0.30814  1.0000
  H   H19       1.0  0.65737  0.59603  0.30804  1.0000
  H   H20       1.0  0.34995  0.90414  0.69185  1.0000
  C   C1        1.0  0.30139  0.43814  0.35417  1.0000
  C   C2        1.0  0.94754  0.06209  0.64591  1.0000
  C   C3        1.0  0.69860  0.56186  0.64583  1.0000
  C   C4        1.0  0.05244  0.93791  0.35409  1.0000
  C   C5        1.0  0.13076  0.36626  0.39156  1.0000
  C   C6        1.0  0.73948  0.13401  0.60866  1.0000
  C   C7        1.0  0.86924  0.63374  0.60845  1.0000
  C   C8        1.0  0.26048  0.86599  0.39133  1.0000
  C   C9        1.0  0.14719  0.35576  0.51443  1.0000
  C   C10       1.0  0.63287  0.14435  0.48579  1.0000
  C   C11       1.0  0.85284  0.64423  0.48558  1.0000
  C   C12       1.0  0.36714  0.85564  0.51420  1.0000
  C   C13       1.0  0.33164  0.41659  0.59790  1.0000
  C   C14       1.0  0.73354  0.08334  0.40220  1.0000
  C   C15       1.0  0.66836  0.58341  0.40210  1.0000
  C   C16       1.0  0.26649  0.91665  0.59779  1.0000
  C   C17       1.0  0.49308  0.50601  0.43729  1.0000
  C   C18       1.0  0.05598  0.99408  0.56271  1.0000
  C   C19       1.0  0.50691  0.49399  0.56271  1.0000
  C   C20       1.0  0.94403  0.00592  0.43730  1.0000
  S   S1        1.0  0.28047  0.43923  0.19773  1.0000
  S   S2        1.0  0.08299  0.06092  0.80241  1.0000
  S   S3        1.0  0.71953  0.56078  0.80227  1.0000
  S   S4        1.0  0.91701  0.93909  0.19760  1.0000
  O   O1        1.0  0.62563  0.90235  0.90058  1.0000
  O   O2        1.0  0.72532  0.59731  0.09926  1.0000
  O   O3        1.0  0.37438  0.09766  0.09942  1.0000
  O   O4        1.0  0.27468  0.40270  0.90075  1.0000
  O   O5        1.0  0.23436  0.57206  0.16148  1.0000
  O   O6        1.0  0.07264  0.92812  0.83866  1.0000
  O   O7        1.0  0.76564  0.42795  0.83852  1.0000
  O   O8        1.0  0.92733  0.07187  0.16133  1.0000
  O   O9        1.0  0.52238  0.39554  0.18341  1.0000
  O   O10       1.0  0.33930  0.10442  0.81680  1.0000
  O   O11       1.0  0.47759  0.60446  0.81658  1.0000
  O   O12       1.0  0.66072  0.89557  0.18320  1.0000
  O   O13       1.0  0.07958  0.35323  0.14044  1.0000
  O   O14       1.0  0.93946  0.14702  0.85971  1.0000
  O   O15       1.0  0.92042  0.64678  0.85957  1.0000
  O   O16       1.0  0.06056  0.85298  0.14029  1.0000
