data_image0
_chemical_formula_structural       Ni2H36C32S4N8
_chemical_formula_sum              "Ni2 H36 C32 S4 N8"
_cell_length_a       8.77902
_cell_length_b       10.4007
_cell_length_c       10.8639
_cell_angle_alpha    68.3446
_cell_angle_beta     67.7462
_cell_angle_gamma    84.4977

_space_group_name_H-M_alt    "P 1"
_space_group_IT_number       1

loop_
  _space_group_symop_operation_xyz
  'x, y, z'

loop_
  _atom_site_type_symbol
  _atom_site_label
  _atom_site_symmetry_multiplicity
  _atom_site_fract_x
  _atom_site_fract_y
  _atom_site_fract_z
  _atom_site_occupancy
  Ni  Ni1       1.0  0.00000  0.50000  0.50000  1.0000
  Ni  Ni2       1.0  0.50000  0.50000  1.00000  1.0000
  H   H1        1.0  0.08087  0.61600  0.17898  1.0000
  H   H2        1.0  0.91913  0.38401  0.82102  1.0000
  H   H3        1.0  0.96012  0.77030  0.00872  1.0000
  H   H4        1.0  0.03988  0.22970  0.99128  1.0000
  H   H5        1.0  0.53367  0.78479  0.37053  1.0000
  H   H6        1.0  0.46633  0.21521  0.62947  1.0000
  H   H7        1.0  0.67390  0.63004  0.52694  1.0000
  H   H8        1.0  0.32610  0.36996  0.47306  1.0000
  H   H9        1.0  0.56244  0.94746  0.13520  1.0000
  H   H10       1.0  0.43756  0.05254  0.86480  1.0000
  H   H11       1.0  0.58903  0.82905  0.04945  1.0000
  H   H12       1.0  0.41097  0.17095  0.95055  1.0000
  H   H13       1.0  0.71312  0.06677  0.87452  1.0000
  H   H14       1.0  0.28688  0.93324  0.12548  1.0000
  H   H15       1.0  0.86134  0.93996  0.87086  1.0000
  H   H16       1.0  0.13867  0.06004  0.12914  1.0000
  H   H17       1.0  0.85366  0.05543  0.95939  1.0000
  H   H18       1.0  0.14634  0.94458  0.04062  1.0000
  H   H19       1.0  0.33158  0.48326  0.80785  1.0000
  H   H20       1.0  0.66843  0.51674  0.19215  1.0000
  H   H21       1.0  0.19379  0.63729  0.64929  1.0000
  H   H22       1.0  0.80621  0.36271  0.35071  1.0000
  H   H23       1.0  0.27708  0.96864  0.76851  1.0000
  H   H24       1.0  0.72293  0.03136  0.23149  1.0000
  H   H25       1.0  0.41362  0.80014  0.92203  1.0000
  H   H26       1.0  0.58638  0.19986  0.07797  1.0000
  H   H27       1.0  0.07242  0.86122  0.57025  1.0000
  H   H28       1.0  0.92758  0.13878  0.42975  1.0000
  H   H29       1.0  0.06867  0.98578  0.64691  1.0000
  H   H30       1.0  0.93133  0.01422  0.35310  1.0000
  H   H31       1.0  0.22624  0.08385  0.38411  1.0000
  H   H32       1.0  0.77376  0.91615  0.61589  1.0000
  H   H33       1.0  0.36097  0.94557  0.39699  1.0000
  H   H34       1.0  0.63902  0.05442  0.60301  1.0000
  H   H35       1.0  0.36109  0.06821  0.47553  1.0000
  H   H36       1.0  0.63891  0.93179  0.52447  1.0000
  C   C1        1.0  0.83802  0.63632  0.72725  1.0000
  C   C2        1.0  0.16198  0.36368  0.27274  1.0000
  C   C3        1.0  0.65736  0.36908  0.76573  1.0000
  C   C4        1.0  0.34265  0.63091  0.23427  1.0000
  C   C5        1.0  0.95989  0.65610  0.21776  1.0000
  C   C6        1.0  0.04011  0.34390  0.78224  1.0000
  C   C7        1.0  0.89112  0.74348  0.12266  1.0000
  C   C8        1.0  0.10888  0.25652  0.87734  1.0000
  C   C9        1.0  0.73580  0.79514  0.17415  1.0000
  C   C10       1.0  0.26420  0.20487  0.82585  1.0000
  C   C11       1.0  0.65629  0.75131  0.32280  1.0000
  C   C12       1.0  0.34371  0.24869  0.67720  1.0000
  C   C13       1.0  0.73286  0.66372  0.41127  1.0000
  C   C14       1.0  0.26714  0.33629  0.58873  1.0000
  C   C15       1.0  0.65712  0.89233  0.07577  1.0000
  C   C16       1.0  0.34287  0.10767  0.92423  1.0000
  C   C17       1.0  0.77810  0.99419  0.93803  1.0000
  C   C18       1.0  0.22190  0.00581  0.06198  1.0000
  C   C19       1.0  0.31794  0.59193  0.79569  1.0000
  C   C20       1.0  0.68206  0.40807  0.20431  1.0000
  C   C21       1.0  0.24105  0.67898  0.70701  1.0000
  C   C22       1.0  0.75895  0.32102  0.29299  1.0000
  C   C23       1.0  0.22443  0.81826  0.69349  1.0000
  C   C24       1.0  0.77557  0.18174  0.30650  1.0000
  C   C25       1.0  0.28695  0.86168  0.77370  1.0000
  C   C26       1.0  0.71305  0.13832  0.22630  1.0000
  C   C27       1.0  0.36323  0.76877  0.85932  1.0000
  C   C28       1.0  0.63678  0.23123  0.14068  1.0000
  C   C29       1.0  0.14954  0.91867  0.59409  1.0000
  C   C30       1.0  0.85046  0.08133  0.40592  1.0000
  C   C31       1.0  0.28206  0.00947  0.45480  1.0000
  C   C32       1.0  0.71793  0.99053  0.54521  1.0000
  S   S1        1.0  0.74624  0.66593  0.87444  1.0000
  S   S2        1.0  0.25376  0.33407  0.12556  1.0000
  S   S3        1.0  0.76609  0.32497  0.63008  1.0000
  S   S4        1.0  0.23391  0.67502  0.36992  1.0000
  N   N1        1.0  0.90558  0.61470  0.62008  1.0000
  N   N2        1.0  0.09442  0.38530  0.37992  1.0000
  N   N3        1.0  0.57942  0.39924  0.86611  1.0000
  N   N4        1.0  0.42058  0.60075  0.13389  1.0000
  N   N5        1.0  0.88359  0.61726  0.36015  1.0000
  N   N6        1.0  0.11641  0.38274  0.63985  1.0000
  N   N7        1.0  0.37957  0.63534  0.87062  1.0000
  N   N8        1.0  0.62043  0.36466  0.12938  1.0000
