data_image0
_chemical_formula_structural       Zn2H52C72N8O16
_chemical_formula_sum              "Zn2 H52 C72 N8 O16"
_cell_length_a       9.40583
_cell_length_b       13.7347
_cell_length_c       13.964
_cell_angle_alpha    90
_cell_angle_beta     90
_cell_angle_gamma    110.024

_space_group_name_H-M_alt    "P 1"
_space_group_IT_number       1

loop_
  _space_group_symop_operation_xyz
  'x, y, z'

loop_
  _atom_site_type_symbol
  _atom_site_label
  _atom_site_symmetry_multiplicity
  _atom_site_fract_x
  _atom_site_fract_y
  _atom_site_fract_z
  _atom_site_occupancy
  Zn  Zn1       1.0  0.51950  0.03922  0.25002  1.0000
  Zn  Zn2       1.0  0.48050  0.96078  0.75002  1.0000
  H   H1        1.0  0.93085  0.19371  0.16272  1.0000
  H   H2        1.0  0.06915  0.80628  0.66272  1.0000
  H   H3        1.0  0.73725  0.80633  0.83729  1.0000
  H   H4        1.0  0.26275  0.19367  0.33729  1.0000
  H   H5        1.0  0.65067  0.78055  0.15149  1.0000
  H   H6        1.0  0.34933  0.21945  0.65149  1.0000
  H   H7        1.0  0.87024  0.21928  0.84851  1.0000
  H   H8        1.0  0.12977  0.78072  0.34851  1.0000
  H   H9        1.0  0.78768  0.67306  0.07689  1.0000
  H   H10       1.0  0.21232  0.32694  0.57689  1.0000
  H   H11       1.0  0.11464  0.32680  0.92323  1.0000
  H   H12       1.0  0.88536  0.67320  0.42323  1.0000
  H   H13       1.0  0.19350  0.94128  0.06517  1.0000
  H   H14       1.0  0.80650  0.05872  0.56517  1.0000
  H   H15       1.0  0.25249  0.05867  0.93482  1.0000
  H   H16       1.0  0.74751  0.94133  0.43482  1.0000
  H   H17       1.0  0.05538  0.04735  0.13903  1.0000
  H   H18       1.0  0.94462  0.95265  0.63903  1.0000
  H   H19       1.0  0.00829  0.95256  0.86098  1.0000
  H   H20       1.0  0.99171  0.04744  0.36098  1.0000
  H   H21       1.0  0.10766  0.53166  0.27128  1.0000
  H   H22       1.0  0.89233  0.46833  0.77128  1.0000
  H   H23       1.0  0.57590  0.46845  0.72866  1.0000
  H   H24       1.0  0.42410  0.53155  0.22866  1.0000
  H   H25       1.0  0.13432  0.70183  0.19486  1.0000
  H   H26       1.0  0.86567  0.29816  0.69485  1.0000
  H   H27       1.0  0.43230  0.29825  0.80505  1.0000
  H   H28       1.0  0.56770  0.70175  0.30505  1.0000
  H   H29       1.0  0.97438  0.54598  0.92805  1.0000
  H   H30       1.0  0.02563  0.45402  0.42805  1.0000
  H   H31       1.0  0.42869  0.45401  0.07197  1.0000
  H   H32       1.0  0.57131  0.54599  0.57197  1.0000
  H   H33       1.0  0.94057  0.37525  0.00656  1.0000
  H   H34       1.0  0.05943  0.62475  0.50656  1.0000
  H   H35       1.0  0.56584  0.62476  0.99354  1.0000
  H   H36       1.0  0.43416  0.37524  0.49354  1.0000
  H   H37       1.0  0.00280  0.71358  0.94042  1.0000
  H   H38       1.0  0.99720  0.28642  0.44042  1.0000
  H   H39       1.0  0.28923  0.28646  0.05948  1.0000
  H   H40       1.0  0.71077  0.71354  0.55948  1.0000
  H   H41       1.0  0.16192  0.82372  0.83146  1.0000
  H   H42       1.0  0.83808  0.17628  0.33146  1.0000
  H   H43       1.0  0.33814  0.17638  0.16849  1.0000
  H   H44       1.0  0.66186  0.82361  0.66849  1.0000
  H   H45       1.0  0.36917  0.79645  0.09488  1.0000
  H   H46       1.0  0.63083  0.20355  0.59488  1.0000
  H   H47       1.0  0.57280  0.20356  0.90516  1.0000
  H   H48       1.0  0.42720  0.79644  0.40516  1.0000
  H   H49       1.0  0.58892  0.90601  0.96581  1.0000
  H   H50       1.0  0.41108  0.09399  0.46581  1.0000
  H   H51       1.0  0.68285  0.09397  0.03429  1.0000
  H   H52       1.0  0.31715  0.90603  0.53429  1.0000
  C   C1        1.0  0.76087  0.98541  0.19019  1.0000
  C   C2        1.0  0.23913  0.01458  0.69019  1.0000
  C   C3        1.0  0.77569  0.01453  0.80977  1.0000
  C   C4        1.0  0.22431  0.98547  0.30977  1.0000
  C   C5        1.0  0.84421  0.92081  0.14839  1.0000
  C   C6        1.0  0.15579  0.07919  0.64839  1.0000
  C   C7        1.0  0.92362  0.07907  0.85158  1.0000
  C   C8        1.0  0.07638  0.92093  0.35158  1.0000
  C   C9        1.0  0.76978  0.81461  0.13235  1.0000
  C   C10       1.0  0.23022  0.18539  0.63235  1.0000
  C   C11       1.0  0.95531  0.18526  0.86763  1.0000
  C   C12       1.0  0.04469  0.81474  0.36763  1.0000
  C   C13       1.0  0.84635  0.75522  0.09086  1.0000
  C   C14       1.0  0.15365  0.24478  0.59086  1.0000
  C   C15       1.0  0.09125  0.24468  0.90913  1.0000
  C   C16       1.0  0.90876  0.75532  0.40913  1.0000
  C   C17       1.0  0.99858  0.80080  0.06410  1.0000
  C   C18       1.0  0.00142  0.19920  0.56410  1.0000
  C   C19       1.0  0.19797  0.19916  0.93584  1.0000
  C   C20       1.0  0.80203  0.80084  0.43584  1.0000
  C   C21       1.0  0.07426  0.90557  0.08338  1.0000
  C   C22       1.0  0.92574  0.09443  0.58337  1.0000
  C   C23       1.0  0.16896  0.09438  0.91660  1.0000
  C   C24       1.0  0.83104  0.90562  0.41660  1.0000
  C   C25       1.0  0.99723  0.96539  0.12471  1.0000
  C   C26       1.0  0.00277  0.03461  0.62471  1.0000
  C   C27       1.0  0.03209  0.03453  0.87525  1.0000
  C   C28       1.0  0.96791  0.96547  0.37525  1.0000
  C   C29       1.0  0.99966  0.34233  0.19158  1.0000
  C   C30       1.0  0.00034  0.65767  0.69158  1.0000
  C   C31       1.0  0.65756  0.65772  0.80844  1.0000
  C   C32       1.0  0.34244  0.34228  0.30844  1.0000
  C   C33       1.0  0.02479  0.44359  0.14304  1.0000
  C   C34       1.0  0.97521  0.55641  0.64304  1.0000
  C   C35       1.0  0.58145  0.55644  0.85699  1.0000
  C   C36       1.0  0.41855  0.44356  0.35699  1.0000
  C   C37       1.0  0.07983  0.53581  0.19594  1.0000
  C   C38       1.0  0.92017  0.46419  0.69594  1.0000
  C   C39       1.0  0.54407  0.46425  0.80402  1.0000
  C   C40       1.0  0.45592  0.53575  0.30402  1.0000
  C   C41       1.0  0.09589  0.63045  0.15290  1.0000
  C   C42       1.0  0.90411  0.36955  0.65290  1.0000
  C   C43       1.0  0.46545  0.36962  0.84705  1.0000
  C   C44       1.0  0.53455  0.63038  0.34705  1.0000
  C   C45       1.0  0.05835  0.63399  0.05608  1.0000
  C   C46       1.0  0.94165  0.36601  0.55608  1.0000
  C   C47       1.0  0.42447  0.36605  0.94388  1.0000
  C   C48       1.0  0.57553  0.63395  0.44388  1.0000
  C   C49       1.0  0.00430  0.54209  0.00318  1.0000
  C   C50       1.0  0.99570  0.45791  0.50318  1.0000
  C   C51       1.0  0.46251  0.45792  0.99685  1.0000
  C   C52       1.0  0.53748  0.54208  0.49685  1.0000
  C   C53       1.0  0.98688  0.44738  0.04637  1.0000
  C   C54       1.0  0.01312  0.55262  0.54637  1.0000
  C   C55       1.0  0.53987  0.55263  0.95368  1.0000
  C   C56       1.0  0.46013  0.44737  0.45369  1.0000
  C   C57       1.0  0.06850  0.73459  0.00715  1.0000
  C   C58       1.0  0.93150  0.26541  0.50715  1.0000
  C   C59       1.0  0.33403  0.26543  0.99281  1.0000
  C   C60       1.0  0.66597  0.73456  0.49281  1.0000
  C   C61       1.0  0.24947  0.83308  0.88451  1.0000
  C   C62       1.0  0.75053  0.16692  0.38451  1.0000
  C   C63       1.0  0.41638  0.16698  0.11550  1.0000
  C   C64       1.0  0.58363  0.83302  0.61550  1.0000
  C   C65       1.0  0.35974  0.81806  0.02121  1.0000
  C   C66       1.0  0.64026  0.18194  0.52121  1.0000
  C   C67       1.0  0.54173  0.18199  0.97883  1.0000
  C   C68       1.0  0.45827  0.81801  0.47883  1.0000
  C   C69       1.0  0.46742  0.87383  0.95692  1.0000
  C   C70       1.0  0.53257  0.12617  0.45692  1.0000
  C   C71       1.0  0.59357  0.12619  0.04313  1.0000
  C   C72       1.0  0.40643  0.87381  0.54313  1.0000
  N   N1        1.0  0.39707  0.88297  0.87188  1.0000
  N   N2        1.0  0.60293  0.11702  0.37188  1.0000
  N   N3        1.0  0.51402  0.11705  0.12816  1.0000
  N   N4        1.0  0.48598  0.88295  0.62816  1.0000
  N   N5        1.0  0.22249  0.79234  0.97356  1.0000
  N   N6        1.0  0.77751  0.20766  0.47356  1.0000
  N   N7        1.0  0.43025  0.20775  0.02647  1.0000
  N   N8        1.0  0.56975  0.79225  0.52647  1.0000
  O   O1        1.0  0.82623  0.08188  0.20203  1.0000
  O   O2        1.0  0.17378  0.91812  0.70203  1.0000
  O   O3        1.0  0.74448  0.91806  0.79792  1.0000
  O   O4        1.0  0.25552  0.08194  0.29792  1.0000
  O   O5        1.0  0.62104  0.93838  0.21260  1.0000
  O   O6        1.0  0.37896  0.06162  0.71260  1.0000
  O   O7        1.0  0.68290  0.06159  0.78745  1.0000
  O   O8        1.0  0.31710  0.93841  0.28744  1.0000
  O   O9        1.0  0.00474  0.33348  0.27931  1.0000
  O   O10       1.0  0.99526  0.66652  0.77931  1.0000
  O   O11       1.0  0.67133  0.66655  0.72069  1.0000
  O   O12       1.0  0.32867  0.33345  0.22069  1.0000
  O   O13       1.0  0.96852  0.26349  0.12981  1.0000
  O   O14       1.0  0.03148  0.73651  0.62981  1.0000
  O   O15       1.0  0.70517  0.73655  0.87022  1.0000
  O   O16       1.0  0.29483  0.26344  0.37022  1.0000
