data_image0
_chemical_formula_structural       Cu2Mo2As2H16C24N4O12F2
_chemical_formula_sum              "Cu2 Mo2 As2 H16 C24 N4 O12 F2"
_cell_length_a       8.52523
_cell_length_b       8.56974
_cell_length_c       11.1184
_cell_angle_alpha    68.9378
_cell_angle_beta     89.3519
_cell_angle_gamma    68.3347

_space_group_name_H-M_alt    "P 1"
_space_group_IT_number       1

loop_
  _space_group_symop_operation_xyz
  'x, y, z'

loop_
  _atom_site_type_symbol
  _atom_site_label
  _atom_site_symmetry_multiplicity
  _atom_site_fract_x
  _atom_site_fract_y
  _atom_site_fract_z
  _atom_site_occupancy
  Cu  Cu1       1.0  0.91019  0.47218  0.78636  1.0000
  Cu  Cu2       1.0  0.08981  0.52782  0.21364  1.0000
  Mo  Mo1       1.0  0.51848  0.27128  0.09224  1.0000
  Mo  Mo2       1.0  0.48152  0.72872  0.90776  1.0000
  As  As1       1.0  0.14973  0.59953  0.91353  1.0000
  As  As2       1.0  0.85027  0.40048  0.08647  1.0000
  H   H1        1.0  0.87138  0.10936  0.94454  1.0000
  H   H2        1.0  0.12862  0.89065  0.05546  1.0000
  H   H3        1.0  0.76301  0.91036  0.88235  1.0000
  H   H4        1.0  0.23700  0.08963  0.11766  1.0000
  H   H5        1.0  0.65502  0.00022  0.64977  1.0000
  H   H6        1.0  0.34499  0.99978  0.35023  1.0000
  H   H7        1.0  0.59543  0.23974  0.41079  1.0000
  H   H8        1.0  0.40458  0.76026  0.58921  1.0000
  H   H9        1.0  0.60181  0.52791  0.26077  1.0000
  H   H10       1.0  0.39819  0.47209  0.73923  1.0000
  H   H11       1.0  0.68759  0.80083  0.22254  1.0000
  H   H12       1.0  0.31241  0.19917  0.77746  1.0000
  H   H13       1.0  0.80927  0.95850  0.32177  1.0000
  H   H14       1.0  0.19073  0.04151  0.67823  1.0000
  H   H15       1.0  0.90937  0.81891  0.56399  1.0000
  H   H16       1.0  0.09063  0.18109  0.43600  1.0000
  C   C1        1.0  0.82653  0.14285  0.84372  1.0000
  C   C2        1.0  0.17347  0.85715  0.15628  1.0000
  C   C3        1.0  0.76416  0.03330  0.80718  1.0000
  C   C4        1.0  0.23585  0.96669  0.19282  1.0000
  C   C5        1.0  0.70597  0.08369  0.67773  1.0000
  C   C6        1.0  0.29404  0.91630  0.32227  1.0000
  C   C7        1.0  0.70921  0.24530  0.58369  1.0000
  C   C8        1.0  0.29079  0.75470  0.41631  1.0000
  C   C9        1.0  0.64803  0.31513  0.44748  1.0000
  C   C10       1.0  0.35197  0.68488  0.55252  1.0000
  C   C11       1.0  0.65205  0.47548  0.36339  1.0000
  C   C12       1.0  0.34795  0.52451  0.63661  1.0000
  C   C13       1.0  0.71959  0.57879  0.40761  1.0000
  C   C14       1.0  0.28041  0.42120  0.59239  1.0000
  C   C15       1.0  0.77364  0.34689  0.62957  1.0000
  C   C16       1.0  0.22636  0.65311  0.37043  1.0000
  C   C17       1.0  0.77906  0.51311  0.54163  1.0000
  C   C18       1.0  0.22094  0.48689  0.45837  1.0000
  C   C19       1.0  0.73153  0.74321  0.32690  1.0000
  C   C20       1.0  0.26847  0.25679  0.67310  1.0000
  C   C21       1.0  0.79832  0.83158  0.38166  1.0000
  C   C22       1.0  0.20168  0.16842  0.61834  1.0000
  C   C23       1.0  0.85353  0.75673  0.51622  1.0000
  C   C24       1.0  0.14647  0.24327  0.48378  1.0000
  N   N1        1.0  0.83136  0.29515  0.75673  1.0000
  N   N2        1.0  0.16864  0.70485  0.24327  1.0000
  N   N3        1.0  0.84359  0.60153  0.59358  1.0000
  N   N4        1.0  0.15641  0.39847  0.40642  1.0000
  O   O1        1.0  0.44860  0.21537  0.24179  1.0000
  O   O2        1.0  0.55140  0.78463  0.75821  1.0000
  O   O3        1.0  0.59725  0.07382  0.06596  1.0000
  O   O4        1.0  0.40274  0.92618  0.93404  1.0000
  O   O5        1.0  0.29940  0.37533  0.97802  1.0000
  O   O6        1.0  0.70060  0.62468  0.02198  1.0000
  O   O7        1.0  0.02140  0.63252  0.78300  1.0000
  O   O8        1.0  0.97859  0.36748  0.21700  1.0000
  O   O9        1.0  0.03644  0.66238  0.02744  1.0000
  O   O10       1.0  0.96357  0.33762  0.97257  1.0000
  O   O11       1.0  0.25955  0.73922  0.84370  1.0000
  O   O12       1.0  0.74045  0.26078  0.15630  1.0000
  F   F1        1.0  0.57515  0.44289  0.91682  1.0000
  F   F2        1.0  0.42485  0.55711  0.08318  1.0000
