data_image0
_chemical_formula_structural       Cu4Mo4As4H48C48N8O24F4
_chemical_formula_sum              "Cu4 Mo4 As4 H48 C48 N8 O24 F4"
_cell_length_a       8.4391
_cell_length_b       10.5758
_cell_length_c       17.3648
_cell_angle_alpha    90
_cell_angle_beta     103.299
_cell_angle_gamma    90

_space_group_name_H-M_alt    "P 1"
_space_group_IT_number       1

loop_
  _space_group_symop_operation_xyz
  'x, y, z'

loop_
  _atom_site_type_symbol
  _atom_site_label
  _atom_site_symmetry_multiplicity
  _atom_site_fract_x
  _atom_site_fract_y
  _atom_site_fract_z
  _atom_site_occupancy
  Cu  Cu1       1.0  0.89858  0.76219  0.50807  1.0000
  Cu  Cu2       1.0  0.10120  0.26210  0.99188  1.0000
  Cu  Cu3       1.0  0.10142  0.23781  0.49193  1.0000
  Cu  Cu4       1.0  0.89881  0.73790  0.00812  1.0000
  Mo  Mo1       1.0  0.38487  0.01105  0.39840  1.0000
  Mo  Mo2       1.0  0.61484  0.51080  0.10172  1.0000
  Mo  Mo3       1.0  0.61512  0.98895  0.60159  1.0000
  Mo  Mo4       1.0  0.38517  0.48920  0.89829  1.0000
  As  As1       1.0  0.79027  0.05247  0.45186  1.0000
  As  As2       1.0  0.20961  0.55265  0.04780  1.0000
  As  As3       1.0  0.20972  0.94754  0.54814  1.0000
  As  As4       1.0  0.79039  0.44735  0.95220  1.0000
  H   H1        1.0  0.64486  0.79294  0.35643  1.0000
  H   H2        1.0  0.35502  0.29316  0.14346  1.0000
  H   H3        1.0  0.35512  0.20706  0.64356  1.0000
  H   H4        1.0  0.64499  0.70684  0.85654  1.0000
  H   H5        1.0  0.44330  0.64860  0.27009  1.0000
  H   H6        1.0  0.55644  0.14886  0.22993  1.0000
  H   H7        1.0  0.55670  0.35139  0.72991  1.0000
  H   H8        1.0  0.44356  0.85113  0.77007  1.0000
  H   H9        1.0  0.59599  0.35565  0.44396  1.0000
  H   H10       1.0  0.40392  0.85579  0.05606  1.0000
  H   H11       1.0  0.40401  0.64435  0.55604  1.0000
  H   H12       1.0  0.59608  0.14420  0.94394  1.0000
  H   H13       1.0  0.75818  0.31482  0.55801  1.0000
  H   H14       1.0  0.24181  0.81483  0.94206  1.0000
  H   H15       1.0  0.24183  0.68518  0.44199  1.0000
  H   H16       1.0  0.75819  0.18517  0.05794  1.0000
  H   H17       1.0  0.15227  0.46921  0.73639  1.0000
  H   H18       1.0  0.84787  0.96907  0.76353  1.0000
  H   H19       1.0  0.84773  0.53079  0.26361  1.0000
  H   H20       1.0  0.15213  0.03093  0.23647  1.0000
  H   H21       1.0  0.12231  0.67097  0.65817  1.0000
  H   H22       1.0  0.87783  0.17098  0.84162  1.0000
  H   H23       1.0  0.87768  0.32903  0.34183  1.0000
  H   H24       1.0  0.12217  0.82902  0.15838  1.0000
  H   H25       1.0  0.27503  0.39221  0.32459  1.0000
  H   H26       1.0  0.72474  0.89241  0.17539  1.0000
  H   H27       1.0  0.72497  0.60779  0.67540  1.0000
  H   H28       1.0  0.27526  0.10759  0.82462  1.0000
  H   H29       1.0  0.43636  0.30519  0.30296  1.0000
  H   H30       1.0  0.56341  0.80537  0.19700  1.0000
  H   H31       1.0  0.56364  0.69480  0.69704  1.0000
  H   H32       1.0  0.43660  0.19462  0.80300  1.0000
  H   H33       1.0  0.34845  0.43387  0.23998  1.0000
  H   H34       1.0  0.65139  0.93400  0.26004  1.0000
  H   H35       1.0  0.65155  0.56612  0.76002  1.0000
  H   H36       1.0  0.34861  0.06600  0.73996  1.0000
  H   H37       1.0  0.02048  0.17936  0.66151  1.0000
  H   H38       1.0  0.97948  0.67928  0.83853  1.0000
  H   H39       1.0  0.97952  0.82064  0.33849  1.0000
  H   H40       1.0  0.02052  0.32071  0.16147  1.0000
  H   H41       1.0  0.85594  0.21839  0.70315  1.0000
  H   H42       1.0  0.14400  0.71825  0.79685  1.0000
  H   H43       1.0  0.14406  0.78161  0.29685  1.0000
  H   H44       1.0  0.85600  0.28175  0.20315  1.0000
  H   H45       1.0  0.05889  0.26184  0.75416  1.0000
  H   H46       1.0  0.94102  0.76177  0.74588  1.0000
  H   H47       1.0  0.94111  0.73816  0.24585  1.0000
  H   H48       1.0  0.05899  0.23824  0.25412  1.0000
  C   C1        1.0  0.62888  0.69561  0.37306  1.0000
  C   C2        1.0  0.37104  0.19580  0.12687  1.0000
  C   C3        1.0  0.37112  0.30440  0.62694  1.0000
  C   C4        1.0  0.62897  0.80419  0.87313  1.0000
  C   C5        1.0  0.51755  0.61470  0.32611  1.0000
  C   C6        1.0  0.48234  0.11493  0.17388  1.0000
  C   C7        1.0  0.48245  0.38530  0.67389  1.0000
  C   C8        1.0  0.51766  0.88507  0.82612  1.0000
  C   C9        1.0  0.50305  0.49002  0.35062  1.0000
  C   C10       1.0  0.49680  0.99022  0.14938  1.0000
  C   C11       1.0  0.49695  0.50999  0.64938  1.0000
  C   C12       1.0  0.50320  0.00978  0.85062  1.0000
  C   C13       1.0  0.60276  0.45242  0.42327  1.0000
  C   C14       1.0  0.39720  0.95259  0.07672  1.0000
  C   C15       1.0  0.39724  0.54758  0.57673  1.0000
  C   C16       1.0  0.60280  0.04740  0.92328  1.0000
  C   C17       1.0  0.71289  0.53786  0.46756  1.0000
  C   C18       1.0  0.28711  0.03800  0.03240  1.0000
  C   C19       1.0  0.28711  0.46214  0.53244  1.0000
  C   C20       1.0  0.71289  0.96200  0.96760  1.0000
  C   C21       1.0  0.82850  0.50824  0.54272  1.0000
  C   C22       1.0  0.17151  0.00829  0.95725  1.0000
  C   C23       1.0  0.17150  0.49176  0.45728  1.0000
  C   C24       1.0  0.82849  0.99171  0.04276  1.0000
  C   C25       1.0  0.83951  0.39253  0.58194  1.0000
  C   C26       1.0  0.16054  0.89254  0.91806  1.0000
  C   C27       1.0  0.16049  0.60747  0.41806  1.0000
  C   C28       1.0  0.83946  0.10746  0.08194  1.0000
  C   C29       1.0  0.95695  0.37521  0.65301  1.0000
  C   C30       1.0  0.04309  0.87516  0.84699  1.0000
  C   C31       1.0  0.04305  0.62479  0.34699  1.0000
  C   C32       1.0  0.95691  0.12484  0.15301  1.0000
  C   C33       1.0  0.05933  0.47728  0.68160  1.0000
  C   C34       1.0  0.94075  0.97722  0.81835  1.0000
  C   C35       1.0  0.94067  0.52273  0.31840  1.0000
  C   C36       1.0  0.05925  0.02278  0.18165  1.0000
  C   C37       1.0  0.04371  0.58982  0.63937  1.0000
  C   C38       1.0  0.95636  0.08980  0.86053  1.0000
  C   C39       1.0  0.95629  0.41019  0.36063  1.0000
  C   C40       1.0  0.04364  0.91020  0.13947  1.0000
  C   C41       1.0  0.38506  0.40061  0.30126  1.0000
  C   C42       1.0  0.61473  0.90079  0.19874  1.0000
  C   C43       1.0  0.61494  0.59939  0.69874  1.0000
  C   C44       1.0  0.38527  0.09920  0.80126  1.0000
  C   C45       1.0  0.97472  0.25239  0.69616  1.0000
  C   C46       1.0  0.02523  0.75230  0.80387  1.0000
  C   C47       1.0  0.02528  0.74761  0.30384  1.0000
  C   C48       1.0  0.97477  0.24770  0.19613  1.0000
  N   N1        1.0  0.72445  0.65798  0.44183  1.0000
  N   N2        1.0  0.27551  0.15812  0.05811  1.0000
  N   N3        1.0  0.27554  0.34202  0.55817  1.0000
  N   N4        1.0  0.72449  0.84188  0.94189  1.0000
  N   N5        1.0  0.93055  0.60497  0.57190  1.0000
  N   N6        1.0  0.06942  0.10497  0.92803  1.0000
  N   N7        1.0  0.06945  0.39504  0.42810  1.0000
  N   N8        1.0  0.93059  0.89503  0.07197  1.0000
  O   O1        1.0  0.59794  0.08023  0.38955  1.0000
  O   O2        1.0  0.40186  0.58014  0.11032  1.0000
  O   O3        1.0  0.40205  0.91977  0.61045  1.0000
  O   O4        1.0  0.59815  0.41986  0.88968  1.0000
  O   O5        1.0  0.35646  0.90912  0.31953  1.0000
  O   O6        1.0  0.64329  0.40909  0.18071  1.0000
  O   O7        1.0  0.64353  0.09088  0.68047  1.0000
  O   O8        1.0  0.35671  0.59091  0.81929  1.0000
  O   O9        1.0  0.26830  0.14076  0.36328  1.0000
  O   O10       1.0  0.73178  0.64040  0.13668  1.0000
  O   O11       1.0  0.73168  0.85924  0.63672  1.0000
  O   O12       1.0  0.26822  0.35960  0.86332  1.0000
  O   O13       1.0  0.76884  0.07525  0.54853  1.0000
  O   O14       1.0  0.23160  0.57605  0.95128  1.0000
  O   O15       1.0  0.23115  0.92476  0.45146  1.0000
  O   O16       1.0  0.76840  0.42395  0.04872  1.0000
  O   O17       1.0  0.86253  0.90658  0.43629  1.0000
  O   O18       1.0  0.13696  0.40690  0.06332  1.0000
  O   O19       1.0  0.13747  0.09343  0.56371  1.0000
  O   O20       1.0  0.86306  0.59310  0.93668  1.0000
  O   O21       1.0  0.90322  0.17142  0.42619  1.0000
  O   O22       1.0  0.09692  0.67151  0.07374  1.0000
  O   O23       1.0  0.09678  0.82858  0.57380  1.0000
  O   O24       1.0  0.90309  0.32850  0.92626  1.0000
  F   F1        1.0  0.54948  0.89375  0.48364  1.0000
  F   F2        1.0  0.45007  0.39390  0.01635  1.0000
  F   F3        1.0  0.45050  0.10626  0.51636  1.0000
  F   F4        1.0  0.54994  0.60610  0.98365  1.0000
