data_image0
_chemical_formula_structural       Zn3H42C68N6O14
_chemical_formula_sum              "Zn3 H42 C68 N6 O14"
_cell_length_a       9.77023
_cell_length_b       11.5902
_cell_length_c       16.3498
_cell_angle_alpha    74.5403
_cell_angle_beta     72.304
_cell_angle_gamma    65.0216

_space_group_name_H-M_alt    "P 1"
_space_group_IT_number       1

loop_
  _space_group_symop_operation_xyz
  'x, y, z'

loop_
  _atom_site_type_symbol
  _atom_site_label
  _atom_site_symmetry_multiplicity
  _atom_site_fract_x
  _atom_site_fract_y
  _atom_site_fract_z
  _atom_site_occupancy
  Zn  Zn1       1.0  0.69631  0.40663  0.35873  1.0000
  Zn  Zn2       1.0  0.46100  0.59351  0.64232  1.0000
  Zn  Zn3       1.0  0.91277  0.99931  0.00098  1.0000
  H   H1        1.0  0.33881  0.69583  0.15979  1.0000
  H   H2        1.0  0.19432  0.30338  0.84059  1.0000
  H   H3        1.0  0.93810  0.00679  0.26390  1.0000
  H   H4        1.0  0.20794  0.99341  0.73679  1.0000
  H   H5        1.0  0.26859  0.75437  0.42092  1.0000
  H   H6        1.0  0.44353  0.24641  0.57851  1.0000
  H   H7        1.0  0.96018  0.06613  0.40437  1.0000
  H   H8        1.0  0.42994  0.93435  0.59590  1.0000
  H   H9        1.0  0.87853  0.94541  0.44336  1.0000
  H   H10       1.0  0.26655  0.05520  0.55746  1.0000
  H   H11       1.0  0.04088  0.87781  0.78060  1.0000
  H   H12       1.0  0.70001  0.12286  0.21869  1.0000
  H   H13       1.0  0.76102  0.02156  0.80997  1.0000
  H   H14       1.0  0.59233  0.97962  0.19020  1.0000
  H   H15       1.0  0.62025  0.10583  0.68923  1.0000
  H   H16       1.0  0.41485  0.89486  0.31185  1.0000
  H   H17       1.0  0.75631  0.06013  0.54173  1.0000
  H   H18       1.0  0.35789  0.93998  0.45923  1.0000
  H   H19       1.0  0.81260  0.52983  0.16448  1.0000
  H   H20       1.0  0.50595  0.46988  0.83637  1.0000
  H   H21       1.0  0.04651  0.59092  0.08622  1.0000
  H   H22       1.0  0.72240  0.40963  0.91367  1.0000
  H   H23       1.0  0.24866  0.54244  0.16689  1.0000
  H   H24       1.0  0.95751  0.45833  0.83197  1.0000
  H   H25       1.0  0.34819  0.44108  0.30634  1.0000
  H   H26       1.0  0.09622  0.55924  0.69173  1.0000
  H   H27       1.0  0.29776  0.35283  0.46194  1.0000
  H   H28       1.0  0.11388  0.64721  0.53623  1.0000
  H   H29       1.0  0.10975  0.29063  0.59711  1.0000
  H   H30       1.0  0.99876  0.70944  0.40172  1.0000
  H   H31       1.0  0.86183  0.25149  0.65891  1.0000
  H   H32       1.0  0.77347  0.74801  0.34111  1.0000
  H   H33       1.0  0.68281  0.30467  0.56044  1.0000
  H   H34       1.0  0.54831  0.69465  0.44065  1.0000
  H   H35       1.0  0.69129  0.27788  0.04697  1.0000
  H   H36       1.0  0.01736  0.72133  0.95376  1.0000
  H   H37       1.0  0.40417  0.40361  0.06935  1.0000
  H   H38       1.0  0.87916  0.59627  0.93035  1.0000
  H   H39       1.0  0.23331  0.30424  0.05167  1.0000
  H   H40       1.0  0.59079  0.69585  0.94785  1.0000
  H   H41       1.0  0.21205  0.11041  0.01747  1.0000
  H   H42       1.0  0.34059  0.88961  0.98216  1.0000
  C   C1        1.0  0.46943  0.60283  0.29767  1.0000
  C   C2        1.0  0.36967  0.39714  0.70219  1.0000
  C   C3        1.0  0.32107  0.71584  0.29009  1.0000
  C   C4        1.0  0.32682  0.28415  0.70979  1.0000
  C   C5        1.0  0.26977  0.75010  0.21301  1.0000
  C   C6        1.0  0.23269  0.24942  0.78729  1.0000
  C   C7        1.0  0.13045  0.85290  0.20401  1.0000
  C   C8        1.0  0.18692  0.14674  0.79657  1.0000
  C   C9        1.0  0.07233  0.88113  0.12320  1.0000
  C   C10       1.0  0.07610  0.11824  0.87783  1.0000
  C   C11       1.0  0.04465  0.92450  0.27193  1.0000
  C   C12       1.0  0.24049  0.07561  0.72854  1.0000
  C   C13       1.0  0.09347  0.88937  0.35029  1.0000
  C   C14       1.0  0.33264  0.11109  0.64977  1.0000
  C   C15       1.0  0.23122  0.78426  0.35959  1.0000
  C   C16       1.0  0.37468  0.21624  0.64015  1.0000
  C   C17       1.0  0.98848  0.96140  0.42439  1.0000
  C   C18       1.0  0.37378  0.03909  0.57584  1.0000
  C   C19       1.0  0.97766  0.94013  0.57676  1.0000
  C   C20       1.0  0.49463  0.06024  0.42319  1.0000
  C   C21       1.0  0.05669  0.88566  0.64599  1.0000
  C   C22       1.0  0.58875  0.11482  0.35354  1.0000
  C   C23       1.0  0.21704  0.78662  0.63743  1.0000
  C   C24       1.0  0.64233  0.21339  0.36170  1.0000
  C   C25       1.0  0.97696  0.91799  0.72890  1.0000
  C   C26       1.0  0.62415  0.08274  0.27073  1.0000
  C   C27       1.0  0.82100  0.99734  0.74516  1.0000
  C   C28       1.0  0.56345  0.00352  0.25500  1.0000
  C   C29       1.0  0.74274  0.04506  0.67752  1.0000
  C   C30       1.0  0.46513  0.95551  0.32315  1.0000
  C   C31       1.0  0.81991  0.01825  0.59353  1.0000
  C   C32       1.0  0.43157  0.98207  0.40707  1.0000
  C   C33       1.0  0.90503  0.51060  0.19641  1.0000
  C   C34       1.0  0.61134  0.48931  0.80394  1.0000
  C   C35       1.0  0.03584  0.54255  0.15342  1.0000
  C   C36       1.0  0.73095  0.45782  0.84643  1.0000
  C   C37       1.0  0.14838  0.51549  0.19809  1.0000
  C   C38       1.0  0.86155  0.48496  0.80117  1.0000
  C   C39       1.0  0.13074  0.45648  0.28616  1.0000
  C   C40       1.0  0.87351  0.54361  0.71303  1.0000
  C   C41       1.0  0.99339  0.43067  0.32467  1.0000
  C   C42       1.0  0.74884  0.56917  0.67510  1.0000
  C   C43       1.0  0.24053  0.42517  0.33770  1.0000
  C   C44       1.0  0.00403  0.57491  0.66084  1.0000
  C   C45       1.0  0.21172  0.37628  0.42436  1.0000
  C   C46       1.0  0.01334  0.62375  0.57421  1.0000
  C   C47       1.0  0.07165  0.35329  0.46582  1.0000
  C   C48       1.0  0.89165  0.64659  0.53337  1.0000
  C   C49       1.0  0.96373  0.37845  0.41569  1.0000
  C   C50       1.0  0.75835  0.62134  0.58411  1.0000
  C   C51       1.0  0.03188  0.30800  0.55576  1.0000
  C   C52       1.0  0.89668  0.69185  0.44352  1.0000
  C   C53       1.0  0.89452  0.28787  0.59014  1.0000
  C   C54       1.0  0.77349  0.71169  0.40980  1.0000
  C   C55       1.0  0.79457  0.31484  0.53529  1.0000
  C   C56       1.0  0.64526  0.68458  0.46524  1.0000
  C   C57       1.0  0.61289  0.23856  0.03947  1.0000
  C   C58       1.0  0.89196  0.76075  0.96119  1.0000
  C   C59       1.0  0.45233  0.30774  0.05186  1.0000
  C   C60       1.0  0.81345  0.69196  0.94815  1.0000
  C   C61       1.0  0.35830  0.25251  0.04223  1.0000
  C   C62       1.0  0.65434  0.74730  0.95765  1.0000
  C   C63       1.0  0.42453  0.12680  0.02092  1.0000
  C   C64       1.0  0.57292  0.87283  0.97926  1.0000
  C   C65       1.0  0.33714  0.06096  0.01011  1.0000
  C   C66       1.0  0.40864  0.93892  0.98971  1.0000
  C   C67       1.0  0.58745  0.06427  0.01027  1.0000
  C   C68       1.0  0.66225  0.93503  0.99045  1.0000
  N   N1        1.0  0.88482  0.45678  0.27975  1.0000
  N   N2        1.0  0.62106  0.54292  0.72058  1.0000
  N   N3        1.0  0.82836  0.35956  0.45082  1.0000
  N   N4        1.0  0.63907  0.64010  0.54966  1.0000
  N   N5        1.0  0.67824  0.12084  0.01839  1.0000
  N   N6        1.0  0.81787  0.87821  0.98269  1.0000
  O   O1        1.0  0.54174  0.53707  0.23691  1.0000
  O   O2        1.0  0.31545  0.46220  0.76329  1.0000
  O   O3        1.0  0.51517  0.57581  0.36935  1.0000
  O   O4        1.0  0.45991  0.42512  0.63021  1.0000
  O   O5        1.0  0.13594  0.80437  0.06896  1.0000
  O   O6        1.0  0.00808  0.19503  0.93207  1.0000
  O   O7        1.0  0.95334  0.98727  0.11376  1.0000
  O   O8        1.0  0.05448  0.01174  0.88761  1.0000
  O   O9        1.0  0.06280  0.91414  0.49612  1.0000
  O   O10       1.0  0.47319  0.08616  0.50366  1.0000
  O   O11       1.0  0.27427  0.71681  0.57734  1.0000
  O   O12       1.0  0.56836  0.28398  0.42151  1.0000
  O   O13       1.0  0.29357  0.76622  0.69454  1.0000
  O   O14       1.0  0.75727  0.23251  0.30496  1.0000
