data_image0
_chemical_formula_structural       CuH24C20S2N4O8
_chemical_formula_sum              "Cu1 H24 C20 S2 N4 O8"
_cell_length_a       7.36699
_cell_length_b       7.86346
_cell_length_c       11.3677
_cell_angle_alpha    100.462
_cell_angle_beta     100.467
_cell_angle_gamma    114.952

_space_group_name_H-M_alt    "P 1"
_space_group_IT_number       1

loop_
  _space_group_symop_operation_xyz
  'x, y, z'

loop_
  _atom_site_type_symbol
  _atom_site_label
  _atom_site_symmetry_multiplicity
  _atom_site_fract_x
  _atom_site_fract_y
  _atom_site_fract_z
  _atom_site_occupancy
  Cu  Cu1       1.0  0.00000  0.50000  0.50000  1.0000
  H   H1        1.0  0.29639  0.56528  0.67362  1.0000
  H   H2        1.0  0.70361  0.43472  0.32638  1.0000
  H   H3        1.0  0.38079  0.57571  0.54922  1.0000
  H   H4        1.0  0.61921  0.42429  0.45078  1.0000
  H   H5        1.0  0.48783  0.78283  0.94613  1.0000
  H   H6        1.0  0.51217  0.21716  0.05387  1.0000
  H   H7        1.0  0.19731  0.88663  0.73614  1.0000
  H   H8        1.0  0.80269  0.11337  0.26386  1.0000
  H   H9        1.0  0.33674  0.08076  0.67427  1.0000
  H   H10       1.0  0.66326  0.91924  0.32573  1.0000
  H   H11       1.0  0.94681  0.98298  0.62392  1.0000
  H   H12       1.0  0.05320  0.01703  0.37608  1.0000
  H   H13       1.0  0.80042  0.80555  0.47442  1.0000
  H   H14       1.0  0.19958  0.19446  0.52558  1.0000
  H   H15       1.0  0.54150  0.61353  0.10656  1.0000
  H   H16       1.0  0.45850  0.38647  0.89344  1.0000
  H   H17       1.0  0.20693  0.88078  0.92627  1.0000
  H   H18       1.0  0.79307  0.11923  0.07373  1.0000
  H   H19       1.0  0.97215  0.81109  0.06346  1.0000
  H   H20       1.0  0.02785  0.18891  0.93654  1.0000
  H   H21       1.0  0.54022  0.89973  0.72262  1.0000
  H   H22       1.0  0.45977  0.10027  0.27738  1.0000
  H   H23       1.0  0.47183  0.88663  0.56197  1.0000
  H   H24       1.0  0.52818  0.11337  0.43803  1.0000
  C   C1        1.0  0.12228  0.66951  0.15824  1.0000
  C   C2        1.0  0.87772  0.33049  0.84176  1.0000
  C   C3        1.0  0.28000  0.61460  0.16761  1.0000
  C   C4        1.0  0.72000  0.38540  0.83239  1.0000
  C   C5        1.0  0.99605  0.60461  0.24610  1.0000
  C   C6        1.0  0.00395  0.39539  0.75390  1.0000
  C   C7        1.0  0.38665  0.75127  0.00695  1.0000
  C   C8        1.0  0.61336  0.24873  0.99306  1.0000
  C   C9        1.0  0.25827  0.92094  0.65692  1.0000
  C   C10       1.0  0.74173  0.07905  0.34308  1.0000
  C   C11       1.0  0.95642  0.92045  0.53183  1.0000
  C   C12       1.0  0.04359  0.07955  0.46817  1.0000
  C   C13       1.0  0.41596  0.65367  0.09437  1.0000
  C   C14       1.0  0.58404  0.34633  0.90563  1.0000
  C   C15       1.0  0.22902  0.80770  0.99614  1.0000
  C   C16       1.0  0.77098  0.19230  0.00386  1.0000
  C   C17       1.0  0.09538  0.76812  0.07200  1.0000
  C   C18       1.0  0.90462  0.23188  0.92800  1.0000
  C   C19       1.0  0.40802  0.84036  0.63749  1.0000
  C   C20       1.0  0.59197  0.15964  0.36251  1.0000
  S   S1        1.0  0.26364  0.48861  0.28284  1.0000
  S   S2        1.0  0.73636  0.51139  0.71716  1.0000
  N   N1        1.0  0.07021  0.51472  0.32052  1.0000
  N   N2        1.0  0.92979  0.48528  0.67947  1.0000
  N   N3        1.0  0.30071  0.62375  0.59936  1.0000
  N   N4        1.0  0.69929  0.37624  0.40064  1.0000
  O   O1        1.0  0.08768  0.82837  0.54420  1.0000
  O   O2        1.0  0.91232  0.17163  0.45579  1.0000
  O   O3        1.0  0.20476  0.28408  0.22763  1.0000
  O   O4        1.0  0.79524  0.71591  0.77237  1.0000
  O   O5        1.0  0.83969  0.62836  0.24878  1.0000
  O   O6        1.0  0.16031  0.37163  0.75121  1.0000
  O   O7        1.0  0.45405  0.59591  0.38771  1.0000
  O   O8        1.0  0.54595  0.40409  0.61229  1.0000
