data_image0
_chemical_formula_structural       Ag12P4H32C56O24
_chemical_formula_sum              "Ag12 P4 H32 C56 O24"
_cell_length_a       5.83314
_cell_length_b       16.2788
_cell_length_c       16.2015
_cell_angle_alpha    67.5432
_cell_angle_beta     79.7947
_cell_angle_gamma    80.1356

_space_group_name_H-M_alt    "P 1"
_space_group_IT_number       1

loop_
  _space_group_symop_operation_xyz
  'x, y, z'

loop_
  _atom_site_type_symbol
  _atom_site_label
  _atom_site_symmetry_multiplicity
  _atom_site_fract_x
  _atom_site_fract_y
  _atom_site_fract_z
  _atom_site_occupancy
  Ag  Ag1       1.0  0.10413  0.38445  0.21563  1.0000
  Ag  Ag2       1.0  0.71347  0.61567  0.78484  1.0000
  Ag  Ag3       1.0  0.21485  0.78376  0.61672  1.0000
  Ag  Ag4       1.0  0.60498  0.21524  0.38366  1.0000
  Ag  Ag5       1.0  0.76238  0.32687  0.14120  1.0000
  Ag  Ag6       1.0  0.24432  0.67356  0.85805  1.0000
  Ag  Ag7       1.0  0.74522  0.85892  0.67243  1.0000
  Ag  Ag8       1.0  0.26186  0.13904  0.32778  1.0000
  Ag  Ag9       1.0  0.01266  0.52382  0.04214  1.0000
  Ag  Ag10      1.0  0.57570  0.47764  0.95769  1.0000
  Ag  Ag11      1.0  0.07562  0.95570  0.47930  1.0000
  Ag  Ag12      1.0  0.50863  0.04250  0.52335  1.0000
  P   P1        1.0  0.12429  0.39400  0.91910  1.0000
  P   P2        1.0  0.44303  0.60817  0.07967  1.0000
  P   P3        1.0  0.93845  0.08039  0.60727  1.0000
  P   P4        1.0  0.62515  0.91761  0.39570  1.0000
  H   H1        1.0  0.58625  0.12736  0.11556  1.0000
  H   H2        1.0  0.84883  0.87391  0.88436  1.0000
  H   H3        1.0  0.35159  0.88729  0.87104  1.0000
  H   H4        1.0  0.08387  0.11526  0.12569  1.0000
  H   H5        1.0  0.77212  0.07493  0.99039  1.0000
  H   H6        1.0  0.85057  0.92846  0.00887  1.0000
  H   H7        1.0  0.35049  0.01092  0.92667  1.0000
  H   H8        1.0  0.27416  0.99099  0.07350  1.0000
  H   H9        1.0  0.67452  0.16299  0.83433  1.0000
  H   H10       1.0  0.67467  0.84212  0.16419  1.0000
  H   H11       1.0  0.16810  0.16439  0.84220  1.0000
  H   H12       1.0  0.18279  0.83485  0.16376  1.0000
  H   H13       1.0  0.40241  0.30242  0.80426  1.0000
  H   H14       1.0  0.50932  0.70209  0.19415  1.0000
  H   H15       1.0  0.00104  0.19368  0.70247  1.0000
  H   H16       1.0  0.90992  0.80398  0.30463  1.0000
  H   H17       1.0  0.86885  0.30862  0.84949  1.0000
  H   H18       1.0  0.03423  0.69347  0.14820  1.0000
  H   H19       1.0  0.52809  0.14832  0.69322  1.0000
  H   H20       1.0  0.37212  0.84835  0.30914  1.0000
  H   H21       1.0  0.78660  0.33174  0.69596  1.0000
  H   H22       1.0  0.81624  0.66846  0.30097  1.0000
  H   H23       1.0  0.31367  0.30021  0.66870  1.0000
  H   H24       1.0  0.29035  0.69558  0.33117  1.0000
  H   H25       1.0  0.93817  0.45751  0.56507  1.0000
  H   H26       1.0  0.95393  0.54129  0.43188  1.0000
  H   H27       1.0  0.45678  0.43074  0.54149  1.0000
  H   H28       1.0  0.43981  0.56513  0.45686  1.0000
  H   H29       1.0  0.15900  0.56464  0.58698  1.0000
  H   H30       1.0  0.30102  0.43462  0.41060  1.0000
  H   H31       1.0  0.80542  0.40982  0.43422  1.0000
  H   H32       1.0  0.65912  0.58658  0.56484  1.0000
  C   C1        1.0  0.28624  0.27384  0.10671  1.0000
  C   C2        1.0  0.68210  0.72738  0.89279  1.0000
  C   C3        1.0  0.18227  0.89469  0.72536  1.0000
  C   C4        1.0  0.78614  0.10531  0.27443  1.0000
  C   C5        1.0  0.39571  0.24427  0.03012  1.0000
  C   C6        1.0  0.68382  0.75738  0.96943  1.0000
  C   C7        1.0  0.18205  0.97115  0.75558  1.0000
  C   C8        1.0  0.89591  0.02936  0.24448  1.0000
  C   C9        1.0  0.54726  0.16473  0.04692  1.0000
  C   C10       1.0  0.77443  0.83722  0.95266  1.0000
  C   C11       1.0  0.27470  0.95484  0.83507  1.0000
  C   C12       1.0  0.04703  0.04664  0.16393  1.0000
  C   C13       1.0  0.64967  0.13587  0.97669  1.0000
  C   C14       1.0  0.77383  0.86734  0.02251  1.0000
  C   C15       1.0  0.27233  0.02414  0.86585  1.0000
  C   C16       1.0  0.15201  0.97690  0.13520  1.0000
  C   C17       1.0  0.59647  0.18540  0.88945  1.0000
  C   C18       1.0  0.67710  0.81877  0.10933  1.0000
  C   C19       1.0  0.17199  0.10996  0.81836  1.0000
  C   C20       1.0  0.10210  0.88964  0.18589  1.0000
  C   C21       1.0  0.44248  0.26408  0.87263  1.0000
  C   C22       1.0  0.58364  0.73971  0.12609  1.0000
  C   C23       1.0  0.07736  0.12634  0.73951  1.0000
  C   C24       1.0  0.94785  0.87234  0.26540  1.0000
  C   C25       1.0  0.34014  0.29509  0.94202  1.0000
  C   C26       1.0  0.58565  0.70736  0.05712  1.0000
  C   C27       1.0  0.08100  0.05794  0.70650  1.0000
  C   C28       1.0  0.84258  0.94127  0.29614  1.0000
  C   C29       1.0  0.06998  0.42035  0.80448  1.0000
  C   C30       1.0  0.29729  0.58149  0.19378  1.0000
  C   C31       1.0  0.79420  0.19381  0.58083  1.0000
  C   C32       1.0  0.57060  0.80343  0.42151  1.0000
  C   C33       1.0  0.93691  0.36326  0.79128  1.0000
  C   C34       1.0  0.09534  0.63830  0.20645  1.0000
  C   C35       1.0  0.59138  0.20632  0.63797  1.0000
  C   C36       1.0  0.43909  0.79037  0.36381  1.0000
  C   C37       1.0  0.89061  0.37612  0.70568  1.0000
  C   C38       1.0  0.97316  0.62432  0.29164  1.0000
  C   C39       1.0  0.47127  0.29105  0.62430  1.0000
  C   C40       1.0  0.39305  0.70520  0.37607  1.0000
  C   C41       1.0  0.97420  0.44781  0.63210  1.0000
  C   C42       1.0  0.04996  0.55186  0.36523  1.0000
  C   C43       1.0  0.55103  0.36442  0.55183  1.0000
  C   C44       1.0  0.47552  0.63182  0.44770  1.0000
  C   C45       1.0  0.10169  0.50663  0.64400  1.0000
  C   C46       1.0  0.24636  0.49329  0.35375  1.0000
  C   C47       1.0  0.74840  0.35313  0.49294  1.0000
  C   C48       1.0  0.60202  0.64351  0.50701  1.0000
  C   C49       1.0  0.15420  0.49275  0.72987  1.0000
  C   C50       1.0  0.37403  0.50820  0.26833  1.0000
  C   C51       1.0  0.87390  0.26818  0.50753  1.0000
  C   C52       1.0  0.65402  0.72900  0.49377  1.0000
  C   C53       1.0  0.29078  0.55803  0.74073  1.0000
  C   C54       1.0  0.58365  0.44260  0.25830  1.0000
  C   C55       1.0  0.08446  0.25835  0.44155  1.0000
  C   C56       1.0  0.79004  0.73978  0.55929  1.0000
  O   O1        1.0  0.13796  0.22816  0.16556  1.0000
  O   O2        1.0  0.55145  0.77359  0.83286  1.0000
  O   O3        1.0  0.05240  0.83429  0.77218  1.0000
  O   O4        1.0  0.63902  0.16378  0.22874  1.0000
  O   O5        1.0  0.34495  0.34678  0.10612  1.0000
  O   O6        1.0  0.80840  0.65390  0.89437  1.0000
  O   O7        1.0  0.30979  0.89636  0.65144  1.0000
  O   O8        1.0  0.84422  0.10485  0.34764  1.0000
  O   O9        1.0  0.89697  0.36687  0.98125  1.0000
  O   O10       1.0  0.25261  0.63513  0.01680  1.0000
  O   O11       1.0  0.74769  0.01735  0.63477  1.0000
  O   O12       1.0  0.39881  0.97911  0.36858  1.0000
  O   O13       1.0  0.21798  0.47394  0.92445  1.0000
  O   O14       1.0  0.61860  0.52805  0.07502  1.0000
  O   O15       1.0  0.11495  0.07598  0.52653  1.0000
  O   O16       1.0  0.71715  0.92306  0.47611  1.0000
  O   O17       1.0  0.50943  0.53772  0.74291  1.0000
  O   O18       1.0  0.78488  0.46269  0.25674  1.0000
  O   O19       1.0  0.28520  0.25690  0.46179  1.0000
  O   O20       1.0  0.00897  0.74197  0.53865  1.0000
  O   O21       1.0  0.16849  0.62959  0.74574  1.0000
  O   O22       1.0  0.53480  0.37085  0.25373  1.0000
  O   O23       1.0  0.03704  0.25366  0.36940  1.0000
  O   O24       1.0  0.66713  0.74501  0.63127  1.0000
