data_image0
_chemical_formula_structural       Ag4P4H40C56O24
_chemical_formula_sum              "Ag4 P4 H40 C56 O24"
_cell_length_a       8.03345
_cell_length_b       11.3053
_cell_length_c       14.0805
_cell_angle_alpha    90
_cell_angle_beta     90
_cell_angle_gamma    90

_space_group_name_H-M_alt    "P 1"
_space_group_IT_number       1

loop_
  _space_group_symop_operation_xyz
  'x, y, z'

loop_
  _atom_site_type_symbol
  _atom_site_label
  _atom_site_symmetry_multiplicity
  _atom_site_fract_x
  _atom_site_fract_y
  _atom_site_fract_z
  _atom_site_occupancy
  Ag  Ag1       1.0  0.50000  0.84622  0.25000  1.0000
  Ag  Ag2       1.0  0.00000  0.65378  0.75000  1.0000
  Ag  Ag3       1.0  0.50000  0.15378  0.75000  1.0000
  Ag  Ag4       1.0  0.00000  0.34622  0.25000  1.0000
  P   P1        1.0  0.50000  0.11797  0.25000  1.0000
  P   P2        1.0  0.00000  0.38203  0.75000  1.0000
  P   P3        1.0  0.50000  0.88203  0.75000  1.0000
  P   P4        1.0  0.00000  0.61797  0.25000  1.0000
  H   H1        1.0  0.34900  0.46216  0.03960  1.0000
  H   H2        1.0  0.15100  0.03784  0.53960  1.0000
  H   H3        1.0  0.84900  0.03785  0.96040  1.0000
  H   H4        1.0  0.65101  0.46216  0.46040  1.0000
  H   H5        1.0  0.65100  0.53784  0.96040  1.0000
  H   H6        1.0  0.84900  0.96215  0.46040  1.0000
  H   H7        1.0  0.15100  0.96216  0.03960  1.0000
  H   H8        1.0  0.34900  0.53785  0.53960  1.0000
  H   H9        1.0  0.06012  0.39036  0.01500  1.0000
  H   H10       1.0  0.43988  0.10964  0.51501  1.0000
  H   H11       1.0  0.56013  0.10964  0.98500  1.0000
  H   H12       1.0  0.93988  0.39036  0.48499  1.0000
  H   H13       1.0  0.93988  0.60964  0.98500  1.0000
  H   H14       1.0  0.56012  0.89036  0.48499  1.0000
  H   H15       1.0  0.43988  0.89036  0.01501  1.0000
  H   H16       1.0  0.06012  0.60964  0.51501  1.0000
  H   H17       1.0  0.96894  0.20101  0.09212  1.0000
  H   H18       1.0  0.53106  0.29899  0.59212  1.0000
  H   H19       1.0  0.46894  0.29899  0.90788  1.0000
  H   H20       1.0  0.03106  0.20101  0.40788  1.0000
  H   H21       1.0  0.03106  0.79899  0.90788  1.0000
  H   H22       1.0  0.46893  0.70101  0.40788  1.0000
  H   H23       1.0  0.53106  0.70101  0.09212  1.0000
  H   H24       1.0  0.96894  0.79899  0.59212  1.0000
  H   H25       1.0  0.16330  0.09164  0.19605  1.0000
  H   H26       1.0  0.33669  0.40836  0.69605  1.0000
  H   H27       1.0  0.66330  0.40836  0.80395  1.0000
  H   H28       1.0  0.83669  0.09164  0.30395  1.0000
  H   H29       1.0  0.83670  0.90836  0.80394  1.0000
  H   H30       1.0  0.66330  0.59164  0.30394  1.0000
  H   H31       1.0  0.33669  0.59164  0.19605  1.0000
  H   H32       1.0  0.16330  0.90836  0.69606  1.0000
  H   H33       1.0  0.72381  0.50781  0.15505  1.0000
  H   H34       1.0  0.77619  0.99219  0.65505  1.0000
  H   H35       1.0  0.22381  0.99219  0.84495  1.0000
  H   H36       1.0  0.27620  0.50781  0.34495  1.0000
  H   H37       1.0  0.27619  0.49219  0.84495  1.0000
  H   H38       1.0  0.22380  0.00781  0.34495  1.0000
  H   H39       1.0  0.77619  0.00781  0.15505  1.0000
  H   H40       1.0  0.72381  0.49219  0.65505  1.0000
  C   C1        1.0  0.59459  0.36264  0.13928  1.0000
  C   C2        1.0  0.90541  0.13736  0.63928  1.0000
  C   C3        1.0  0.09459  0.13736  0.86072  1.0000
  C   C4        1.0  0.40541  0.36264  0.36072  1.0000
  C   C5        1.0  0.40541  0.63736  0.86072  1.0000
  C   C6        1.0  0.09459  0.86264  0.36072  1.0000
  C   C7        1.0  0.90541  0.86264  0.13928  1.0000
  C   C8        1.0  0.59459  0.63736  0.63928  1.0000
  C   C9        1.0  0.42163  0.31603  0.12849  1.0000
  C   C10       1.0  0.07837  0.18397  0.62849  1.0000
  C   C11       1.0  0.92163  0.18397  0.87151  1.0000
  C   C12       1.0  0.57837  0.31603  0.37151  1.0000
  C   C13       1.0  0.57837  0.68397  0.87151  1.0000
  C   C14       1.0  0.92163  0.81603  0.37151  1.0000
  C   C15       1.0  0.07837  0.81603  0.12849  1.0000
  C   C16       1.0  0.42163  0.68397  0.62849  1.0000
  C   C17       1.0  0.30786  0.38070  0.07335  1.0000
  C   C18       1.0  0.19214  0.11930  0.57335  1.0000
  C   C19       1.0  0.80786  0.11930  0.92665  1.0000
  C   C20       1.0  0.69214  0.38070  0.42665  1.0000
  C   C21       1.0  0.69214  0.61930  0.92666  1.0000
  C   C22       1.0  0.80786  0.88070  0.42665  1.0000
  C   C23       1.0  0.19214  0.88070  0.07334  1.0000
  C   C24       1.0  0.30786  0.61930  0.57335  1.0000
  C   C25       1.0  0.14550  0.34095  0.06012  1.0000
  C   C26       1.0  0.35450  0.15906  0.56012  1.0000
  C   C27       1.0  0.64550  0.15906  0.93988  1.0000
  C   C28       1.0  0.85450  0.34094  0.43988  1.0000
  C   C29       1.0  0.85450  0.65905  0.93988  1.0000
  C   C30       1.0  0.64550  0.84094  0.43988  1.0000
  C   C31       1.0  0.35450  0.84094  0.06012  1.0000
  C   C32       1.0  0.14550  0.65906  0.56012  1.0000
  C   C33       1.0  0.09349  0.23578  0.10447  1.0000
  C   C34       1.0  0.40651  0.26422  0.60447  1.0000
  C   C35       1.0  0.59349  0.26422  0.89553  1.0000
  C   C36       1.0  0.90651  0.23578  0.39553  1.0000
  C   C37       1.0  0.90651  0.76422  0.89553  1.0000
  C   C38       1.0  0.59348  0.73578  0.39553  1.0000
  C   C39       1.0  0.40651  0.73578  0.10447  1.0000
  C   C40       1.0  0.09349  0.76422  0.60447  1.0000
  C   C41       1.0  0.20593  0.17195  0.16099  1.0000
  C   C42       1.0  0.29407  0.32805  0.66099  1.0000
  C   C43       1.0  0.70593  0.32805  0.83901  1.0000
  C   C44       1.0  0.79406  0.17195  0.33901  1.0000
  C   C45       1.0  0.79407  0.82804  0.83901  1.0000
  C   C46       1.0  0.70593  0.67195  0.33901  1.0000
  C   C47       1.0  0.29407  0.67196  0.16099  1.0000
  C   C48       1.0  0.20593  0.82805  0.66099  1.0000
  C   C49       1.0  0.37073  0.21014  0.17324  1.0000
  C   C50       1.0  0.12927  0.28986  0.67324  1.0000
  C   C51       1.0  0.87073  0.28985  0.82676  1.0000
  C   C52       1.0  0.62926  0.21015  0.32676  1.0000
  C   C53       1.0  0.62927  0.78985  0.82676  1.0000
  C   C54       1.0  0.87073  0.71014  0.32676  1.0000
  C   C55       1.0  0.12927  0.71015  0.17324  1.0000
  C   C56       1.0  0.37073  0.78986  0.67324  1.0000
  O   O1        1.0  0.60305  0.48010  0.13850  1.0000
  O   O2        1.0  0.89695  0.01990  0.63850  1.0000
  O   O3        1.0  0.10305  0.01990  0.86150  1.0000
  O   O4        1.0  0.39695  0.48010  0.36150  1.0000
  O   O5        1.0  0.39695  0.51990  0.86150  1.0000
  O   O6        1.0  0.10305  0.98010  0.36150  1.0000
  O   O7        1.0  0.89695  0.98010  0.13850  1.0000
  O   O8        1.0  0.60305  0.51990  0.63850  1.0000
  O   O9        1.0  0.71655  0.29688  0.14861  1.0000
  O   O10       1.0  0.78345  0.20312  0.64861  1.0000
  O   O11       1.0  0.21655  0.20312  0.85139  1.0000
  O   O12       1.0  0.28345  0.29688  0.35139  1.0000
  O   O13       1.0  0.28345  0.70312  0.85139  1.0000
  O   O14       1.0  0.21655  0.79688  0.35139  1.0000
  O   O15       1.0  0.78345  0.79688  0.14861  1.0000
  O   O16       1.0  0.71655  0.70312  0.64861  1.0000
  O   O17       1.0  0.39109  0.04027  0.31365  1.0000
  O   O18       1.0  0.10891  0.45973  0.81365  1.0000
  O   O19       1.0  0.89109  0.45973  0.68635  1.0000
  O   O20       1.0  0.60891  0.04027  0.18635  1.0000
  O   O21       1.0  0.60891  0.95973  0.68635  1.0000
  O   O22       1.0  0.89109  0.54026  0.18635  1.0000
  O   O23       1.0  0.10891  0.54027  0.31365  1.0000
  O   O24       1.0  0.39109  0.95973  0.81365  1.0000
