data_image0
_chemical_formula_structural       Ag4H8C12N12O12
_chemical_formula_sum              "Ag4 H8 C12 N12 O12"
_cell_length_a       3.58453
_cell_length_b       9.57784
_cell_length_c       15.6392
_cell_angle_alpha    90.0006
_cell_angle_beta     90.0015
_cell_angle_gamma    99.3551

_space_group_name_H-M_alt    "P 1"
_space_group_IT_number       1

loop_
  _space_group_symop_operation_xyz
  'x, y, z'

loop_
  _atom_site_type_symbol
  _atom_site_label
  _atom_site_symmetry_multiplicity
  _atom_site_fract_x
  _atom_site_fract_y
  _atom_site_fract_z
  _atom_site_occupancy
  Ag  Ag1       1.0  0.75427  0.67337  0.42449  1.0000
  Ag  Ag2       1.0  0.24571  0.82662  0.92449  1.0000
  Ag  Ag3       1.0  0.24573  0.32663  0.57551  1.0000
  Ag  Ag4       1.0  0.75429  0.17338  0.07551  1.0000
  H   H1        1.0  0.42105  0.46201  0.06796  1.0000
  H   H2        1.0  0.57896  0.03799  0.56796  1.0000
  H   H3        1.0  0.57897  0.53800  0.93204  1.0000
  H   H4        1.0  0.42102  0.96201  0.43204  1.0000
  H   H5        1.0  0.50750  0.52306  0.17471  1.0000
  H   H6        1.0  0.49251  0.97695  0.67470  1.0000
  H   H7        1.0  0.49249  0.47695  0.82528  1.0000
  H   H8        1.0  0.50748  0.02305  0.32529  1.0000
  C   C1        1.0  0.92416  0.76370  0.14424  1.0000
  C   C2        1.0  0.07587  0.73630  0.64424  1.0000
  C   C3        1.0  0.07582  0.23630  0.85575  1.0000
  C   C4        1.0  0.92414  0.26370  0.35576  1.0000
  C   C5        1.0  0.11335  0.89361  0.11514  1.0000
  C   C6        1.0  0.88668  0.60639  0.61516  1.0000
  C   C7        1.0  0.88664  0.10638  0.88486  1.0000
  C   C8        1.0  0.11334  0.39362  0.38485  1.0000
  C   C9        1.0  0.75695  0.65585  0.08285  1.0000
  C   C10       1.0  0.24310  0.84416  0.58287  1.0000
  C   C11       1.0  0.24305  0.34415  0.91714  1.0000
  C   C12       1.0  0.75691  0.15584  0.41714  1.0000
  N   N1        1.0  0.90000  0.74956  0.23278  1.0000
  N   N2        1.0  0.10003  0.75046  0.73277  1.0000
  N   N3        1.0  0.10000  0.25045  0.76722  1.0000
  N   N4        1.0  0.89997  0.24954  0.26723  1.0000
  N   N5        1.0  0.25427  0.00518  0.08945  1.0000
  N   N6        1.0  0.74576  0.49483  0.58946  1.0000
  N   N7        1.0  0.74573  0.99483  0.91055  1.0000
  N   N8        1.0  0.25424  0.50516  0.41054  1.0000
  N   N9        1.0  0.54460  0.53797  0.11053  1.0000
  N   N10       1.0  0.45539  0.96202  0.61052  1.0000
  N   N11       1.0  0.45538  0.46202  0.88947  1.0000
  N   N12       1.0  0.54460  0.03797  0.38948  1.0000
  O   O1        1.0  0.70490  0.64008  0.26565  1.0000
  O   O2        1.0  0.29507  0.85990  0.76565  1.0000
  O   O3        1.0  0.29510  0.35993  0.73436  1.0000
  O   O4        1.0  0.70491  0.14009  0.23435  1.0000
  O   O5        1.0  0.07043  0.84634  0.27971  1.0000
  O   O6        1.0  0.92966  0.65370  0.77972  1.0000
  O   O7        1.0  0.92956  0.15366  0.72030  1.0000
  O   O8        1.0  0.07036  0.34630  0.22029  1.0000
  O   O9        1.0  0.81064  0.67809  0.00257  1.0000
  O   O10       1.0  0.18938  0.82191  0.50258  1.0000
  O   O11       1.0  0.18935  0.32191  0.99744  1.0000
  O   O12       1.0  0.81062  0.17809  0.49743  1.0000
