data_image0
_chemical_formula_structural       Nd2H38C68O16
_chemical_formula_sum              "Nd2 H38 C68 O16"
_cell_length_a       9.32465
_cell_length_b       11.9712
_cell_length_c       15.8071
_cell_angle_alpha    81.188
_cell_angle_beta     73.6986
_cell_angle_gamma    71.1555

_space_group_name_H-M_alt    "P 1"
_space_group_IT_number       1

loop_
  _space_group_symop_operation_xyz
  'x, y, z'

loop_
  _atom_site_type_symbol
  _atom_site_label
  _atom_site_symmetry_multiplicity
  _atom_site_fract_x
  _atom_site_fract_y
  _atom_site_fract_z
  _atom_site_occupancy
  Nd  Nd1       1.0  0.18423  0.02836  0.01976  1.0000
  Nd  Nd2       1.0  0.81577  0.97164  0.98024  1.0000
  H   H1        1.0  0.47619  0.19235  0.05248  1.0000
  H   H2        1.0  0.52381  0.80765  0.94752  1.0000
  H   H3        1.0  0.62739  0.71787  0.50296  1.0000
  H   H4        1.0  0.37261  0.28213  0.49704  1.0000
  H   H5        1.0  0.82475  0.28368  0.52075  1.0000
  H   H6        1.0  0.17525  0.71632  0.47925  1.0000
  H   H7        1.0  0.85549  0.23637  0.38026  1.0000
  H   H8        1.0  0.14451  0.76363  0.61974  1.0000
  H   H9        1.0  0.05299  0.12955  0.25405  1.0000
  H   H10       1.0  0.94701  0.87045  0.74595  1.0000
  H   H11       1.0  0.29748  0.39008  0.21189  1.0000
  H   H12       1.0  0.70252  0.60992  0.78811  1.0000
  H   H13       1.0  0.10584  0.49353  0.34097  1.0000
  H   H14       1.0  0.89416  0.50647  0.65903  1.0000
  H   H15       1.0  0.81421  0.56670  0.25686  1.0000
  H   H16       1.0  0.18579  0.43330  0.74314  1.0000
  H   H17       1.0  0.90230  0.70890  0.13818  1.0000
  H   H18       1.0  0.09770  0.29110  0.86182  1.0000
  H   H19       1.0  0.98449  0.88618  0.32842  1.0000
  H   H20       1.0  0.01551  0.11381  0.67158  1.0000
  H   H21       1.0  0.88668  0.74791  0.44934  1.0000
  H   H22       1.0  0.11331  0.25209  0.55066  1.0000
  H   H23       1.0  0.59794  0.77543  0.62762  1.0000
  H   H24       1.0  0.40206  0.22457  0.37237  1.0000
  H   H25       1.0  0.41702  0.88844  0.75382  1.0000
  H   H26       1.0  0.58298  0.11156  0.24618  1.0000
  H   H27       1.0  0.18429  0.61938  0.83257  1.0000
  H   H28       1.0  0.81571  0.38062  0.16743  1.0000
  H   H29       1.0  0.36864  0.50278  0.70787  1.0000
  H   H30       1.0  0.63136  0.49722  0.29213  1.0000
  H   H31       1.0  0.71848  0.43455  0.75145  1.0000
  H   H32       1.0  0.28152  0.56545  0.24855  1.0000
  H   H33       1.0  0.64959  0.30524  0.88514  1.0000
  H   H34       1.0  0.35041  0.69476  0.11486  1.0000
  H   H35       1.0  0.45463  0.13776  0.74224  1.0000
  H   H36       1.0  0.54537  0.86224  0.25776  1.0000
  H   H37       1.0  0.53651  0.26042  0.60525  1.0000
  H   H38       1.0  0.46349  0.73958  0.39475  1.0000
  C   C1        1.0  0.84180  0.44221  0.43921  1.0000
  C   C2        1.0  0.15820  0.55779  0.56080  1.0000
  C   C3        1.0  0.78739  0.56762  0.43591  1.0000
  C   C4        1.0  0.21261  0.43238  0.56409  1.0000
  C   C5        1.0  0.67352  0.62172  0.50826  1.0000
  C   C6        1.0  0.32648  0.37828  0.49174  1.0000
  C   C7        1.0  0.61370  0.56003  0.58584  1.0000
  C   C8        1.0  0.38630  0.43997  0.41416  1.0000
  C   C9        1.0  0.67086  0.43466  0.58952  1.0000
  C   C10       1.0  0.32914  0.56533  0.41048  1.0000
  C   C11       1.0  0.77931  0.37995  0.51575  1.0000
  C   C12       1.0  0.22069  0.62005  0.48425  1.0000
  C   C13       1.0  0.96417  0.37485  0.36794  1.0000
  C   C14       1.0  0.03583  0.62515  0.63206  1.0000
  C   C15       1.0  0.95415  0.26904  0.34478  1.0000
  C   C16       1.0  0.04585  0.73096  0.65522  1.0000
  C   C17       1.0  0.06316  0.20938  0.27396  1.0000
  C   C18       1.0  0.93684  0.79062  0.72604  1.0000
  C   C19       1.0  0.18495  0.25498  0.22450  1.0000
  C   C20       1.0  0.81506  0.74502  0.77550  1.0000
  C   C21       1.0  0.20035  0.35721  0.24950  1.0000
  C   C22       1.0  0.79965  0.64279  0.75050  1.0000
  C   C23       1.0  0.09245  0.41518  0.32103  1.0000
  C   C24       1.0  0.90755  0.58482  0.67897  1.0000
  C   C25       1.0  0.29295  0.19584  0.14564  1.0000
  C   C26       1.0  0.70705  0.80416  0.85436  1.0000
  C   C27       1.0  0.84290  0.64786  0.36166  1.0000
  C   C28       1.0  0.15710  0.35215  0.63834  1.0000
  C   C29       1.0  0.84893  0.63755  0.27332  1.0000
  C   C30       1.0  0.15107  0.36245  0.72668  1.0000
  C   C31       1.0  0.89919  0.71665  0.20649  1.0000
  C   C32       1.0  0.10081  0.28335  0.79352  1.0000
  C   C33       1.0  0.94833  0.80633  0.22633  1.0000
  C   C34       1.0  0.05166  0.19367  0.77367  1.0000
  C   C35       1.0  0.94305  0.81743  0.31421  1.0000
  C   C36       1.0  0.05695  0.18257  0.68579  1.0000
  C   C37       1.0  0.88889  0.74015  0.38109  1.0000
  C   C38       1.0  0.11111  0.25985  0.61891  1.0000
  C   C39       1.0  0.01446  0.88603  0.15562  1.0000
  C   C40       1.0  0.98554  0.11397  0.84438  1.0000
  C   C41       1.0  0.49842  0.62904  0.65883  1.0000
  C   C42       1.0  0.50158  0.37096  0.34117  1.0000
  C   C43       1.0  0.50666  0.74064  0.67151  1.0000
  C   C44       1.0  0.49334  0.25936  0.32849  1.0000
  C   C45       1.0  0.40607  0.80435  0.74248  1.0000
  C   C46       1.0  0.59393  0.19565  0.25752  1.0000
  C   C47       1.0  0.29106  0.76008  0.80191  1.0000
  C   C48       1.0  0.70895  0.23992  0.19809  1.0000
  C   C49       1.0  0.27671  0.65205  0.78768  1.0000
  C   C50       1.0  0.72329  0.34795  0.21232  1.0000
  C   C51       1.0  0.37987  0.58718  0.71774  1.0000
  C   C52       1.0  0.62013  0.41282  0.28226  1.0000
  C   C53       1.0  0.18653  0.82901  0.87897  1.0000
  C   C54       1.0  0.81347  0.17099  0.12103  1.0000
  C   C55       1.0  0.62984  0.35740  0.66956  1.0000
  C   C56       1.0  0.37017  0.64260  0.33044  1.0000
  C   C57       1.0  0.66209  0.36893  0.74884  1.0000
  C   C58       1.0  0.33791  0.63107  0.25116  1.0000
  C   C59       1.0  0.62307  0.29718  0.82385  1.0000
  C   C60       1.0  0.37693  0.70282  0.17615  1.0000
  C   C61       1.0  0.54534  0.21524  0.82217  1.0000
  C   C62       1.0  0.45466  0.78476  0.17783  1.0000
  C   C63       1.0  0.51527  0.20150  0.74307  1.0000
  C   C64       1.0  0.48473  0.79850  0.25693  1.0000
  C   C65       1.0  0.56076  0.27014  0.66689  1.0000
  C   C66       1.0  0.43924  0.72986  0.33311  1.0000
  C   C67       1.0  0.49086  0.14792  0.90577  1.0000
  C   C68       1.0  0.50915  0.85208  0.09423  1.0000
  O   O1        1.0  0.27736  0.10814  0.11988  1.0000
  O   O2        1.0  0.72264  0.89187  0.88012  1.0000
  O   O3        1.0  0.40698  0.24236  0.10398  1.0000
  O   O4        1.0  0.59302  0.75764  0.89602  1.0000
  O   O5        1.0  0.09372  0.94428  0.17252  1.0000
  O   O6        1.0  0.90628  0.05572  0.82748  1.0000
  O   O7        1.0  0.99605  0.89192  0.07672  1.0000
  O   O8        1.0  0.00395  0.10808  0.92328  1.0000
  O   O9        1.0  0.24439  0.89306  0.90912  1.0000
  O   O10       1.0  0.75561  0.10694  0.09088  1.0000
  O   O11       1.0  0.04777  0.82144  0.90805  1.0000
  O   O12       1.0  0.95223  0.17856  0.09195  1.0000
  O   O13       1.0  0.36581  0.12089  0.91711  1.0000
  O   O14       1.0  0.63419  0.87911  0.08289  1.0000
  O   O15       1.0  0.57154  0.12553  0.96405  1.0000
  O   O16       1.0  0.42846  0.87447  0.03595  1.0000
