data_image0
_chemical_formula_structural       Zn4H36C52N4O20
_chemical_formula_sum              "Zn4 H36 C52 N4 O20"
_cell_length_a       9.62932
_cell_length_b       10.1936
_cell_length_c       13.5533
_cell_angle_alpha    109.488
_cell_angle_beta     90
_cell_angle_gamma    90

_space_group_name_H-M_alt    "P 1"
_space_group_IT_number       1

loop_
  _space_group_symop_operation_xyz
  'x, y, z'

loop_
  _atom_site_type_symbol
  _atom_site_label
  _atom_site_symmetry_multiplicity
  _atom_site_fract_x
  _atom_site_fract_y
  _atom_site_fract_z
  _atom_site_occupancy
  Zn  Zn1       1.0  0.59775  0.97271  0.61299  1.0000
  Zn  Zn2       1.0  0.09775  0.02729  0.88700  1.0000
  Zn  Zn3       1.0  0.40225  0.02729  0.38701  1.0000
  Zn  Zn4       1.0  0.90225  0.97271  0.11299  1.0000
  H   H1        1.0  0.15211  0.94668  0.59228  1.0000
  H   H2        1.0  0.65211  0.05332  0.90772  1.0000
  H   H3        1.0  0.84789  0.05332  0.40772  1.0000
  H   H4        1.0  0.34789  0.94668  0.09228  1.0000
  H   H5        1.0  0.84283  0.65691  0.42289  1.0000
  H   H6        1.0  0.34283  0.34309  0.07711  1.0000
  H   H7        1.0  0.15717  0.34309  0.57711  1.0000
  H   H8        1.0  0.65717  0.65691  0.92289  1.0000
  H   H9        1.0  0.27514  0.53334  0.40841  1.0000
  H   H10       1.0  0.77514  0.46666  0.09159  1.0000
  H   H11       1.0  0.72486  0.46666  0.59159  1.0000
  H   H12       1.0  0.22486  0.53334  0.90841  1.0000
  H   H13       1.0  0.79450  0.45202  0.36582  1.0000
  H   H14       1.0  0.29450  0.54798  0.13419  1.0000
  H   H15       1.0  0.20550  0.54798  0.63419  1.0000
  H   H16       1.0  0.70550  0.45202  0.86581  1.0000
  H   H17       1.0  0.74136  0.21616  0.24609  1.0000
  H   H18       1.0  0.24137  0.78384  0.25391  1.0000
  H   H19       1.0  0.25864  0.78384  0.75391  1.0000
  H   H20       1.0  0.75864  0.21616  0.74609  1.0000
  H   H21       1.0  0.15320  0.14159  0.15481  1.0000
  H   H22       1.0  0.65321  0.85841  0.34519  1.0000
  H   H23       1.0  0.84680  0.85842  0.84519  1.0000
  H   H24       1.0  0.34680  0.14159  0.65482  1.0000
  H   H25       1.0  0.22475  0.37577  0.26723  1.0000
  H   H26       1.0  0.72475  0.62423  0.23276  1.0000
  H   H27       1.0  0.77525  0.62423  0.73276  1.0000
  H   H28       1.0  0.27525  0.37577  0.76724  1.0000
  H   H29       1.0  0.54269  0.78420  0.67252  1.0000
  H   H30       1.0  0.04270  0.21580  0.82748  1.0000
  H   H31       1.0  0.45730  0.21580  0.32748  1.0000
  H   H32       1.0  0.95731  0.78421  0.17252  1.0000
  H   H33       1.0  0.52351  0.91436  0.77731  1.0000
  H   H34       1.0  0.02351  0.08564  0.72268  1.0000
  H   H35       1.0  0.47649  0.08564  0.22268  1.0000
  H   H36       1.0  0.97650  0.91437  0.27732  1.0000
  C   C1        1.0  0.37289  0.77836  0.54004  1.0000
  C   C2        1.0  0.87289  0.22164  0.95996  1.0000
  C   C3        1.0  0.62711  0.22164  0.45996  1.0000
  C   C4        1.0  0.12711  0.77836  0.04004  1.0000
  C   C5        1.0  0.87035  0.90716  0.56584  1.0000
  C   C6        1.0  0.37035  0.09284  0.93415  1.0000
  C   C7        1.0  0.12966  0.09285  0.43416  1.0000
  C   C8        1.0  0.62965  0.90716  0.06585  1.0000
  C   C9        1.0  0.22756  0.74408  0.49970  1.0000
  C   C10       1.0  0.72756  0.25592  0.00030  1.0000
  C   C11       1.0  0.77244  0.25592  0.50030  1.0000
  C   C12       1.0  0.27244  0.74407  0.99970  1.0000
  C   C13       1.0  0.12402  0.84388  0.53927  1.0000
  C   C14       1.0  0.62402  0.15612  0.96073  1.0000
  C   C15       1.0  0.87598  0.15612  0.46073  1.0000
  C   C16       1.0  0.37598  0.84387  0.03927  1.0000
  C   C17       1.0  0.98514  0.80939  0.51390  1.0000
  C   C18       1.0  0.48514  0.19061  0.98610  1.0000
  C   C19       1.0  0.01487  0.19061  0.48610  1.0000
  C   C20       1.0  0.51486  0.80939  0.01390  1.0000
  C   C21       1.0  0.95187  0.67841  0.44299  1.0000
  C   C22       1.0  0.45187  0.32159  0.05701  1.0000
  C   C23       1.0  0.04813  0.32160  0.55702  1.0000
  C   C24       1.0  0.54813  0.67840  0.94299  1.0000
  C   C25       1.0  0.05465  0.57760  0.40087  1.0000
  C   C26       1.0  0.55465  0.42240  0.09913  1.0000
  C   C27       1.0  0.94535  0.42240  0.59913  1.0000
  C   C28       1.0  0.44535  0.57760  0.90087  1.0000
  C   C29       1.0  0.19295  0.61105  0.43287  1.0000
  C   C30       1.0  0.69295  0.38895  0.06712  1.0000
  C   C31       1.0  0.80705  0.38895  0.56713  1.0000
  C   C32       1.0  0.30705  0.61104  0.93288  1.0000
  C   C33       1.0  0.01639  0.43838  0.32849  1.0000
  C   C34       1.0  0.51639  0.56162  0.17151  1.0000
  C   C35       1.0  0.98361  0.56162  0.67151  1.0000
  C   C36       1.0  0.48361  0.43838  0.82850  1.0000
  C   C37       1.0  0.87852  0.39011  0.31940  1.0000
  C   C38       1.0  0.37852  0.60989  0.18060  1.0000
  C   C39       1.0  0.12148  0.60989  0.68060  1.0000
  C   C40       1.0  0.62148  0.39011  0.81940  1.0000
  C   C41       1.0  0.84689  0.25705  0.25373  1.0000
  C   C42       1.0  0.34689  0.74295  0.24627  1.0000
  C   C43       1.0  0.15311  0.74295  0.74627  1.0000
  C   C44       1.0  0.65311  0.25705  0.75373  1.0000
  C   C45       1.0  0.07747  0.21440  0.20292  1.0000
  C   C46       1.0  0.57747  0.78560  0.29708  1.0000
  C   C47       1.0  0.92253  0.78560  0.79708  1.0000
  C   C48       1.0  0.42253  0.21440  0.70292  1.0000
  C   C49       1.0  0.11600  0.34647  0.26647  1.0000
  C   C50       1.0  0.61600  0.65352  0.23353  1.0000
  C   C51       1.0  0.88399  0.65353  0.73353  1.0000
  C   C52       1.0  0.38400  0.34647  0.76647  1.0000
  N   N1        1.0  0.94475  0.16954  0.19702  1.0000
  N   N2        1.0  0.44475  0.83046  0.30298  1.0000
  N   N3        1.0  0.05525  0.83046  0.80298  1.0000
  N   N4        1.0  0.55525  0.16954  0.69702  1.0000
  O   O1        1.0  0.43624  0.69330  0.57293  1.0000
  O   O2        1.0  0.93624  0.30670  0.92707  1.0000
  O   O3        1.0  0.56376  0.30670  0.42707  1.0000
  O   O4        1.0  0.06376  0.69330  0.07293  1.0000
  O   O5        1.0  0.41826  0.89881  0.54212  1.0000
  O   O6        1.0  0.91826  0.10120  0.95788  1.0000
  O   O7        1.0  0.58175  0.10119  0.45787  1.0000
  O   O8        1.0  0.08174  0.89880  0.04212  1.0000
  O   O9        1.0  0.89212  0.01228  0.64557  1.0000
  O   O10       1.0  0.39212  0.98772  0.85443  1.0000
  O   O11       1.0  0.10788  0.98773  0.35443  1.0000
  O   O12       1.0  0.60788  0.01228  0.14557  1.0000
  O   O13       1.0  0.74891  0.87301  0.52497  1.0000
  O   O14       1.0  0.24891  0.12699  0.97502  1.0000
  O   O15       1.0  0.25109  0.12699  0.47503  1.0000
  O   O16       1.0  0.75109  0.87302  0.02498  1.0000
  O   O17       1.0  0.59321  0.86644  0.72167  1.0000
  O   O18       1.0  0.09321  0.13356  0.77832  1.0000
  O   O19       1.0  0.40679  0.13356  0.27833  1.0000
  O   O20       1.0  0.90679  0.86644  0.22168  1.0000
