data_image0
_chemical_formula_structural       Nd2H38C68O16
_chemical_formula_sum              "Nd2 H38 C68 O16"
_cell_length_a       9.32487
_cell_length_b       12.1614
_cell_length_c       15.8886
_cell_angle_alpha    88.5122
_cell_angle_beta     74.3388
_cell_angle_gamma    70.9109

_space_group_name_H-M_alt    "P 1"
_space_group_IT_number       1

loop_
  _space_group_symop_operation_xyz
  'x, y, z'

loop_
  _atom_site_type_symbol
  _atom_site_label
  _atom_site_symmetry_multiplicity
  _atom_site_fract_x
  _atom_site_fract_y
  _atom_site_fract_z
  _atom_site_occupancy
  Nd  Nd1       1.0  0.29424  0.97518  0.01953  1.0000
  Nd  Nd2       1.0  0.70576  0.02482  0.98047  1.0000
  H   H1        1.0  0.99081  0.80324  0.04444  1.0000
  H   H2        1.0  0.00920  0.19676  0.95556  1.0000
  H   H3        1.0  0.34798  0.28212  0.51431  1.0000
  H   H4        1.0  0.65202  0.71788  0.48569  1.0000
  H   H5        1.0  0.16297  0.70993  0.51708  1.0000
  H   H6        1.0  0.83704  0.29007  0.48292  1.0000
  H   H7        1.0  0.27008  0.75472  0.38422  1.0000
  H   H8        1.0  0.72992  0.24529  0.61578  1.0000
  H   H9        1.0  0.20654  0.86059  0.25596  1.0000
  H   H10       1.0  0.79345  0.13942  0.74404  1.0000
  H   H11       1.0  0.02866  0.59769  0.19387  1.0000
  H   H12       1.0  0.97133  0.40231  0.80613  1.0000
  H   H13       1.0  0.08271  0.49519  0.32449  1.0000
  H   H14       1.0  0.91729  0.50481  0.67551  1.0000
  H   H15       1.0  0.46267  0.40574  0.26996  1.0000
  H   H16       1.0  0.53733  0.59426  0.73003  1.0000
  H   H17       1.0  0.49735  0.26347  0.15097  1.0000
  H   H18       1.0  0.50265  0.73652  0.84903  1.0000
  H   H19       1.0  0.15852  0.13121  0.32256  1.0000
  H   H20       1.0  0.84148  0.86878  0.67744  1.0000
  H   H21       1.0  0.13247  0.26824  0.44496  1.0000
  H   H22       1.0  0.86754  0.73176  0.55505  1.0000
  H   H23       1.0  0.23069  0.24065  0.64397  1.0000
  H   H24       1.0  0.76930  0.75936  0.35603  1.0000
  H   H25       1.0  0.28409  0.13202  0.77254  1.0000
  H   H26       1.0  0.71590  0.86799  0.22746  1.0000
  H   H27       1.0  0.48593  0.37784  0.83706  1.0000
  H   H28       1.0  0.51408  0.62215  0.16294  1.0000
  H   H29       1.0  0.42704  0.49006  0.71051  1.0000
  H   H30       1.0  0.57297  0.50994  0.28949  1.0000
  H   H31       1.0  0.04764  0.55681  0.75568  1.0000
  H   H32       1.0  0.95236  0.44319  0.24432  1.0000
  H   H33       1.0  0.98351  0.68945  0.88649  1.0000
  H   H34       1.0  0.01649  0.31055  0.11351  1.0000
  H   H35       1.0  0.27696  0.87524  0.73740  1.0000
  H   H36       1.0  0.72305  0.12475  0.26260  1.0000
  H   H37       1.0  0.33102  0.74858  0.60376  1.0000
  H   H38       1.0  0.66899  0.25142  0.39624  1.0000
  C   C1        1.0  0.22480  0.55127  0.43857  1.0000
  C   C2        1.0  0.77521  0.44873  0.56143  1.0000
  C   C3        1.0  0.27387  0.42791  0.43974  1.0000
  C   C4        1.0  0.72613  0.57209  0.56026  1.0000
  C   C5        1.0  0.30399  0.37712  0.51592  1.0000
  C   C6        1.0  0.69601  0.62288  0.48407  1.0000
  C   C7        1.0  0.28573  0.44059  0.59273  1.0000
  C   C8        1.0  0.71428  0.55941  0.40726  1.0000
  C   C9        1.0  0.23329  0.56408  0.59228  1.0000
  C   C10       1.0  0.76672  0.43592  0.40771  1.0000
  C   C11       1.0  0.20785  0.61492  0.51519  1.0000
  C   C12       1.0  0.79215  0.38508  0.48481  1.0000
  C   C13       1.0  0.18386  0.61542  0.36317  1.0000
  C   C14       1.0  0.81614  0.38458  0.63683  1.0000
  C   C15       1.0  0.21372  0.72106  0.34399  1.0000
  C   C16       1.0  0.78628  0.27895  0.65601  1.0000
  C   C17       1.0  0.17996  0.78035  0.27190  1.0000
  C   C18       1.0  0.82003  0.21965  0.72810  1.0000
  C   C19       1.0  0.11553  0.73477  0.21656  1.0000
  C   C20       1.0  0.88446  0.26524  0.78344  1.0000
  C   C21       1.0  0.08155  0.63127  0.23611  1.0000
  C   C22       1.0  0.91844  0.36873  0.76390  1.0000
  C   C23       1.0  0.11332  0.57365  0.30890  1.0000
  C   C24       1.0  0.88668  0.42635  0.69110  1.0000
  C   C25       1.0  0.08396  0.79654  0.13884  1.0000
  C   C26       1.0  0.91603  0.20348  0.86116  1.0000
  C   C27       1.0  0.29543  0.34666  0.36575  1.0000
  C   C28       1.0  0.70457  0.65334  0.63425  1.0000
  C   C29       1.0  0.39689  0.34505  0.28223  1.0000
  C   C30       1.0  0.60311  0.65495  0.71777  1.0000
  C   C31       1.0  0.41568  0.26609  0.21506  1.0000
  C   C32       1.0  0.58433  0.73391  0.78494  1.0000
  C   C33       1.0  0.32941  0.18897  0.22964  1.0000
  C   C34       1.0  0.67059  0.81103  0.77036  1.0000
  C   C35       1.0  0.22745  0.18990  0.31287  1.0000
  C   C36       1.0  0.77255  0.81010  0.68713  1.0000
  C   C37       1.0  0.21290  0.26652  0.38044  1.0000
  C   C38       1.0  0.78710  0.73348  0.61956  1.0000
  C   C39       1.0  0.33747  0.10929  0.15787  1.0000
  C   C40       1.0  0.66252  0.89071  0.84214  1.0000
  C   C41       1.0  0.32287  0.37503  0.66836  1.0000
  C   C42       1.0  0.67713  0.62497  0.33164  1.0000
  C   C43       1.0  0.28753  0.27118  0.68561  1.0000
  C   C44       1.0  0.71246  0.72882  0.31439  1.0000
  C   C45       1.0  0.31651  0.21012  0.75775  1.0000
  C   C46       1.0  0.68348  0.78989  0.24225  1.0000
  C   C47       1.0  0.38606  0.24892  0.81357  1.0000
  C   C48       1.0  0.61394  0.75108  0.18643  1.0000
  C   C49       1.0  0.42753  0.34946  0.79523  1.0000
  C   C50       1.0  0.57247  0.65054  0.20477  1.0000
  C   C51       1.0  0.39490  0.41186  0.72414  1.0000
  C   C52       1.0  0.60511  0.58813  0.27586  1.0000
  C   C53       1.0  0.41728  0.18026  0.89007  1.0000
  C   C54       1.0  0.58270  0.81974  0.10993  1.0000
  C   C55       1.0  0.19495  0.64281  0.67073  1.0000
  C   C56       1.0  0.80506  0.35719  0.32927  1.0000
  C   C57       1.0  0.09628  0.62749  0.75106  1.0000
  C   C58       1.0  0.90373  0.37251  0.24894  1.0000
  C   C59       1.0  0.06109  0.70095  0.82449  1.0000
  C   C60       1.0  0.93892  0.29905  0.17551  1.0000
  C   C61       1.0  0.12874  0.78908  0.82022  1.0000
  C   C62       1.0  0.87126  0.21092  0.17978  1.0000
  C   C63       1.0  0.22450  0.80677  0.74027  1.0000
  C   C64       1.0  0.77550  0.19323  0.25973  1.0000
  C   C65       1.0  0.25446  0.73574  0.66581  1.0000
  C   C66       1.0  0.74555  0.26426  0.33419  1.0000
  C   C67       1.0  0.10337  0.85786  0.90223  1.0000
  C   C68       1.0  0.89663  0.14214  0.09777  1.0000
  O   O1        1.0  0.11744  0.88645  0.11817  1.0000
  O   O2        1.0  0.88254  0.11356  0.88184  1.0000
  O   O3        1.0  0.01614  0.75006  0.09298  1.0000
  O   O4        1.0  0.98386  0.24994  0.90701  1.0000
  O   O5        1.0  0.23524  0.05841  0.16981  1.0000
  O   O6        1.0  0.76476  0.94159  0.83019  1.0000
  O   O7        1.0  0.44338  0.09541  0.08359  1.0000
  O   O8        1.0  0.55662  0.90459  0.91641  1.0000
  O   O9        1.0  0.53694  0.17849  0.91486  1.0000
  O   O10       1.0  0.46305  0.82150  0.08514  1.0000
  O   O11       1.0  0.32257  0.12525  0.92382  1.0000
  O   O12       1.0  0.67742  0.87474  0.07617  1.0000
  O   O13       1.0  0.21584  0.88819  0.91210  1.0000
  O   O14       1.0  0.78417  0.11180  0.08790  1.0000
  O   O15       1.0  0.97022  0.87763  0.96099  1.0000
  O   O16       1.0  0.02978  0.12237  0.03900  1.0000
