data_image0
_chemical_formula_structural       Cd3H46C52N8O14
_chemical_formula_sum              "Cd3 H46 C52 N8 O14"
_cell_length_a       9.79528
_cell_length_b       9.79153
_cell_length_c       14.8149
_cell_angle_alpha    76.2037
_cell_angle_beta     76.2091
_cell_angle_gamma    83.0665

_space_group_name_H-M_alt    "P 1"
_space_group_IT_number       1

loop_
  _space_group_symop_operation_xyz
  'x, y, z'

loop_
  _atom_site_type_symbol
  _atom_site_label
  _atom_site_symmetry_multiplicity
  _atom_site_fract_x
  _atom_site_fract_y
  _atom_site_fract_z
  _atom_site_occupancy
  Cd  Cd1       1.0  0.53881  0.46124  0.99993  1.0000
  Cd  Cd2       1.0  0.62775  0.62244  0.72135  1.0000
  Cd  Cd3       1.0  0.37757  0.37225  0.27866  1.0000
  H   H1        1.0  0.06064  0.47527  0.97138  1.0000
  H   H2        1.0  0.52474  0.93937  0.02864  1.0000
  H   H3        1.0  0.91050  0.53464  0.71360  1.0000
  H   H4        1.0  0.46541  0.08955  0.28640  1.0000
  H   H5        1.0  0.33428  0.62439  0.69881  1.0000
  H   H6        1.0  0.37559  0.66566  0.30121  1.0000
  H   H7        1.0  0.11988  0.73303  0.56413  1.0000
  H   H8        1.0  0.26707  0.88015  0.43586  1.0000
  H   H9        1.0  0.25896  0.59969  0.55470  1.0000
  H   H10       1.0  0.40033  0.74099  0.44533  1.0000
  H   H11       1.0  0.16054  0.35813  0.60857  1.0000
  H   H12       1.0  0.64180  0.83944  0.39143  1.0000
  H   H13       1.0  0.90769  0.32531  0.62347  1.0000
  H   H14       1.0  0.67466  0.09239  0.37650  1.0000
  H   H15       1.0  0.01735  0.21692  0.54924  1.0000
  H   H16       1.0  0.78299  0.98266  0.45075  1.0000
  H   H17       1.0  0.92811  0.37572  0.49776  1.0000
  H   H18       1.0  0.62428  0.07196  0.50222  1.0000
  H   H19       1.0  0.55927  0.46153  0.56413  1.0000
  H   H20       1.0  0.53850  0.44076  0.43586  1.0000
  H   H21       1.0  0.44184  0.19934  0.61531  1.0000
  H   H22       1.0  0.80066  0.55809  0.38469  1.0000
  H   H23       1.0  0.56974  0.28031  0.85076  1.0000
  H   H24       1.0  0.71962  0.43022  0.14924  1.0000
  H   H25       1.0  0.48354  0.05369  0.87500  1.0000
  H   H26       1.0  0.94626  0.51631  0.12503  1.0000
  H   H27       1.0  0.50188  0.98189  0.77310  1.0000
  H   H28       1.0  0.01800  0.49798  0.22695  1.0000
  H   H29       1.0  0.31832  0.82557  0.85902  1.0000
  H   H30       1.0  0.17434  0.68159  0.14100  1.0000
  H   H31       1.0  0.06280  0.79046  0.90047  1.0000
  H   H32       1.0  0.20944  0.93719  0.09953  1.0000
  H   H33       1.0  0.97172  0.23990  0.84449  1.0000
  H   H34       1.0  0.76018  0.02836  0.15548  1.0000
  H   H35       1.0  0.22660  0.27612  0.80620  1.0000
  H   H36       1.0  0.72396  0.77339  0.19378  1.0000
  H   H37       1.0  0.81068  0.91632  0.96230  1.0000
  H   H38       1.0  0.08367  0.18944  0.03769  1.0000
  H   H39       1.0  0.78077  0.09073  0.89818  1.0000
  H   H40       1.0  0.90933  0.21937  0.10181  1.0000
  H   H41       1.0  0.94190  0.05745  0.69479  1.0000
  H   H42       1.0  0.94254  0.05817  0.30521  1.0000
  H   H43       1.0  0.83635  0.88416  0.60541  1.0000
  H   H44       1.0  0.11586  0.16364  0.39460  1.0000
  H   H45       1.0  0.67702  0.77040  0.90260  1.0000
  H   H46       1.0  0.22963  0.32300  0.09740  1.0000
  C   C1        1.0  0.32919  0.53617  0.88948  1.0000
  C   C2        1.0  0.46377  0.67076  0.11053  1.0000
  C   C3        1.0  0.82409  0.47441  0.90838  1.0000
  C   C4        1.0  0.52564  0.17599  0.09163  1.0000
  C   C5        1.0  0.21100  0.54566  0.84011  1.0000
  C   C6        1.0  0.45435  0.78897  0.15990  1.0000
  C   C7        1.0  0.07830  0.50652  0.89415  1.0000
  C   C8        1.0  0.49351  0.92171  0.10587  1.0000
  C   C9        1.0  0.96767  0.50771  0.84940  1.0000
  C   C10       1.0  0.49233  0.03237  0.15061  1.0000
  C   C11       1.0  0.99322  0.54102  0.74983  1.0000
  C   C12       1.0  0.45902  0.00681  0.25018  1.0000
  C   C13       1.0  0.12479  0.58130  0.69505  1.0000
  C   C14       1.0  0.41874  0.87520  0.30496  1.0000
  C   C15       1.0  0.23275  0.58758  0.74071  1.0000
  C   C16       1.0  0.41244  0.76720  0.25931  1.0000
  C   C17       1.0  0.14687  0.61959  0.58757  1.0000
  C   C18       1.0  0.38045  0.85313  0.41244  1.0000
  C   C19       1.0  0.10928  0.40735  0.54862  1.0000
  C   C20       1.0  0.59262  0.89073  0.45137  1.0000
  C   C21       1.0  0.21848  0.39843  0.45557  1.0000
  C   C22       1.0  0.60156  0.78151  0.54443  1.0000
  C   C23       1.0  0.98269  0.32585  0.55526  1.0000
  C   C24       1.0  0.67412  0.01736  0.44472  1.0000
  C   C25       1.0  0.54394  0.38410  0.63067  1.0000
  C   C26       1.0  0.61591  0.45606  0.36932  1.0000
  C   C27       1.0  0.48678  0.25537  0.65509  1.0000
  C   C28       1.0  0.74463  0.51315  0.34491  1.0000
  C   C29       1.0  0.55314  0.29645  0.77893  1.0000
  C   C30       1.0  0.70351  0.44683  0.22107  1.0000
  C   C31       1.0  0.44730  0.06624  0.80843  1.0000
  C   C32       1.0  0.93370  0.55257  0.19159  1.0000
  C   C33       1.0  0.28989  0.05294  0.83043  1.0000
  C   C34       1.0  0.94705  0.71005  0.16956  1.0000
  C   C35       1.0  0.24205  0.91663  0.85742  1.0000
  C   C36       1.0  0.08331  0.75789  0.14258  1.0000
  C   C37       1.0  0.09859  0.89701  0.88053  1.0000
  C   C38       1.0  0.10292  0.90141  0.11947  1.0000
  C   C39       1.0  0.99990  0.01319  0.87596  1.0000
  C   C40       1.0  0.98681  0.00015  0.12402  1.0000
  C   C41       1.0  0.04768  0.14883  0.84897  1.0000
  C   C42       1.0  0.85121  0.95237  0.15100  1.0000
  C   C43       1.0  0.19181  0.16919  0.82696  1.0000
  C   C44       1.0  0.83085  0.80818  0.17303  1.0000
  C   C45       1.0  0.84515  0.99129  0.89456  1.0000
  C   C46       1.0  0.00873  0.15496  0.10543  1.0000
  C   C47       1.0  0.87000  0.97415  0.72279  1.0000
  C   C48       1.0  0.02586  0.13004  0.27721  1.0000
  C   C49       1.0  0.81798  0.88829  0.67980  1.0000
  C   C50       1.0  0.11174  0.18201  0.32020  1.0000
  C   C51       1.0  0.73419  0.82282  0.83290  1.0000
  C   C52       1.0  0.17721  0.26583  0.16711  1.0000
  N   N1        1.0  0.58501  0.40833  0.70807  1.0000
  N   N2        1.0  0.59165  0.41500  0.29193  1.0000
  N   N3        1.0  0.49371  0.20152  0.74937  1.0000
  N   N4        1.0  0.79846  0.50621  0.25064  1.0000
  N   N5        1.0  0.73345  0.79474  0.74915  1.0000
  N   N6        1.0  0.20530  0.26653  0.25086  1.0000
  N   N7        1.0  0.81577  0.93147  0.81942  1.0000
  N   N8        1.0  0.06855  0.18428  0.18058  1.0000
  O   O1        1.0  0.43537  0.60963  0.85075  1.0000
  O   O2        1.0  0.39027  0.56460  0.14923  1.0000
  O   O3        1.0  0.31936  0.45202  0.97084  1.0000
  O   O4        1.0  0.54792  0.68061  0.02917  1.0000
  O   O5        1.0  0.80419  0.44642  0.99823  1.0000
  O   O6        1.0  0.55363  0.19590  0.00177  1.0000
  O   O7        1.0  0.72337  0.47844  0.86497  1.0000
  O   O8        1.0  0.52159  0.27675  0.13503  1.0000
  O   O9        1.0  0.05790  0.54862  0.55354  1.0000
  O   O10       1.0  0.45141  0.94213  0.44646  1.0000
  O   O11       1.0  0.29315  0.28278  0.45349  1.0000
  O   O12       1.0  0.71717  0.70684  0.54652  1.0000
  O   O13       1.0  0.22478  0.50245  0.38441  1.0000
  O   O14       1.0  0.49757  0.77519  0.61559  1.0000
