data_image0
_chemical_formula_structural       Cd3H46C52N8O14
_chemical_formula_sum              "Cd3 H46 C52 N8 O14"
_cell_length_a       10.3117
_cell_length_b       10.6589
_cell_length_c       13.2908
_cell_angle_alpha    98.683
_cell_angle_beta     90
_cell_angle_gamma    118.929

_space_group_name_H-M_alt    "P 1"
_space_group_IT_number       1

loop_
  _space_group_symop_operation_xyz
  'x, y, z'

loop_
  _atom_site_type_symbol
  _atom_site_label
  _atom_site_symmetry_multiplicity
  _atom_site_fract_x
  _atom_site_fract_y
  _atom_site_fract_z
  _atom_site_occupancy
  Cd  Cd1       1.0  0.50359  0.00000  0.50000  1.0000
  Cd  Cd2       1.0  0.76222  0.06647  0.29839  1.0000
  Cd  Cd3       1.0  0.69576  0.93353  0.70161  1.0000
  H   H1        1.0  0.04345  0.43499  0.40307  1.0000
  H   H2        1.0  0.60846  0.56500  0.59693  1.0000
  H   H3        1.0  0.62408  0.72334  0.92033  1.0000
  H   H4        1.0  0.90075  0.27666  0.07967  1.0000
  H   H5        1.0  0.23319  0.06048  0.29024  1.0000
  H   H6        1.0  0.17271  0.93952  0.70976  1.0000
  H   H7        1.0  0.25129  0.45894  0.24624  1.0000
  H   H8        1.0  0.79235  0.54106  0.75376  1.0000
  H   H9        1.0  0.65461  0.43440  0.26586  1.0000
  H   H10       1.0  0.22021  0.56560  0.73414  1.0000
  H   H11       1.0  0.56500  0.63047  0.16068  1.0000
  H   H12       1.0  0.93453  0.36953  0.83932  1.0000
  H   H13       1.0  0.49350  0.68195  0.27151  1.0000
  H   H14       1.0  0.81155  0.31805  0.72849  1.0000
  H   H15       1.0  0.64894  0.60346  0.41954  1.0000
  H   H16       1.0  0.04549  0.39655  0.58046  1.0000
  H   H17       1.0  0.91760  0.70397  0.41224  1.0000
  H   H18       1.0  0.21364  0.29604  0.58776  1.0000
  H   H19       1.0  0.89135  0.81004  0.51805  1.0000
  H   H20       1.0  0.08131  0.18996  0.48195  1.0000
  H   H21       1.0  0.94157  0.87906  0.40141  1.0000
  H   H22       1.0  0.06250  0.12094  0.59859  1.0000
  H   H23       1.0  0.28974  0.63877  0.53719  1.0000
  H   H24       1.0  0.65097  0.36123  0.46282  1.0000
  H   H25       1.0  0.22830  0.84836  0.31232  1.0000
  H   H26       1.0  0.37994  0.15165  0.68768  1.0000
  H   H27       1.0  0.89172  0.56754  0.26956  1.0000
  H   H28       1.0  0.32418  0.43246  0.73044  1.0000
  H   H29       1.0  0.95782  0.44311  0.22898  1.0000
  H   H30       1.0  0.51470  0.55689  0.77102  1.0000
  H   H31       1.0  0.18676  0.53768  0.11773  1.0000
  H   H32       1.0  0.64908  0.46232  0.88227  1.0000
  H   H33       1.0  0.21552  0.84706  0.93219  1.0000
  H   H34       1.0  0.36846  0.15294  0.06781  1.0000
  H   H35       1.0  0.02544  0.87960  0.02831  1.0000
  H   H36       1.0  0.14583  0.12039  0.97169  1.0000
  H   H37       1.0  0.92058  0.74797  0.17434  1.0000
  H   H38       1.0  0.17261  0.25203  0.82566  1.0000
  H   H39       1.0  0.31384  0.56289  0.95422  1.0000
  H   H40       1.0  0.75094  0.43711  0.04578  1.0000
  H   H41       1.0  0.34704  0.70883  0.88959  1.0000
  H   H42       1.0  0.63821  0.29117  0.11041  1.0000
  H   H43       1.0  0.42870  0.86821  0.15927  1.0000
  H   H44       1.0  0.56049  0.13179  0.84073  1.0000
  H   H45       1.0  0.83843  0.90411  0.07980  1.0000
  H   H46       1.0  0.93431  0.09589  0.92021  1.0000
  C   C1        1.0  0.11826  0.55037  0.40583  1.0000
  C   C2        1.0  0.56790  0.44966  0.59417  1.0000
  C   C3        1.0  0.61472  0.77594  0.99428  1.0000
  C   C4        1.0  0.83878  0.22407  0.00573  1.0000
  C   C5        1.0  0.53549  0.15798  0.28955  1.0000
  C   C6        1.0  0.37751  0.84202  0.71045  1.0000
  C   C7        1.0  0.06041  0.18554  0.26510  1.0000
  C   C8        1.0  0.87486  0.81445  0.73490  1.0000
  C   C9        1.0  0.45260  0.23844  0.27707  1.0000
  C   C10       1.0  0.21416  0.76156  0.72293  1.0000
  C   C11       1.0  0.29803  0.17262  0.27825  1.0000
  C   C12       1.0  0.12540  0.82738  0.72175  1.0000
  C   C13       1.0  0.22584  0.25186  0.26407  1.0000
  C   C14       1.0  0.97398  0.74814  0.73593  1.0000
  C   C15       1.0  0.30963  0.39806  0.25314  1.0000
  C   C16       1.0  0.91157  0.60194  0.74686  1.0000
  C   C17       1.0  0.46430  0.46582  0.25430  1.0000
  C   C18       1.0  0.99848  0.53418  0.74570  1.0000
  C   C19       1.0  0.53412  0.38421  0.26488  1.0000
  C   C20       1.0  0.14991  0.61579  0.73512  1.0000
  C   C21       1.0  0.55294  0.62330  0.24220  1.0000
  C   C22       1.0  0.92963  0.37670  0.75780  1.0000
  C   C23       1.0  0.71254  0.71160  0.39726  1.0000
  C   C24       1.0  0.00094  0.28840  0.60275  1.0000
  C   C25       1.0  0.64644  0.80255  0.45150  1.0000
  C   C26       1.0  0.84389  0.19745  0.54850  1.0000
  C   C27       1.0  0.87620  0.78054  0.43453  1.0000
  C   C28       1.0  0.09566  0.21947  0.56547  1.0000
  C   C29       1.0  0.23792  0.65245  0.47190  1.0000
  C   C30       1.0  0.58548  0.34754  0.52809  1.0000
  C   C31       1.0  0.21073  0.76514  0.35672  1.0000
  C   C32       1.0  0.44559  0.23486  0.64328  1.0000
  C   C33       1.0  0.98953  0.55882  0.24588  1.0000
  C   C34       1.0  0.43071  0.44118  0.75412  1.0000
  C   C35       1.0  0.04720  0.63430  0.15539  1.0000
  C   C36       1.0  0.41290  0.36570  0.84461  1.0000
  C   C37       1.0  0.15188  0.61366  0.09851  1.0000
  C   C38       1.0  0.53822  0.38634  0.90149  1.0000
  C   C39       1.0  0.21509  0.69115  0.01924  1.0000
  C   C40       1.0  0.52394  0.30885  0.98076  1.0000
  C   C41       1.0  0.16855  0.78726  0.99459  1.0000
  C   C42       1.0  0.38128  0.21274  0.00541  1.0000
  C   C43       1.0  0.06140  0.80538  0.04897  1.0000
  C   C44       1.0  0.25602  0.19461  0.95103  1.0000
  C   C45       1.0  0.00159  0.73075  0.12992  1.0000
  C   C46       1.0  0.27083  0.26925  0.87008  1.0000
  C   C47       1.0  0.33652  0.67629  0.96500  1.0000
  C   C48       1.0  0.66022  0.32371  0.03499  1.0000
  C   C49       1.0  0.51127  0.85381  0.11640  1.0000
  C   C50       1.0  0.65746  0.14619  0.88360  1.0000
  C   C51       1.0  0.72056  0.86828  0.07239  1.0000
  C   C52       1.0  0.85229  0.13172  0.92761  1.0000
  N   N1        1.0  0.29411  0.78586  0.44066  1.0000
  N   N2        1.0  0.50825  0.21414  0.55934  1.0000
  N   N3        1.0  0.65487  0.91596  0.14744  1.0000
  N   N4        1.0  0.73891  0.08404  0.85256  1.0000
  N   N5        1.0  0.10345  0.62349  0.33281  1.0000
  N   N6        1.0  0.47996  0.37650  0.66719  1.0000
  N   N7        1.0  0.48234  0.76734  0.02379  1.0000
  N   N8        1.0  0.71499  0.23266  0.97620  1.0000
  O   O1        1.0  0.66807  0.21385  0.26237  1.0000
  O   O2        1.0  0.45422  0.78615  0.73763  1.0000
  O   O3        1.0  0.47182  0.03991  0.32531  1.0000
  O   O4        1.0  0.43191  0.96009  0.67469  1.0000
  O   O5        1.0  0.98934  0.06729  0.30123  1.0000
  O   O6        1.0  0.92205  0.93271  0.69877  1.0000
  O   O7        1.0  0.99711  0.25067  0.23283  1.0000
  O   O8        1.0  0.74643  0.74932  0.76717  1.0000
  O   O9        1.0  0.70234  0.69695  0.28823  1.0000
  O   O10       1.0  0.00539  0.30306  0.71178  1.0000
  O   O11       1.0  0.63153  0.89276  0.40576  1.0000
  O   O12       1.0  0.73877  0.10724  0.59424  1.0000
  O   O13       1.0  0.60891  0.78068  0.54055  1.0000
  O   O14       1.0  0.82823  0.21932  0.45945  1.0000
