data_image0
_chemical_formula_structural       Zn4H40C40O20
_chemical_formula_sum              "Zn4 H40 C40 O20"
_cell_length_a       5.71721
_cell_length_b       8.79013
_cell_length_c       20.7969
_cell_angle_alpha    90.0002
_cell_angle_beta     89.9987
_cell_angle_gamma    89.9971

_space_group_name_H-M_alt    "P 1"
_space_group_IT_number       1

loop_
  _space_group_symop_operation_xyz
  'x, y, z'

loop_
  _atom_site_type_symbol
  _atom_site_label
  _atom_site_symmetry_multiplicity
  _atom_site_fract_x
  _atom_site_fract_y
  _atom_site_fract_z
  _atom_site_occupancy
  Zn  Zn1       1.0  0.04407  0.04557  0.97599  1.0000
  Zn  Zn2       1.0  0.45594  0.95443  0.47599  1.0000
  Zn  Zn3       1.0  0.54405  0.45442  0.02401  1.0000
  Zn  Zn4       1.0  0.95593  0.54558  0.52401  1.0000
  H   H1        1.0  0.84581  0.80310  0.02782  1.0000
  H   H2        1.0  0.65418  0.19691  0.52782  1.0000
  H   H3        1.0  0.34581  0.69692  0.97218  1.0000
  H   H4        1.0  0.15417  0.30308  0.47218  1.0000
  H   H5        1.0  0.67078  0.86919  0.97300  1.0000
  H   H6        1.0  0.82923  0.13081  0.47300  1.0000
  H   H7        1.0  0.17076  0.63083  0.02700  1.0000
  H   H8        1.0  0.32922  0.36918  0.52700  1.0000
  H   H9        1.0  0.03446  0.74729  0.65413  1.0000
  H   H10       1.0  0.46552  0.25271  0.15414  1.0000
  H   H11       1.0  0.53442  0.75269  0.34586  1.0000
  H   H12       1.0  0.96557  0.24731  0.84586  1.0000
  H   H13       1.0  0.80563  0.81654  0.60679  1.0000
  H   H14       1.0  0.69436  0.18347  0.10679  1.0000
  H   H15       1.0  0.30560  0.68344  0.39321  1.0000
  H   H16       1.0  0.19438  0.31654  0.89321  1.0000
  H   H17       1.0  0.16268  0.01963  0.67636  1.0000
  H   H18       1.0  0.33734  0.98036  0.17637  1.0000
  H   H19       1.0  0.66267  0.48034  0.32363  1.0000
  H   H20       1.0  0.83735  0.51966  0.82364  1.0000
  H   H21       1.0  0.92102  0.08573  0.63111  1.0000
  H   H22       1.0  0.57900  0.91428  0.13112  1.0000
  H   H23       1.0  0.42101  0.41425  0.36888  1.0000
  H   H24       1.0  0.07900  0.58574  0.86889  1.0000
  H   H25       1.0  0.04907  0.81464  0.76777  1.0000
  H   H26       1.0  0.45094  0.18536  0.26778  1.0000
  H   H27       1.0  0.54903  0.68535  0.23222  1.0000
  H   H28       1.0  0.95097  0.31464  0.73223  1.0000
  H   H29       1.0  0.79289  0.78921  0.86351  1.0000
  H   H30       1.0  0.70713  0.21079  0.36352  1.0000
  H   H31       1.0  0.29284  0.71077  0.13648  1.0000
  H   H32       1.0  0.20714  0.28922  0.63648  1.0000
  H   H33       1.0  0.32606  0.12605  0.78588  1.0000
  H   H34       1.0  0.17398  0.87397  0.28587  1.0000
  H   H35       1.0  0.82603  0.37396  0.21413  1.0000
  H   H36       1.0  0.67396  0.62603  0.71413  1.0000
  H   H37       1.0  0.57541  0.14561  0.68827  1.0000
  H   H38       1.0  0.92461  0.85441  0.18827  1.0000
  H   H39       1.0  0.07541  0.35439  0.31173  1.0000
  H   H40       1.0  0.42461  0.64560  0.81174  1.0000
  C   C1        1.0  0.14257  0.84490  0.56619  1.0000
  C   C2        1.0  0.35742  0.15510  0.06620  1.0000
  C   C3        1.0  0.64256  0.65508  0.43380  1.0000
  C   C4        1.0  0.85743  0.34491  0.93380  1.0000
  C   C5        1.0  0.98271  0.84442  0.62388  1.0000
  C   C6        1.0  0.51728  0.15558  0.12389  1.0000
  C   C7        1.0  0.48268  0.65556  0.37611  1.0000
  C   C8        1.0  0.01731  0.34443  0.87611  1.0000
  C   C9        1.0  0.98186  0.99284  0.66222  1.0000
  C   C10       1.0  0.51815  0.00716  0.16223  1.0000
  C   C11       1.0  0.48185  0.50714  0.33777  1.0000
  C   C12       1.0  0.01816  0.49286  0.83778  1.0000
  C   C13       1.0  0.82999  0.98191  0.72115  1.0000
  C   C14       1.0  0.67002  0.01810  0.22115  1.0000
  C   C15       1.0  0.32997  0.51808  0.27885  1.0000
  C   C16       1.0  0.17003  0.48191  0.77885  1.0000
  C   C17       1.0  0.88952  0.88240  0.77136  1.0000
  C   C18       1.0  0.61050  0.11760  0.27137  1.0000
  C   C19       1.0  0.38949  0.61758  0.22864  1.0000
  C   C20       1.0  0.11051  0.38241  0.72864  1.0000
  C   C21       1.0  0.74757  0.86861  0.82529  1.0000
  C   C22       1.0  0.75245  0.13140  0.32529  1.0000
  C   C23       1.0  0.24753  0.63138  0.17471  1.0000
  C   C24       1.0  0.25245  0.36861  0.67471  1.0000
  C   C25       1.0  0.54278  0.95603  0.83097  1.0000
  C   C26       1.0  0.95724  0.04398  0.33097  1.0000
  C   C27       1.0  0.04274  0.54397  0.16903  1.0000
  C   C28       1.0  0.45724  0.45603  0.66903  1.0000
  C   C29       1.0  0.48402  0.05749  0.78153  1.0000
  C   C30       1.0  0.01601  0.94252  0.28153  1.0000
  C   C31       1.0  0.98399  0.44251  0.21847  1.0000
  C   C32       1.0  0.51600  0.55748  0.71847  1.0000
  C   C33       1.0  0.62514  0.06873  0.72711  1.0000
  C   C34       1.0  0.87488  0.93128  0.22710  1.0000
  C   C35       1.0  0.12512  0.43127  0.27290  1.0000
  C   C36       1.0  0.37489  0.56872  0.77290  1.0000
  C   C37       1.0  0.39013  0.93728  0.88853  1.0000
  C   C38       1.0  0.10989  0.06272  0.38853  1.0000
  C   C39       1.0  0.89011  0.56272  0.11147  1.0000
  C   C40       1.0  0.60988  0.43728  0.61147  1.0000
  O   O1        1.0  0.20998  0.02349  0.89335  1.0000
  O   O2        1.0  0.29004  0.97651  0.39335  1.0000
  O   O3        1.0  0.70996  0.47652  0.10664  1.0000
  O   O4        1.0  0.79001  0.52350  0.60664  1.0000
  O   O5        1.0  0.44478  0.83702  0.93012  1.0000
  O   O6        1.0  0.05524  0.16297  0.43013  1.0000
  O   O7        1.0  0.94475  0.66299  0.06988  1.0000
  O   O8        1.0  0.55524  0.33703  0.56988  1.0000
  O   O9        1.0  0.15801  0.72767  0.53007  1.0000
  O   O10       1.0  0.34199  0.27233  0.03007  1.0000
  O   O11       1.0  0.65801  0.77232  0.46992  1.0000
  O   O12       1.0  0.84200  0.22768  0.96993  1.0000
  O   O13       1.0  0.26340  0.96400  0.55491  1.0000
  O   O14       1.0  0.23659  0.03600  0.05491  1.0000
  O   O15       1.0  0.76338  0.53597  0.44509  1.0000
  O   O16       1.0  0.73658  0.46401  0.94508  1.0000
  O   O17       1.0  0.80299  0.89576  0.00261  1.0000
  O   O18       1.0  0.69701  0.10425  0.50261  1.0000
  O   O19       1.0  0.30297  0.60426  0.99738  1.0000
  O   O20       1.0  0.19700  0.39574  0.49739  1.0000
