data_image0
_chemical_formula_structural       U4Ag4H36C48N8O28
_chemical_formula_sum              "U4 Ag4 H36 C48 N8 O28"
_cell_length_a       8.76689
_cell_length_b       8.84273
_cell_length_c       18.1758
_cell_angle_alpha    90
_cell_angle_beta     90
_cell_angle_gamma    98.5933

_space_group_name_H-M_alt    "P 1"
_space_group_IT_number       1

loop_
  _space_group_symop_operation_xyz
  'x, y, z'

loop_
  _atom_site_type_symbol
  _atom_site_label
  _atom_site_symmetry_multiplicity
  _atom_site_fract_x
  _atom_site_fract_y
  _atom_site_fract_z
  _atom_site_occupancy
  U   U1        1.0  0.30287  0.54793  0.46677  1.0000
  U   U2        1.0  0.19713  0.95207  0.96676  1.0000
  U   U3        1.0  0.69714  0.45209  0.53323  1.0000
  U   U4        1.0  0.80286  0.04792  0.03323  1.0000
  Ag  Ag1       1.0  0.17026  0.43380  0.95742  1.0000
  Ag  Ag2       1.0  0.32974  0.06620  0.45742  1.0000
  Ag  Ag3       1.0  0.82974  0.56620  0.04258  1.0000
  Ag  Ag4       1.0  0.67026  0.93380  0.54258  1.0000
  H   H1        1.0  0.20108  0.67579  0.70170  1.0000
  H   H2        1.0  0.29892  0.82421  0.20170  1.0000
  H   H3        1.0  0.79892  0.32421  0.29830  1.0000
  H   H4        1.0  0.70108  0.17579  0.79830  1.0000
  H   H5        1.0  0.22246  0.65861  0.83904  1.0000
  H   H6        1.0  0.27754  0.84139  0.33904  1.0000
  H   H7        1.0  0.77754  0.34139  0.16096  1.0000
  H   H8        1.0  0.72246  0.15861  0.66096  1.0000
  H   H9        1.0  0.99384  0.21312  0.84037  1.0000
  H   H10       1.0  0.50616  0.28688  0.34037  1.0000
  H   H11       1.0  0.00616  0.78688  0.15963  1.0000
  H   H12       1.0  0.49384  0.71312  0.65963  1.0000
  H   H13       1.0  0.94826  0.22001  0.70387  1.0000
  H   H14       1.0  0.55174  0.27999  0.20387  1.0000
  H   H15       1.0  0.05174  0.77999  0.29613  1.0000
  H   H16       1.0  0.44826  0.72001  0.79613  1.0000
  H   H17       1.0  0.55894  0.68735  0.15368  1.0000
  H   H18       1.0  0.94105  0.81265  0.65368  1.0000
  H   H19       1.0  0.44106  0.31265  0.84632  1.0000
  H   H20       1.0  0.05894  0.18735  0.34632  1.0000
  H   H21       1.0  0.44930  0.63629  0.02863  1.0000
  H   H22       1.0  0.05070  0.86372  0.52863  1.0000
  H   H23       1.0  0.55070  0.36371  0.97137  1.0000
  H   H24       1.0  0.94930  0.13629  0.47137  1.0000
  H   H25       1.0  0.17743  0.36885  0.23862  1.0000
  H   H26       1.0  0.32258  0.13115  0.73862  1.0000
  H   H27       1.0  0.82257  0.63115  0.76138  1.0000
  H   H28       1.0  0.67743  0.86885  0.26138  1.0000
  H   H29       1.0  0.09205  0.31656  0.10872  1.0000
  H   H30       1.0  0.40795  0.18343  0.60872  1.0000
  H   H31       1.0  0.90795  0.68343  0.89128  1.0000
  H   H32       1.0  0.59205  0.81656  0.39128  1.0000
  H   H33       1.0  0.58165  0.54417  0.38503  1.0000
  H   H34       1.0  0.91835  0.95583  0.88503  1.0000
  H   H35       1.0  0.41835  0.45583  0.61497  1.0000
  H   H36       1.0  0.08165  0.04417  0.11497  1.0000
  C   C1        1.0  0.04844  0.46025  0.61048  1.0000
  C   C2        1.0  0.45156  0.03975  0.11048  1.0000
  C   C3        1.0  0.95156  0.53975  0.38952  1.0000
  C   C4        1.0  0.54844  0.96024  0.88952  1.0000
  C   C5        1.0  0.07000  0.44983  0.69238  1.0000
  C   C6        1.0  0.43000  0.05017  0.19238  1.0000
  C   C7        1.0  0.93000  0.55017  0.30762  1.0000
  C   C8        1.0  0.57000  0.94983  0.80762  1.0000
  C   C9        1.0  0.15095  0.57295  0.73084  1.0000
  C   C10       1.0  0.34905  0.92705  0.23084  1.0000
  C   C11       1.0  0.84905  0.42706  0.26916  1.0000
  C   C12       1.0  0.65095  0.07294  0.76916  1.0000
  C   C13       1.0  0.16618  0.56260  0.80658  1.0000
  C   C14       1.0  0.33382  0.93740  0.30658  1.0000
  C   C15       1.0  0.83382  0.43740  0.19342  1.0000
  C   C16       1.0  0.66618  0.06260  0.69342  1.0000
  C   C17       1.0  0.03548  0.31406  0.80746  1.0000
  C   C18       1.0  0.46452  0.18593  0.30746  1.0000
  C   C19       1.0  0.96452  0.68593  0.19254  1.0000
  C   C20       1.0  0.53548  0.81406  0.69254  1.0000
  C   C21       1.0  0.01063  0.31879  0.73197  1.0000
  C   C22       1.0  0.48937  0.18121  0.23196  1.0000
  C   C23       1.0  0.98938  0.68121  0.26803  1.0000
  C   C24       1.0  0.51063  0.81879  0.76803  1.0000
  C   C25       1.0  0.42859  0.56478  0.28442  1.0000
  C   C26       1.0  0.07141  0.93522  0.78442  1.0000
  C   C27       1.0  0.57141  0.43522  0.71558  1.0000
  C   C28       1.0  0.92859  0.06478  0.21558  1.0000
  C   C29       1.0  0.37384  0.53403  0.20667  1.0000
  C   C30       1.0  0.12616  0.96597  0.70667  1.0000
  C   C31       1.0  0.62616  0.46597  0.79333  1.0000
  C   C32       1.0  0.87384  0.03403  0.29333  1.0000
  C   C33       1.0  0.45381  0.60599  0.14652  1.0000
  C   C34       1.0  0.04619  0.89401  0.64652  1.0000
  C   C35       1.0  0.54619  0.39401  0.85348  1.0000
  C   C36       1.0  0.95381  0.10599  0.35348  1.0000
  C   C37       1.0  0.39453  0.57581  0.07620  1.0000
  C   C38       1.0  0.10546  0.92419  0.57620  1.0000
  C   C39       1.0  0.60547  0.42419  0.92380  1.0000
  C   C40       1.0  0.89453  0.07581  0.42380  1.0000
  C   C41       1.0  0.24122  0.42903  0.19349  1.0000
  C   C42       1.0  0.25878  0.07097  0.69349  1.0000
  C   C43       1.0  0.75878  0.57097  0.80651  1.0000
  C   C44       1.0  0.74122  0.92903  0.30651  1.0000
  C   C45       1.0  0.19314  0.39941  0.12155  1.0000
  C   C46       1.0  0.30686  0.10059  0.62155  1.0000
  C   C47       1.0  0.80686  0.60059  0.87845  1.0000
  C   C48       1.0  0.69314  0.89941  0.37845  1.0000
  N   N1        1.0  0.11136  0.43464  0.84439  1.0000
  N   N2        1.0  0.38864  0.06536  0.34439  1.0000
  N   N3        1.0  0.88864  0.56536  0.15561  1.0000
  N   N4        1.0  0.61136  0.93464  0.65561  1.0000
  N   N5        1.0  0.26662  0.47340  0.06389  1.0000
  N   N6        1.0  0.23338  0.02660  0.56389  1.0000
  N   N7        1.0  0.73338  0.52660  0.93611  1.0000
  N   N8        1.0  0.76662  0.97340  0.43611  1.0000
  O   O1        1.0  0.22000  0.34666  0.45741  1.0000
  O   O2        1.0  0.28001  0.15334  0.95741  1.0000
  O   O3        1.0  0.78000  0.65333  0.54259  1.0000
  O   O4        1.0  0.72000  0.84667  0.04259  1.0000
  O   O5        1.0  0.37536  0.75312  0.47208  1.0000
  O   O6        1.0  0.12464  0.74688  0.97208  1.0000
  O   O7        1.0  0.62463  0.24687  0.52792  1.0000
  O   O8        1.0  0.87536  0.25313  0.02792  1.0000
  O   O9        1.0  0.93214  0.37764  0.58195  1.0000
  O   O10       1.0  0.56786  0.12236  0.08195  1.0000
  O   O11       1.0  0.06786  0.62236  0.41805  1.0000
  O   O12       1.0  0.43214  0.87764  0.91805  1.0000
  O   O13       1.0  0.54660  0.49960  0.43400  1.0000
  O   O14       1.0  0.95340  0.00040  0.93400  1.0000
  O   O15       1.0  0.45339  0.50040  0.56600  1.0000
  O   O16       1.0  0.04660  0.99960  0.06600  1.0000
  O   O17       1.0  0.14801  0.55265  0.57589  1.0000
  O   O18       1.0  0.35199  0.94735  0.07589  1.0000
  O   O19       1.0  0.85199  0.44735  0.42411  1.0000
  O   O20       1.0  0.64801  0.05265  0.92411  1.0000
  O   O21       1.0  0.32259  0.55420  0.33368  1.0000
  O   O22       1.0  0.17742  0.94580  0.83368  1.0000
  O   O23       1.0  0.67741  0.44580  0.66632  1.0000
  O   O24       1.0  0.82259  0.05420  0.16632  1.0000
  O   O25       1.0  0.57163  0.59499  0.29584  1.0000
  O   O26       1.0  0.92837  0.90501  0.79584  1.0000
  O   O27       1.0  0.42837  0.40501  0.70416  1.0000
  O   O28       1.0  0.07163  0.09499  0.20416  1.0000
