data_image0
_chemical_formula_structural       Zn2H56C64N4O8
_chemical_formula_sum              "Zn2 H56 C64 N4 O8"
_cell_length_a       9.35359
_cell_length_b       10.0657
_cell_length_c       15.309
_cell_angle_alpha    97.4598
_cell_angle_beta     105.441
_cell_angle_gamma    103.762

_space_group_name_H-M_alt    "P 1"
_space_group_IT_number       1

loop_
  _space_group_symop_operation_xyz
  'x, y, z'

loop_
  _atom_site_type_symbol
  _atom_site_label
  _atom_site_symmetry_multiplicity
  _atom_site_fract_x
  _atom_site_fract_y
  _atom_site_fract_z
  _atom_site_occupancy
  Zn  Zn1       1.0  0.65479  0.87917  0.54115  1.0000
  Zn  Zn2       1.0  0.34522  0.12083  0.45885  1.0000
  H   H1        1.0  0.51907  0.66969  0.36536  1.0000
  H   H2        1.0  0.48093  0.33031  0.63464  1.0000
  H   H3        1.0  0.56692  0.60251  0.21489  1.0000
  H   H4        1.0  0.43308  0.39749  0.78511  1.0000
  H   H5        1.0  0.94166  0.98764  0.29606  1.0000
  H   H6        1.0  0.05834  0.01236  0.70394  1.0000
  H   H7        1.0  0.87871  0.03555  0.44073  1.0000
  H   H8        1.0  0.12129  0.96445  0.55927  1.0000
  H   H9        1.0  0.70647  0.68211  0.09800  1.0000
  H   H10       1.0  0.29353  0.31788  0.90200  1.0000
  H   H11       1.0  0.03838  0.83395  0.22117  1.0000
  H   H12       1.0  0.96162  0.16605  0.77883  1.0000
  H   H13       1.0  0.19673  0.63736  0.81342  1.0000
  H   H14       1.0  0.80327  0.36264  0.18658  1.0000
  H   H15       1.0  0.36829  0.94013  0.91891  1.0000
  H   H16       1.0  0.63171  0.05987  0.08109  1.0000
  H   H17       1.0  0.37770  0.62910  0.75102  1.0000
  H   H18       1.0  0.62230  0.37090  0.24898  1.0000
  H   H19       1.0  0.50537  0.65678  0.62783  1.0000
  H   H20       1.0  0.49463  0.34321  0.37216  1.0000
  H   H21       1.0  0.63459  0.08734  0.70505  1.0000
  H   H22       1.0  0.36540  0.91266  0.29495  1.0000
  H   H23       1.0  0.50988  0.07931  0.83014  1.0000
  H   H24       1.0  0.49012  0.92068  0.16985  1.0000
  H   H25       1.0  0.12171  0.65233  0.22320  1.0000
  H   H26       1.0  0.87828  0.34767  0.77680  1.0000
  H   H27       1.0  0.30704  0.67880  0.20716  1.0000
  H   H28       1.0  0.69296  0.32120  0.79284  1.0000
  H   H29       1.0  0.16071  0.52016  0.15369  1.0000
  H   H30       1.0  0.83929  0.47984  0.84631  1.0000
  H   H31       1.0  0.43158  0.67804  0.08637  1.0000
  H   H32       1.0  0.56842  0.32196  0.91363  1.0000
  H   H33       1.0  0.36346  0.60238  0.96652  1.0000
  H   H34       1.0  0.63654  0.39762  0.03348  1.0000
  H   H35       1.0  0.29530  0.51103  0.04627  1.0000
  H   H36       1.0  0.70470  0.48896  0.95373  1.0000
  H   H37       1.0  0.82118  0.76882  0.80131  1.0000
  H   H38       1.0  0.17882  0.23118  0.19869  1.0000
  H   H39       1.0  0.00009  0.78872  0.77853  1.0000
  H   H40       1.0  0.99991  0.21128  0.22147  1.0000
  H   H41       1.0  0.96300  0.93200  0.83905  1.0000
  H   H42       1.0  0.03700  0.06800  0.16095  1.0000
  H   H43       1.0  0.82261  0.93696  0.93799  1.0000
  H   H44       1.0  0.17739  0.06304  0.06201  1.0000
  H   H45       1.0  0.78534  0.88874  0.03889  1.0000
  H   H46       1.0  0.21466  0.11126  0.96110  1.0000
  H   H47       1.0  0.69732  0.77164  0.93024  1.0000
  H   H48       1.0  0.30268  0.22836  0.06976  1.0000
  H   H49       1.0  0.10174  0.69888  0.62660  1.0000
  H   H50       1.0  0.89826  0.30112  0.37341  1.0000
  H   H51       1.0  0.20914  0.49282  0.63446  1.0000
  H   H52       1.0  0.79086  0.50718  0.36555  1.0000
  H   H53       1.0  0.03077  0.25438  0.60659  1.0000
  H   H54       1.0  0.96923  0.74563  0.39341  1.0000
  H   H55       1.0  0.64148  0.42183  0.54984  1.0000
  H   H56       1.0  0.35852  0.57818  0.45017  1.0000
  C   C1        1.0  0.61074  0.73651  0.34606  1.0000
  C   C2        1.0  0.38926  0.26349  0.65393  1.0000
  C   C3        1.0  0.63797  0.70049  0.26261  1.0000
  C   C4        1.0  0.36203  0.29951  0.73739  1.0000
  C   C5        1.0  0.76116  0.78777  0.24209  1.0000
  C   C6        1.0  0.23884  0.21223  0.75791  1.0000
  C   C7        1.0  0.84655  0.91240  0.30695  1.0000
  C   C8        1.0  0.15344  0.08760  0.69305  1.0000
  C   C9        1.0  0.81141  0.94084  0.38882  1.0000
  C   C10       1.0  0.18859  0.05916  0.61118  1.0000
  C   C11       1.0  0.80076  0.74727  0.15843  1.0000
  C   C12       1.0  0.19924  0.25272  0.84157  1.0000
  C   C13       1.0  0.94784  0.77994  0.15580  1.0000
  C   C14       1.0  0.05216  0.22006  0.84420  1.0000
  C   C15       1.0  0.00232  0.75084  0.07567  1.0000
  C   C16       1.0  0.99767  0.24916  0.92433  1.0000
  C   C17       1.0  0.12710  0.69120  0.08728  1.0000
  C   C18       1.0  0.87290  0.30880  0.91272  1.0000
  C   C19       1.0  0.19748  0.68016  0.01735  1.0000
  C   C20       1.0  0.80252  0.31984  0.98265  1.0000
  C   C21       1.0  0.14391  0.72974  0.93641  1.0000
  C   C22       1.0  0.85609  0.27026  0.06359  1.0000
  C   C23       1.0  0.01167  0.77814  0.92094  1.0000
  C   C24       1.0  0.98833  0.22186  0.07906  1.0000
  C   C25       1.0  0.94050  0.78981  0.99100  1.0000
  C   C26       1.0  0.05951  0.21019  0.00900  1.0000
  C   C27       1.0  0.22938  0.73187  0.86727  1.0000
  C   C28       1.0  0.77062  0.26813  0.13273  1.0000
  C   C29       1.0  0.34139  0.84436  0.86723  1.0000
  C   C30       1.0  0.65861  0.15563  0.13277  1.0000
  C   C31       1.0  0.42638  0.85249  0.79959  1.0000
  C   C32       1.0  0.57363  0.14751  0.20041  1.0000
  C   C33       1.0  0.43113  0.73324  0.74260  1.0000
  C   C34       1.0  0.56887  0.26676  0.25740  1.0000
  C   C35       1.0  0.50259  0.74721  0.67441  1.0000
  C   C36       1.0  0.49741  0.25279  0.32559  1.0000
  C   C37       1.0  0.57604  0.98784  0.71766  1.0000
  C   C38       1.0  0.42396  0.01216  0.28234  1.0000
  C   C39       1.0  0.50581  0.98241  0.78716  1.0000
  C   C40       1.0  0.49419  0.01759  0.21284  1.0000
  C   C41       1.0  0.18192  0.63420  0.17243  1.0000
  C   C42       1.0  0.81808  0.36579  0.82757  1.0000
  C   C43       1.0  0.32868  0.61466  0.02933  1.0000
  C   C44       1.0  0.67132  0.38533  0.97067  1.0000
  C   C45       1.0  0.94653  0.81847  0.83054  1.0000
  C   C46       1.0  0.05347  0.18153  0.16946  1.0000
  C   C47       1.0  0.80504  0.85017  0.97419  1.0000
  C   C48       1.0  0.19496  0.14983  0.02581  1.0000
  C   C49       1.0  0.86572  0.57221  0.58863  1.0000
  C   C50       1.0  0.13428  0.42780  0.41138  1.0000
  C   C51       1.0  0.02618  0.59306  0.61418  1.0000
  C   C52       1.0  0.97382  0.40694  0.38583  1.0000
  C   C53       1.0  0.08554  0.47885  0.61967  1.0000
  C   C54       1.0  0.91446  0.52116  0.38034  1.0000
  C   C55       1.0  0.98636  0.34462  0.60299  1.0000
  C   C56       1.0  0.01364  0.65538  0.39701  1.0000
  C   C57       1.0  0.82625  0.32358  0.57992  1.0000
  C   C58       1.0  0.17375  0.67643  0.42008  1.0000
  C   C59       1.0  0.76615  0.43747  0.57123  1.0000
  C   C60       1.0  0.23385  0.56253  0.42877  1.0000
  C   C61       1.0  0.80044  0.69275  0.57620  1.0000
  C   C62       1.0  0.19956  0.30725  0.42380  1.0000
  C   C63       1.0  0.71983  0.17991  0.56476  1.0000
  C   C64       1.0  0.28017  0.82009  0.43524  1.0000
  N   N1        1.0  0.69658  0.85421  0.40894  1.0000
  N   N2        1.0  0.30342  0.14579  0.59106  1.0000
  N   N3        1.0  0.57329  0.87289  0.66091  1.0000
  N   N4        1.0  0.42671  0.12711  0.33909  1.0000
  O   O1        1.0  0.65376  0.66532  0.53727  1.0000
  O   O2        1.0  0.34624  0.33468  0.46273  1.0000
  O   O3        1.0  0.88885  0.81663  0.60286  1.0000
  O   O4        1.0  0.11116  0.18337  0.39714  1.0000
  O   O5        1.0  0.57581  0.16334  0.54170  1.0000
  O   O6        1.0  0.42419  0.83666  0.45830  1.0000
  O   O7        1.0  0.78362  0.08197  0.57976  1.0000
  O   O8        1.0  0.21638  0.91804  0.42024  1.0000
