data_image0
_chemical_formula_structural       Zn2H54C64N4Cl2O8
_chemical_formula_sum              "Zn2 H54 C64 N4 Cl2 O8"
_cell_length_a       9.95627
_cell_length_b       10.3195
_cell_length_c       16.142
_cell_angle_alpha    81.0925
_cell_angle_beta     75.255
_cell_angle_gamma    81.6755

_space_group_name_H-M_alt    "P 1"
_space_group_IT_number       1

loop_
  _space_group_symop_operation_xyz
  'x, y, z'

loop_
  _atom_site_type_symbol
  _atom_site_label
  _atom_site_symmetry_multiplicity
  _atom_site_fract_x
  _atom_site_fract_y
  _atom_site_fract_z
  _atom_site_occupancy
  Zn  Zn1       1.0  0.35025  0.88277  0.53857  1.0000
  Zn  Zn2       1.0  0.64975  0.11723  0.46143  1.0000
  H   H1        1.0  0.39338  0.94936  0.34028  1.0000
  H   H2        1.0  0.60662  0.05064  0.65972  1.0000
  H   H3        1.0  0.49163  0.83210  0.20955  1.0000
  H   H4        1.0  0.50837  0.16790  0.79045  1.0000
  H   H5        1.0  0.61993  0.49578  0.37983  1.0000
  H   H6        1.0  0.38007  0.50422  0.62017  1.0000
  H   H7        1.0  0.51284  0.62658  0.50135  1.0000
  H   H8        1.0  0.48716  0.37342  0.49865  1.0000
  H   H9        1.0  0.60278  0.63165  0.14633  1.0000
  H   H10       1.0  0.39722  0.36834  0.85367  1.0000
  H   H11       1.0  0.72099  0.41535  0.27135  1.0000
  H   H12       1.0  0.27900  0.58465  0.72865  1.0000
  H   H13       1.0  0.93519  0.27400  0.84451  1.0000
  H   H14       1.0  0.06481  0.72600  0.15549  1.0000
  H   H15       1.0  0.11044  0.07468  0.94771  1.0000
  H   H16       1.0  0.88957  0.92532  0.05229  1.0000
  H   H17       1.0  0.08081  0.24946  0.72420  1.0000
  H   H18       1.0  0.91919  0.75054  0.27580  1.0000
  H   H19       1.0  0.18978  0.14667  0.59054  1.0000
  H   H20       1.0  0.81022  0.85334  0.40946  1.0000
  H   H21       1.0  0.34397  0.80906  0.72592  1.0000
  H   H22       1.0  0.65603  0.19094  0.27408  1.0000
  H   H23       1.0  0.23112  0.89183  0.86781  1.0000
  H   H24       1.0  0.76888  0.10817  0.13219  1.0000
  H   H25       1.0  0.47983  0.43742  0.05838  1.0000
  H   H26       1.0  0.52017  0.56258  0.94162  1.0000
  H   H27       1.0  0.48697  0.40912  0.16858  1.0000
  H   H28       1.0  0.51303  0.59088  0.83142  1.0000
  H   H29       1.0  0.49133  0.27512  0.11074  1.0000
  H   H30       1.0  0.50866  0.72488  0.88926  1.0000
  H   H31       1.0  0.59634  0.19610  0.98846  1.0000
  H   H32       1.0  0.40366  0.80390  0.01154  1.0000
  H   H33       1.0  0.73738  0.21088  0.89659  1.0000
  H   H34       1.0  0.26262  0.78912  0.10341  1.0000
  H   H35       1.0  0.61079  0.34777  0.92118  1.0000
  H   H36       1.0  0.38921  0.65223  0.07882  1.0000
  H   H37       1.0  0.18351  0.21436  0.05323  1.0000
  H   H38       1.0  0.81649  0.78564  0.94677  1.0000
  H   H39       1.0  0.17778  0.38784  0.02811  1.0000
  H   H40       1.0  0.82222  0.61216  0.97189  1.0000
  H   H41       1.0  0.18292  0.28875  0.94660  1.0000
  H   H42       1.0  0.81708  0.71125  0.05340  1.0000
  H   H43       1.0  0.92905  0.40913  0.23839  1.0000
  H   H44       1.0  0.07095  0.59087  0.76161  1.0000
  H   H45       1.0  0.03849  0.49350  0.14843  1.0000
  H   H46       1.0  0.96151  0.50650  0.85157  1.0000
  H   H47       1.0  0.08100  0.32351  0.17901  1.0000
  H   H48       1.0  0.91900  0.67649  0.82099  1.0000
  H   H49       1.0  0.63418  0.55895  0.62970  1.0000
  H   H50       1.0  0.36582  0.44105  0.37030  1.0000
  H   H51       1.0  0.07609  0.48767  0.62190  1.0000
  H   H52       1.0  0.92391  0.51233  0.37810  1.0000
  H   H53       1.0  0.89213  0.87900  0.54989  1.0000
  H   H54       1.0  0.10787  0.12100  0.45011  1.0000
  C   C1        1.0  0.44380  0.84843  0.34541  1.0000
  C   C2        1.0  0.55620  0.15157  0.65459  1.0000
  C   C3        1.0  0.49891  0.78244  0.27332  1.0000
  C   C4        1.0  0.50109  0.21756  0.72668  1.0000
  C   C5        1.0  0.56330  0.65221  0.28281  1.0000
  C   C6        1.0  0.43670  0.34779  0.71719  1.0000
  C   C7        1.0  0.56913  0.59529  0.36708  1.0000
  C   C8        1.0  0.43087  0.40472  0.63292  1.0000
  C   C9        1.0  0.51086  0.66764  0.43535  1.0000
  C   C10       1.0  0.48914  0.33236  0.56465  1.0000
  C   C11       1.0  0.62098  0.58124  0.20800  1.0000
  C   C12       1.0  0.37902  0.41876  0.79200  1.0000
  C   C13       1.0  0.69814  0.46247  0.21007  1.0000
  C   C14       1.0  0.30186  0.53753  0.78993  1.0000
  C   C15       1.0  0.76431  0.39540  0.13336  1.0000
  C   C16       1.0  0.23570  0.60460  0.86664  1.0000
  C   C17       1.0  0.68581  0.36106  0.07985  1.0000
  C   C18       1.0  0.31419  0.63894  0.92015  1.0000
  C   C19       1.0  0.75633  0.30472  0.00438  1.0000
  C   C20       1.0  0.24367  0.69528  0.99562  1.0000
  C   C21       1.0  0.90436  0.28270  0.98247  1.0000
  C   C22       1.0  0.09564  0.71729  0.01753  1.0000
  C   C23       1.0  0.98221  0.31397  0.03764  1.0000
  C   C24       1.0  0.01779  0.68603  0.96236  1.0000
  C   C25       1.0  0.91136  0.36711  0.11410  1.0000
  C   C26       1.0  0.08864  0.63289  0.88590  1.0000
  C   C27       1.0  0.97358  0.22891  0.90131  1.0000
  C   C28       1.0  0.02642  0.77109  0.09869  1.0000
  C   C29       1.0  0.07672  0.12799  0.89112  1.0000
  C   C30       1.0  0.92328  0.87201  0.10888  1.0000
  C   C31       1.0  0.14428  0.07850  0.80906  1.0000
  C   C32       1.0  0.85572  0.92150  0.19094  1.0000
  C   C33       1.0  0.13576  0.15038  0.72865  1.0000
  C   C34       1.0  0.86423  0.84962  0.27135  1.0000
  C   C35       1.0  0.19779  0.09455  0.65345  1.0000
  C   C36       1.0  0.80221  0.90545  0.34655  1.0000
  C   C37       1.0  0.28290  0.90539  0.72941  1.0000
  C   C38       1.0  0.71710  0.09461  0.27059  1.0000
  C   C39       1.0  0.22142  0.95316  0.80774  1.0000
  C   C40       1.0  0.77859  0.04684  0.19226  1.0000
  C   C41       1.0  0.52833  0.37225  0.10598  1.0000
  C   C42       1.0  0.47167  0.62775  0.89403  1.0000
  C   C43       1.0  0.67205  0.26284  0.94950  1.0000
  C   C44       1.0  0.32795  0.73715  0.05050  1.0000
  C   C45       1.0  0.13972  0.30026  0.01481  1.0000
  C   C46       1.0  0.86028  0.69975  0.98519  1.0000
  C   C47       1.0  0.99351  0.39960  0.17323  1.0000
  C   C48       1.0  0.00649  0.60040  0.82677  1.0000
  C   C49       1.0  0.75026  0.72822  0.58901  1.0000
  C   C50       1.0  0.24974  0.27179  0.41099  1.0000
  C   C51       1.0  0.73606  0.59441  0.61732  1.0000
  C   C52       1.0  0.26393  0.40559  0.38268  1.0000
  C   C53       1.0  0.85378  0.50875  0.62794  1.0000
  C   C54       1.0  0.14622  0.49125  0.37206  1.0000
  C   C55       1.0  0.98403  0.55420  0.61297  1.0000
  C   C56       1.0  0.01596  0.44580  0.38703  1.0000
  C   C57       1.0  0.99710  0.68839  0.58579  1.0000
  C   C58       1.0  0.00290  0.31161  0.41421  1.0000
  C   C59       1.0  0.88078  0.77509  0.57255  1.0000
  C   C60       1.0  0.11922  0.22491  0.42745  1.0000
  C   C61       1.0  0.62562  0.82041  0.57297  1.0000
  C   C62       1.0  0.37438  0.17959  0.42703  1.0000
  C   C63       1.0  0.13612  0.73854  0.57345  1.0000
  C   C64       1.0  0.86388  0.26146  0.42655  1.0000
  N   N1        1.0  0.44899  0.79244  0.42565  1.0000
  N   N2        1.0  0.55101  0.20757  0.57435  1.0000
  N   N3        1.0  0.27117  0.97408  0.65314  1.0000
  N   N4        1.0  0.72883  0.02592  0.34686  1.0000
  Cl  Cl1       1.0  0.83741  0.34172  0.65996  1.0000
  Cl  Cl2       1.0  0.16259  0.65829  0.34004  1.0000
  O   O1        1.0  0.50696  0.77585  0.59602  1.0000
  O   O2        1.0  0.49304  0.22415  0.40398  1.0000
  O   O3        1.0  0.64706  0.93556  0.53625  1.0000
  O   O4        1.0  0.35294  0.06444  0.46375  1.0000
  O   O5        1.0  0.23025  0.66649  0.60428  1.0000
  O   O6        1.0  0.76975  0.33350  0.39572  1.0000
  O   O7        1.0  0.15126  0.85475  0.53318  1.0000
  O   O8        1.0  0.84874  0.14525  0.46682  1.0000
