data_image0
_chemical_formula_structural       Cu4H48C56N16O16
_chemical_formula_sum              "Cu4 H48 C56 N16 O16"
_cell_length_a       10.2576
_cell_length_b       12.0924
_cell_length_c       13.9951
_cell_angle_alpha    93.4443
_cell_angle_beta     90
_cell_angle_gamma    90

_space_group_name_H-M_alt    "P 1"
_space_group_IT_number       1

loop_
  _space_group_symop_operation_xyz
  'x, y, z'

loop_
  _atom_site_type_symbol
  _atom_site_label
  _atom_site_symmetry_multiplicity
  _atom_site_fract_x
  _atom_site_fract_y
  _atom_site_fract_z
  _atom_site_occupancy
  Cu  Cu1       1.0  0.86223  0.05737  0.10048  1.0000
  Cu  Cu2       1.0  0.36210  0.94274  0.39915  1.0000
  Cu  Cu3       1.0  0.13779  0.94264  0.89953  1.0000
  Cu  Cu4       1.0  0.63792  0.05725  0.60085  1.0000
  H   H1        1.0  0.88125  0.66616  0.07193  1.0000
  H   H2        1.0  0.38131  0.33386  0.42810  1.0000
  H   H3        1.0  0.11879  0.33384  0.92803  1.0000
  H   H4        1.0  0.61871  0.66614  0.57191  1.0000
  H   H5        1.0  0.86699  0.49225  0.15793  1.0000
  H   H6        1.0  0.36704  0.50778  0.34210  1.0000
  H   H7        1.0  0.13299  0.50776  0.84205  1.0000
  H   H8        1.0  0.63296  0.49222  0.65791  1.0000
  H   H9        1.0  0.99853  0.47161  0.30550  1.0000
  H   H10       1.0  0.49850  0.52839  0.19449  1.0000
  H   H11       1.0  0.00139  0.52841  0.69451  1.0000
  H   H12       1.0  0.50146  0.47160  0.80550  1.0000
  H   H13       1.0  0.14409  0.62659  0.36607  1.0000
  H   H14       1.0  0.64402  0.37338  0.13390  1.0000
  H   H15       1.0  0.85584  0.37341  0.63395  1.0000
  H   H16       1.0  0.35596  0.62662  0.86609  1.0000
  H   H17       1.0  0.28598  0.18141  0.25680  1.0000
  H   H18       1.0  0.78615  0.81850  0.24324  1.0000
  H   H19       1.0  0.71405  0.81864  0.74319  1.0000
  H   H20       1.0  0.21386  0.18146  0.75677  1.0000
  H   H21       1.0  0.18086  0.37426  0.19085  1.0000
  H   H22       1.0  0.68084  0.62570  0.30914  1.0000
  H   H23       1.0  0.81914  0.62577  0.80914  1.0000
  H   H24       1.0  0.31914  0.37427  0.69086  1.0000
  H   H25       1.0  0.94407  0.30333  0.11245  1.0000
  H   H26       1.0  0.44392  0.69672  0.38729  1.0000
  H   H27       1.0  0.05594  0.69668  0.88755  1.0000
  H   H28       1.0  0.55608  0.30327  0.61271  1.0000
  H   H29       1.0  0.55428  0.96798  0.82986  1.0000
  H   H30       1.0  0.05472  0.03197  0.67018  1.0000
  H   H31       1.0  0.44572  0.03201  0.17017  1.0000
  H   H32       1.0  0.94528  0.96804  0.32980  1.0000
  H   H33       1.0  0.50003  0.80097  0.95070  1.0000
  H   H34       1.0  0.00000  0.19908  0.54952  1.0000
  H   H35       1.0  0.49997  0.19904  0.04934  1.0000
  H   H36       1.0  0.99999  0.80091  0.45045  1.0000
  H   H37       1.0  0.67620  0.83896  0.09857  1.0000
  H   H38       1.0  0.17562  0.16119  0.40130  1.0000
  H   H39       1.0  0.32380  0.16106  0.90146  1.0000
  H   H40       1.0  0.82438  0.83879  0.59867  1.0000
  H   H41       1.0  0.12252  0.03066  0.21592  1.0000
  H   H42       1.0  0.62274  0.96932  0.28394  1.0000
  H   H43       1.0  0.87751  0.96937  0.78408  1.0000
  H   H44       1.0  0.37728  0.03067  0.71607  1.0000
  H   H45       1.0  0.74123  0.07829  0.91108  1.0000
  H   H46       1.0  0.24144  0.92172  0.58850  1.0000
  H   H47       1.0  0.25878  0.92170  0.08892  1.0000
  H   H48       1.0  0.75857  0.07828  0.41150  1.0000
  C   C1        1.0  0.01572  0.84869  0.11808  1.0000
  C   C2        1.0  0.51575  0.15125  0.38187  1.0000
  C   C3        1.0  0.98431  0.15130  0.88191  1.0000
  C   C4        1.0  0.48425  0.84874  0.61812  1.0000
  C   C5        1.0  0.01948  0.74358  0.17091  1.0000
  C   C6        1.0  0.51952  0.25642  0.32910  1.0000
  C   C7        1.0  0.98052  0.25642  0.82909  1.0000
  C   C8        1.0  0.48048  0.74358  0.67089  1.0000
  C   C9        1.0  0.93894  0.65640  0.13647  1.0000
  C   C10       1.0  0.43897  0.34361  0.36356  1.0000
  C   C11       1.0  0.06107  0.34361  0.86352  1.0000
  C   C12       1.0  0.56103  0.65639  0.63644  1.0000
  C   C13       1.0  0.93119  0.55906  0.18467  1.0000
  C   C14       1.0  0.43120  0.44096  0.31535  1.0000
  C   C15       1.0  0.06879  0.44095  0.81532  1.0000
  C   C16       1.0  0.56878  0.55903  0.68466  1.0000
  C   C17       1.0  0.00457  0.54768  0.26775  1.0000
  C   C18       1.0  0.50455  0.45232  0.23225  1.0000
  C   C19       1.0  0.99537  0.45233  0.73225  1.0000
  C   C20       1.0  0.49542  0.54767  0.76775  1.0000
  C   C21       1.0  0.08595  0.63359  0.30150  1.0000
  C   C22       1.0  0.58590  0.36640  0.19849  1.0000
  C   C23       1.0  0.91400  0.36642  0.69851  1.0000
  C   C24       1.0  0.41407  0.63359  0.80150  1.0000
  C   C25       1.0  0.09439  0.73230  0.25397  1.0000
  C   C26       1.0  0.59440  0.26770  0.24601  1.0000
  C   C27       1.0  0.90559  0.26770  0.74604  1.0000
  C   C28       1.0  0.40559  0.73229  0.75398  1.0000
  C   C29       1.0  0.18268  0.82393  0.29201  1.0000
  C   C30       1.0  0.68266  0.17605  0.20793  1.0000
  C   C31       1.0  0.81731  0.17606  0.70800  1.0000
  C   C32       1.0  0.31734  0.82395  0.79206  1.0000
  C   C33       1.0  0.19387  0.19679  0.22185  1.0000
  C   C34       1.0  0.69396  0.80316  0.27810  1.0000
  C   C35       1.0  0.80615  0.80325  0.77815  1.0000
  C   C36       1.0  0.30604  0.19681  0.72191  1.0000
  C   C37       1.0  0.13894  0.29195  0.18773  1.0000
  C   C38       1.0  0.63893  0.70803  0.31219  1.0000
  C   C39       1.0  0.86107  0.70808  0.81226  1.0000
  C   C40       1.0  0.36106  0.29195  0.68781  1.0000
  C   C41       1.0  0.01874  0.25776  0.14816  1.0000
  C   C42       1.0  0.51868  0.74227  0.35164  1.0000
  C   C43       1.0  0.98127  0.74226  0.85183  1.0000
  C   C44       1.0  0.48132  0.25771  0.64836  1.0000
  C   C45       1.0  0.59511  0.95068  0.89881  1.0000
  C   C46       1.0  0.09530  0.04933  0.60116  1.0000
  C   C47       1.0  0.40489  0.04932  0.10122  1.0000
  C   C48       1.0  0.90471  0.95067  0.39883  1.0000
  C   C49       1.0  0.57228  0.86595  0.95967  1.0000
  C   C50       1.0  0.07225  0.13409  0.54039  1.0000
  C   C51       1.0  0.42772  0.13405  0.04036  1.0000
  C   C52       1.0  0.92775  0.86589  0.45959  1.0000
  C   C53       1.0  0.66100  0.88462  0.03524  1.0000
  C   C54       1.0  0.16069  0.11546  0.46463  1.0000
  C   C55       1.0  0.33900  0.11539  0.96479  1.0000
  C   C56       1.0  0.83931  0.88452  0.53535  1.0000
  N   N1        1.0  0.00187  0.14872  0.15777  1.0000
  N   N2        1.0  0.50188  0.85132  0.34200  1.0000
  N   N3        1.0  0.99815  0.85130  0.84223  1.0000
  N   N4        1.0  0.49814  0.14867  0.65800  1.0000
  N   N5        1.0  0.10877  0.11321  0.20292  1.0000
  N   N6        1.0  0.60887  0.88676  0.29694  1.0000
  N   N7        1.0  0.89126  0.88681  0.79708  1.0000
  N   N8        1.0  0.39115  0.11322  0.70307  1.0000
  N   N9        1.0  0.73322  0.97492  0.02125  1.0000
  N   N10       1.0  0.23298  0.02514  0.47844  1.0000
  N   N11       1.0  0.26679  0.02509  0.97877  1.0000
  N   N12       1.0  0.76703  0.97484  0.52155  1.0000
  N   N13       1.0  0.69097  0.01429  0.93863  1.0000
  N   N14       1.0  0.19103  0.98573  0.56112  1.0000
  N   N15       1.0  0.30903  0.98571  0.06139  1.0000
  N   N16       1.0  0.80898  0.01427  0.43887  1.0000
  O   O1        1.0  0.92994  0.91822  0.15231  1.0000
  O   O2        1.0  0.42987  0.08186  0.34756  1.0000
  O   O3        1.0  0.07011  0.08179  0.84768  1.0000
  O   O4        1.0  0.57014  0.91814  0.65244  1.0000
  O   O5        1.0  0.08596  0.85683  0.04592  1.0000
  O   O6        1.0  0.58601  0.14297  0.45404  1.0000
  O   O7        1.0  0.91407  0.14315  0.95407  1.0000
  O   O8        1.0  0.41401  0.85703  0.54596  1.0000
  O   O9        1.0  0.23610  0.81156  0.37366  1.0000
  O   O10       1.0  0.73599  0.18841  0.12623  1.0000
  O   O11       1.0  0.76391  0.18841  0.62635  1.0000
  O   O12       1.0  0.26403  0.81161  0.87377  1.0000
  O   O13       1.0  0.20169  0.90732  0.24309  1.0000
  O   O14       1.0  0.70171  0.09266  0.25685  1.0000
  O   O15       1.0  0.79829  0.09268  0.75694  1.0000
  O   O16       1.0  0.29826  0.90732  0.74312  1.0000
