data_image0
_chemical_formula_structural       Cd8H20C28N4O24
_chemical_formula_sum              "Cd8 H20 C28 N4 O24"
_cell_length_a       8.1771
_cell_length_b       10.5965
_cell_length_c       11.0081
_cell_angle_alpha    89.9998
_cell_angle_beta     90
_cell_angle_gamma    95.3471

_space_group_name_H-M_alt    "P 1"
_space_group_IT_number       1

loop_
  _space_group_symop_operation_xyz
  'x, y, z'

loop_
  _atom_site_type_symbol
  _atom_site_label
  _atom_site_symmetry_multiplicity
  _atom_site_fract_x
  _atom_site_fract_y
  _atom_site_fract_z
  _atom_site_occupancy
  Cd  Cd1       1.0  0.65244  0.39600  0.47176  1.0000
  Cd  Cd2       1.0  0.84756  0.60400  0.97176  1.0000
  Cd  Cd3       1.0  0.34756  0.60400  0.52824  1.0000
  Cd  Cd4       1.0  0.15244  0.39600  0.02824  1.0000
  Cd  Cd5       1.0  0.49481  0.39047  0.76369  1.0000
  Cd  Cd6       1.0  0.00519  0.60953  0.26369  1.0000
  Cd  Cd7       1.0  0.50520  0.60953  0.23631  1.0000
  Cd  Cd8       1.0  0.99481  0.39047  0.73631  1.0000
  H   H1        1.0  0.30929  0.33998  0.55917  1.0000
  H   H2        1.0  0.19071  0.66002  0.05917  1.0000
  H   H3        1.0  0.69071  0.66002  0.44083  1.0000
  H   H4        1.0  0.80929  0.33998  0.94083  1.0000
  H   H5        1.0  0.76313  0.52673  0.67651  1.0000
  H   H6        1.0  0.73687  0.47327  0.17651  1.0000
  H   H7        1.0  0.23687  0.47326  0.32349  1.0000
  H   H8        1.0  0.26313  0.52674  0.82349  1.0000
  H   H9        1.0  0.01810  0.07678  0.25986  1.0000
  H   H10       1.0  0.48190  0.92322  0.75986  1.0000
  H   H11       1.0  0.98190  0.92322  0.74014  1.0000
  H   H12       1.0  0.51810  0.07678  0.24014  1.0000
  H   H13       1.0  0.69742  0.88611  0.52613  1.0000
  H   H14       1.0  0.80258  0.11389  0.02613  1.0000
  H   H15       1.0  0.30258  0.11389  0.47387  1.0000
  H   H16       1.0  0.19742  0.88611  0.97387  1.0000
  H   H17       1.0  0.60422  0.09887  0.58147  1.0000
  H   H18       1.0  0.89578  0.90113  0.08147  1.0000
  H   H19       1.0  0.39578  0.90113  0.41853  1.0000
  H   H20       1.0  0.10422  0.09887  0.91853  1.0000
  C   C1        1.0  0.87070  0.19194  0.36827  1.0000
  C   C2        1.0  0.62930  0.80806  0.86827  1.0000
  C   C3        1.0  0.12930  0.80806  0.63173  1.0000
  C   C4        1.0  0.37070  0.19194  0.13173  1.0000
  C   C5        1.0  0.92492  0.07758  0.33031  1.0000
  C   C6        1.0  0.57508  0.92242  0.83031  1.0000
  C   C7        1.0  0.07507  0.92242  0.66969  1.0000
  C   C8        1.0  0.42492  0.07758  0.16969  1.0000
  C   C9        1.0  0.86197  0.96513  0.38638  1.0000
  C   C10       1.0  0.63803  0.03486  0.88638  1.0000
  C   C11       1.0  0.13803  0.03487  0.61363  1.0000
  C   C12       1.0  0.36197  0.96513  0.11363  1.0000
  C   C13       1.0  0.74637  0.97175  0.47894  1.0000
  C   C14       1.0  0.75363  0.02825  0.97894  1.0000
  C   C15       1.0  0.25363  0.02825  0.52106  1.0000
  C   C16       1.0  0.24637  0.97175  0.02106  1.0000
  C   C17       1.0  0.69469  0.08939  0.50976  1.0000
  C   C18       1.0  0.80531  0.91061  0.00976  1.0000
  C   C19       1.0  0.30531  0.91061  0.49025  1.0000
  C   C20       1.0  0.19469  0.08939  0.99025  1.0000
  C   C21       1.0  0.94587  0.31588  0.31524  1.0000
  C   C22       1.0  0.55413  0.68412  0.81524  1.0000
  C   C23       1.0  0.05412  0.68412  0.68476  1.0000
  C   C24       1.0  0.44587  0.31588  0.18477  1.0000
  C   C25       1.0  0.92095  0.84087  0.34860  1.0000
  C   C26       1.0  0.57905  0.15914  0.84860  1.0000
  C   C27       1.0  0.07905  0.15914  0.65140  1.0000
  C   C28       1.0  0.42095  0.84087  0.15140  1.0000
  N   N1        1.0  0.75506  0.19697  0.45495  1.0000
  N   N2        1.0  0.74494  0.80303  0.95495  1.0000
  N   N3        1.0  0.24494  0.80302  0.54505  1.0000
  N   N4        1.0  0.25506  0.19697  0.04505  1.0000
  O   O1        1.0  0.40686  0.40171  0.56668  1.0000
  O   O2        1.0  0.09314  0.59829  0.06668  1.0000
  O   O3        1.0  0.59314  0.59829  0.43332  1.0000
  O   O4        1.0  0.90686  0.40170  0.93332  1.0000
  O   O5        1.0  0.74825  0.43491  0.66501  1.0000
  O   O6        1.0  0.75175  0.56509  0.16501  1.0000
  O   O7        1.0  0.25175  0.56509  0.33498  1.0000
  O   O8        1.0  0.24825  0.43491  0.83499  1.0000
  O   O9        1.0  0.89759  0.41835  0.35891  1.0000
  O   O10       1.0  0.60241  0.58165  0.85891  1.0000
  O   O11       1.0  0.10241  0.58165  0.64109  1.0000
  O   O12       1.0  0.39759  0.41835  0.14109  1.0000
  O   O13       1.0  0.05318  0.31085  0.23386  1.0000
  O   O14       1.0  0.44681  0.68915  0.73387  1.0000
  O   O15       1.0  0.94681  0.68916  0.76613  1.0000
  O   O16       1.0  0.55319  0.31085  0.26614  1.0000
  O   O17       1.0  0.00542  0.83790  0.25194  1.0000
  O   O18       1.0  0.49457  0.16210  0.75194  1.0000
  O   O19       1.0  0.99458  0.16210  0.74806  1.0000
  O   O20       1.0  0.50542  0.83790  0.24806  1.0000
  O   O21       1.0  0.88451  0.74348  0.41514  1.0000
  O   O22       1.0  0.61549  0.25651  0.91514  1.0000
  O   O23       1.0  0.11549  0.25651  0.58486  1.0000
  O   O24       1.0  0.38451  0.74349  0.08486  1.0000
