data_image0
_chemical_formula_structural       Cd8H20C28N4O24
_chemical_formula_sum              "Cd8 H20 C28 N4 O24"
_cell_length_a       6.05652
_cell_length_b       10.6275
_cell_length_c       15.4425
_cell_angle_alpha    107.728
_cell_angle_beta     89.9994
_cell_angle_gamma    90.0004

_space_group_name_H-M_alt    "P 1"
_space_group_IT_number       1

loop_
  _space_group_symop_operation_xyz
  'x, y, z'

loop_
  _atom_site_type_symbol
  _atom_site_label
  _atom_site_symmetry_multiplicity
  _atom_site_fract_x
  _atom_site_fract_y
  _atom_site_fract_z
  _atom_site_occupancy
  Cd  Cd1       1.0  0.21854  0.46656  0.68600  1.0000
  Cd  Cd2       1.0  0.71854  0.53343  0.81400  1.0000
  Cd  Cd3       1.0  0.78147  0.53344  0.31400  1.0000
  Cd  Cd4       1.0  0.28146  0.46657  0.18600  1.0000
  Cd  Cd5       1.0  0.23126  0.42591  0.93740  1.0000
  Cd  Cd6       1.0  0.73126  0.57409  0.56260  1.0000
  Cd  Cd7       1.0  0.76874  0.57409  0.06260  1.0000
  Cd  Cd8       1.0  0.26875  0.42591  0.43740  1.0000
  H   H1        1.0  0.46234  0.33547  0.77564  1.0000
  H   H2        1.0  0.96234  0.66453  0.72436  1.0000
  H   H3        1.0  0.53766  0.66453  0.22436  1.0000
  H   H4        1.0  0.03766  0.33547  0.27564  1.0000
  H   H5        1.0  0.52869  0.35197  0.55775  1.0000
  H   H6        1.0  0.02869  0.64803  0.94225  1.0000
  H   H7        1.0  0.47132  0.64804  0.44225  1.0000
  H   H8        1.0  0.97130  0.35197  0.05776  1.0000
  H   H9        1.0  0.17575  0.01412  0.57924  1.0000
  H   H10       1.0  0.67575  0.98587  0.92076  1.0000
  H   H11       1.0  0.82425  0.98588  0.42076  1.0000
  H   H12       1.0  0.32425  0.01413  0.07924  1.0000
  H   H13       1.0  0.54587  0.09831  0.71487  1.0000
  H   H14       1.0  0.04587  0.90168  0.78513  1.0000
  H   H15       1.0  0.45413  0.90169  0.28513  1.0000
  H   H16       1.0  0.95414  0.09831  0.21487  1.0000
  H   H17       1.0  0.47405  0.85419  0.66557  1.0000
  H   H18       1.0  0.97406  0.14580  0.83443  1.0000
  H   H19       1.0  0.52595  0.14581  0.33443  1.0000
  H   H20       1.0  0.02594  0.85420  0.16557  1.0000
  C   C1        1.0  0.96806  0.84861  0.57677  1.0000
  C   C2        1.0  0.46806  0.15138  0.92323  1.0000
  C   C3        1.0  0.03194  0.15139  0.42323  1.0000
  C   C4        1.0  0.53194  0.84862  0.07677  1.0000
  C   C5        1.0  0.01885  0.98283  0.60022  1.0000
  C   C6        1.0  0.51885  0.01717  0.89978  1.0000
  C   C7        1.0  0.98115  0.01718  0.39978  1.0000
  C   C8        1.0  0.48115  0.98283  0.10022  1.0000
  C   C9        1.0  0.86785  0.07519  0.65168  1.0000
  C   C10       1.0  0.36785  0.92480  0.84832  1.0000
  C   C11       1.0  0.13215  0.92481  0.34832  1.0000
  C   C12       1.0  0.63216  0.07520  0.15168  1.0000
  C   C13       1.0  0.66785  0.02926  0.67535  1.0000
  C   C14       1.0  0.16786  0.97074  0.82465  1.0000
  C   C15       1.0  0.33214  0.97074  0.32465  1.0000
  C   C16       1.0  0.83215  0.02926  0.17535  1.0000
  C   C17       1.0  0.62805  0.89392  0.64868  1.0000
  C   C18       1.0  0.12805  0.10608  0.85132  1.0000
  C   C19       1.0  0.37195  0.10608  0.35132  1.0000
  C   C20       1.0  0.87195  0.89392  0.14868  1.0000
  C   C21       1.0  0.12981  0.74593  0.52204  1.0000
  C   C22       1.0  0.62980  0.25407  0.97796  1.0000
  C   C23       1.0  0.87019  0.25408  0.47797  1.0000
  C   C24       1.0  0.37019  0.74593  0.02204  1.0000
  C   C25       1.0  0.92463  0.22076  0.68416  1.0000
  C   C26       1.0  0.42464  0.77924  0.81584  1.0000
  C   C27       1.0  0.07536  0.77925  0.31584  1.0000
  C   C28       1.0  0.57537  0.22076  0.18417  1.0000
  N   N1        1.0  0.77622  0.80533  0.60202  1.0000
  N   N2        1.0  0.27622  0.19466  0.89798  1.0000
  N   N3        1.0  0.22378  0.19467  0.39798  1.0000
  N   N4        1.0  0.72377  0.80534  0.10202  1.0000
  O   O1        1.0  0.40058  0.42407  0.80183  1.0000
  O   O2        1.0  0.90059  0.57593  0.69817  1.0000
  O   O3        1.0  0.59942  0.57593  0.19817  1.0000
  O   O4        1.0  0.09942  0.42407  0.30183  1.0000
  O   O5        1.0  0.45067  0.43894  0.57309  1.0000
  O   O6        1.0  0.95066  0.56106  0.92691  1.0000
  O   O7        1.0  0.54934  0.56107  0.42691  1.0000
  O   O8        1.0  0.04933  0.43893  0.07309  1.0000
  O   O9        1.0  0.07430  0.62467  0.50835  1.0000
  O   O10       1.0  0.57430  0.37533  0.99165  1.0000
  O   O11       1.0  0.92571  0.37534  0.49165  1.0000
  O   O12       1.0  0.42569  0.62467  0.00835  1.0000
  O   O13       1.0  0.30425  0.78489  0.49468  1.0000
  O   O14       1.0  0.80425  0.21510  0.00532  1.0000
  O   O15       1.0  0.69575  0.21511  0.50532  1.0000
  O   O16       1.0  0.19574  0.78489  0.99468  1.0000
  O   O17       1.0  0.09429  0.25416  0.64804  1.0000
  O   O18       1.0  0.59428  0.74583  0.85195  1.0000
  O   O19       1.0  0.90570  0.74584  0.35195  1.0000
  O   O20       1.0  0.40573  0.25418  0.14806  1.0000
  O   O21       1.0  0.80376  0.29487  0.74612  1.0000
  O   O22       1.0  0.30376  0.70513  0.75387  1.0000
  O   O23       1.0  0.19623  0.70514  0.25387  1.0000
  O   O24       1.0  0.69626  0.29487  0.24614  1.0000
